#       Name:                CT1002167954
#       Creating user name   hitesit
#       Creation time:       Sun Apr 16 20:15:43 2023


#       File generated by GOLD software.
#

@<TRIPOS>MOLECULE
CT1002167954|ligand_prepared|mol2|1|dock4
    29    30     1
SMALL
NO_CHARGES


@<TRIPOS>ATOM
      1 C1          -9.6692  -7.9254  17.0698 C.3            1 RES1               0.0000
      2 C2          -9.3549  -9.2471  17.8000 C.ar           1 RES1               0.0000
      3 C3         -11.1521  -7.6503  17.3010 C.2            1 RES1               0.0000
      4 C4          -8.7407  -6.8754  17.6697 C.2            1 RES1               0.0000
      5 C5          -9.4109  -7.9769  15.5459 C.3            1 RES1               0.0000
      6 C6          -9.2756 -10.4445  17.0953 C.ar           1 RES1               0.0000
      7 C7          -9.1398  -9.2843  19.1751 C.ar           1 RES1               0.0000
      8 N8         -11.4816  -6.6589  18.1775 N.am           1 RES1               0.0000
      9 O9         -12.0192  -8.3194  16.7526 O.2            1 RES1               0.0000
     10 N10         -9.3060  -5.8492  18.3805 N.am           1 RES1               0.0000
     11 O11         -7.5235  -6.9364  17.5474 O.2            1 RES1               0.0000
     12 C12         -9.5053  -6.6221  14.8619 C.3            1 RES1               0.0000
     13 C13         -8.9886 -11.6356  17.7413 C.ar           1 RES1               0.0000
     14 C14         -8.8531 -10.4765  19.8192 C.ar           1 RES1               0.0000
     15 C15        -10.6322  -5.7102  18.6876 C.2            1 RES1               0.0000
     16 C16         -8.7767 -11.6524  19.1035 C.ar           1 RES1               0.0000
     17 O17        -11.0576  -4.7887  19.3782 O.2            1 RES1               0.0000
     18 H18         -8.4105  -8.3917  15.3711 H              1 RES1               0.0000
     19 H19        -10.1402  -8.6557  15.0868 H              1 RES1               0.0000
     20 H20         -9.4417 -10.4513  16.0232 H              1 RES1               0.0000
     21 H21         -9.1959  -8.3717  19.7587 H              1 RES1               0.0000
     22 H22        -12.4491  -6.6192  18.4821 H              1 RES1               0.0000
     23 H23         -8.6804  -5.1216  18.7111 H              1 RES1               0.0000
     24 H24         -9.3157  -6.7148  13.7946 H              1 RES1               0.0000
     25 H25        -10.4957  -6.1914  14.9941 H              1 RES1               0.0000
     26 H26         -8.7762  -5.9290  15.2767 H              1 RES1               0.0000
     27 H27         -8.9310 -12.5584  17.1737 H              1 RES1               0.0000
     28 H28         -8.6877 -10.4851  20.8915 H              1 RES1               0.0000
     29 H29         -8.5516 -12.5855  19.6093 H              1 RES1               0.0000
@<TRIPOS>BOND
    1    1    2 1     
    2    1    3 1     
    3    1    4 1     
    4    1    5 1     
    5    2    6 ar    
    6    2    7 ar    
    7    3    8 1     
    8    3    9 2     
    9    4   10 1     
   10    4   11 2     
   11    5   12 1     
   12    5   18 1     
   13    5   19 1     
   14    6   13 ar    
   15    6   20 1     
   16    7   14 ar    
   17    7   21 1     
   18    8   15 1     
   19    8   22 1     
   20   10   15 1     
   21   10   23 1     
   22   12   24 1     
   23   12   25 1     
   24   12   26 1     
   25   13   16 ar    
   26   13   27 1     
   27   14   16 ar    
   28   14   28 1     
   29   15   17 2     
   30   16   29 1     
@<TRIPOS>SUBSTRUCTURE
      1 RES1           1
@<TRIPOS>SET
DONOR_HYDROGENS      STATIC     ATOMS    <user>   **** ""
2 22 23
ATOM$RED        STATIC     ATOMS    COLORGROUP SYSTEM
2 22 23
@<TRIPOS>COMMENT
> <Gold.Version>
2022.3.0

> <Gold.Id.Protein>
unknown|3ovv_clean|pdb

> <Gold.Protein.RotatedTorsions>
[  604  597  595  592 ] final  -75.01 input   59.96 | X-H torsion
[  622  617  616  613 ] final  144.57 input   59.98 | X-H torsion
[ 2560 2551 2550 2548 ] final  131.90 input   59.99 | X-H torsion
[ 2635 2624 2623 2622 ] final  161.83 input   60.00 | X-H torsion
[ 1835 1828 1827 1825 ] final  -26.04 input   60.01 | X-H torsion
[ 5212 5203 5202 5200 ] final   84.10 input   59.98 | X-H torsion

> <Gold.Protein.ActiveResidues>
 THR48   LEU49   GLY50   THR51   GLY52   SER53   PHE54   GLY55   ARG56   VAL57  
 MET58   LEU59   VAL60   HIS68   TYR69   ALA70   MET71   LYS72   ILE73   LEU74  
 ASP75   LYS78   VAL79   LEU82   GLN84   THR88   GLU91   LEU95   VAL104  LYS105 
 LEU106  MET118  VAL119  MET120  GLU121  TYR122  VAL123  PRO124  GLY125  GLY126 
 GLU127  TYR164  ASP166  LYS168  GLU170  ASN171  LEU172  LEU173  ILE174  ASP175 
 GLN181  VAL182  THR183  ASP184  PHE185  GLY186  PHE187  PHE327  TYR330 

> <Gold.Protein.RotatedAtoms>
   -5.5191   -2.7560   12.9692 H   0  0  0  0  0  0  0  0  0  0  0  0  # atno 604  bound_to 597 
   -7.6028    1.7784   22.0058 H   0  0  0  0  0  0  0  0  0  0  0  0  # atno 622  bound_to 617 
   -7.6335  -16.1343    9.6608 H   0  0  0  0  0  0  0  0  0  0  0  0  # atno 1835 bound_to 1828
  -16.8814   -8.6090   22.0933 H   0  0  0  0  0  0  0  0  0  0  0  0  # atno 2560 bound_to 2551
  -13.9477   -1.4092   19.6173 H   0  0  0  0  0  0  0  0  0  0  0  0  # atno 2635 bound_to 2624
  -14.5503   -0.8190   18.1911 H   0  0  0  0  0  0  0  0  0  0  0  0  # atno 2636 bound_to 2624
  -15.3979   -0.6079   19.5998 H   0  0  0  0  0  0  0  0  0  0  0  0  # atno 2637 bound_to 2624
   -8.5509   -5.2606   11.5767 H   0  0  0  0  0  0  0  0  0  0  0  0  # atno 5212 bound_to 5203
   -4.8460   -1.3416   13.4101 LP  0  0  0  0  0  0  0  0  0  0  0  0  # atno 5531 bound_to 597 
   -6.0263   -2.0068   14.3217 LP  0  0  0  0  0  0  0  0  0  0  0  0  # atno 5532 bound_to 597 
   -7.3109    1.0949   20.5582 LP  0  0  0  0  0  0  0  0  0  0  0  0  # atno 5535 bound_to 617 
   -7.2019    2.7145   20.7365 LP  0  0  0  0  0  0  0  0  0  0  0  0  # atno 5536 bound_to 617 
  -15.5023   -8.8180   22.9310 LP  0  0  0  0  0  0  0  0  0  0  0  0  # atno 5569 bound_to 2551
  -16.0584   -7.3123   22.6307 LP  0  0  0  0  0  0  0  0  0  0  0  0  # atno 5570 bound_to 2551
   -7.5049  -17.6003    8.9654 LP  0  0  0  0  0  0  0  0  0  0  0  0  # atno 5599 bound_to 1828
   -6.1682  -16.7025    9.2372 LP  0  0  0  0  0  0  0  0  0  0  0  0  # atno 5600 bound_to 1828

> <Gold.Score>
     Fitness  S(hb_ext) S(vdw_ext)  S(hb_int)    S(int)      intcor
     46.89       1.18      33.67       0.00      -0.58      -0.77

> <Gold.Goldscore.Fitness>
46.8933

> <Gold.Goldscore.Internal.Vdw>
-0.8541

> <Gold.Goldscore.Internal.Torsion>
-0.4980

> <Gold.Goldscore.External.Vdw>
33.6681

> <Gold.Goldscore.Internal.HBond>
0.0000

> <Gold.Goldscore.External.HBond>
1.1830

> <Gold.Goldscore.Internal.Correction>
-0.7686

> <Gold.Goldscore.Hbonds>
donor molecule, donor type, donor heavy atom, donor atom, acceptor molecule, acceptor atom, score
      L1  H     8    22       P1  2674  0.59

> <Gold.Goldscore.Internal.Vdw.Weighted>
-0.8541

> <Gold.Goldscore.Internal.Torsion.Weighted>
-0.4980

> <Gold.Goldscore.External.Vdw.Weighted>
46.2936

> <Gold.Goldscore.Internal.HBond.Weighted>
0.0000

> <Gold.Goldscore.External.HBond.Weighted>
1.1830

> <Gold.Goldscore.Internal.Correction.Weighted>
-0.7686

> <Gold.Rescore>
     Score     S(PLP)   S(hbond)     S(cho)   S(metal)  DE(clash)   DE(tors)     intcor
     38.81     -37.99       1.00       0.00       0.00       0.00       1.09       ----

> <Gold.PLP.Fitness>
38.8061

> <Gold.PLP.PLP>
-37.9896

> <Gold.PLP.part.hbond>
-1.0000

> <Gold.PLP.part.metal>
0.0000

> <Gold.PLP.part.buried>
-3.7762

> <Gold.PLP.part.nonpolar>
-36.7666

> <Gold.PLP.part.repulsive>
2.4516

> <Gold.PLP.ligand.clash>
0.0000

> <Gold.PLP.ligand.torsion>
1.0918

> <Gold.PLP.Chemscore.Hbond>
1.0000

> <Gold.PLP.Chemscore.CHOScore>
0.0000

> <Gold.PLP.Chemscore.Metal>
0.0000

> <Gold.Chemscore.Hbonds>
donor molecule, donor type, donor heavy atom, donor atom, acceptor molecule, acceptor atom, score
      L1  H     8    22       P1  2674  1.00

> <Gold.PLP.Chemscore.Internal.Correction>
   9.000000E+99

