#       Name:                CT1002167954
#       Creating user name   hitesit
#       Creation time:       Sun Apr 16 20:15:46 2023


#       File generated by GOLD software.
#

@<TRIPOS>MOLECULE
CT1002167954|ligand_prepared|mol2|1|dock7
    29    30     1
SMALL
NO_CHARGES


@<TRIPOS>ATOM
      1 C1          32.5239  18.3073  58.5128 C.3            1 RES1               0.0000
      2 C2          33.4746  17.1068  58.3287 C.ar           1 RES1               0.0000
      3 C3          33.0110  19.0535  59.7514 C.2            1 RES1               0.0000
      4 C4          32.6072  19.1188  57.2247 C.2            1 RES1               0.0000
      5 C5          31.0462  17.9065  58.7302 C.3            1 RES1               0.0000
      6 C6          33.0222  15.9279  57.7436 C.ar           1 RES1               0.0000
      7 C7          34.8048  17.1640  58.7358 C.ar           1 RES1               0.0000
      8 N8          33.6575  20.2391  59.5613 N.am           1 RES1               0.0000
      9 O9          32.8650  18.5894  60.8755 O.2            1 RES1               0.0000
     10 N10         33.1432  20.3781  57.2928 N.am           1 RES1               0.0000
     11 O11         32.2289  18.6728  56.1485 O.2            1 RES1               0.0000
     12 C12         30.1640  19.0507  59.2042 C.3            1 RES1               0.0000
     13 C13         33.8697  14.8464  57.5691 C.ar           1 RES1               0.0000
     14 C14         35.6506  16.0812  58.5606 C.ar           1 RES1               0.0000
     15 C15         33.7003  20.9633  58.3971 C.2            1 RES1               0.0000
     16 C16         35.1844  14.9224  57.9770 C.ar           1 RES1               0.0000
     17 O17         34.2120  22.0789  58.3668 O.2            1 RES1               0.0000
     18 H18         30.6434  17.5174  57.7869 H              1 RES1               0.0000
     19 H19         31.0048  17.0985  59.4711 H              1 RES1               0.0000
     20 H20         31.9901  15.8487  57.4186 H              1 RES1               0.0000
     21 H21         35.1931  18.0651  59.1983 H              1 RES1               0.0000
     22 H22         34.1553  20.6227  60.3584 H              1 RES1               0.0000
     23 H23         33.1251  20.9305  56.4414 H              1 RES1               0.0000
     24 H24         29.1380  18.7155  59.3410 H              1 RES1               0.0000
     25 H25         30.5209  19.4454  60.1532 H              1 RES1               0.0000
     26 H26         30.1617  19.8618  58.4790 H              1 RES1               0.0000
     27 H27         33.4975  13.9362  57.1105 H              1 RES1               0.0000
     28 H28         36.6844  16.1453  58.8837 H              1 RES1               0.0000
     29 H29         35.8482  14.0752  57.8398 H              1 RES1               0.0000
@<TRIPOS>BOND
    1    1    2 1     
    2    1    3 1     
    3    1    4 1     
    4    1    5 1     
    5    2    6 ar    
    6    2    7 ar    
    7    3    8 1     
    8    3    9 2     
    9    4   10 1     
   10    4   11 2     
   11    5   12 1     
   12    5   18 1     
   13    5   19 1     
   14    6   13 ar    
   15    6   20 1     
   16    7   14 ar    
   17    7   21 1     
   18    8   15 1     
   19    8   22 1     
   20   10   15 1     
   21   10   23 1     
   22   12   24 1     
   23   12   25 1     
   24   12   26 1     
   25   13   16 ar    
   26   13   27 1     
   27   14   16 ar    
   28   14   28 1     
   29   15   17 2     
   30   16   29 1     
@<TRIPOS>SUBSTRUCTURE
      1 RES1           1
@<TRIPOS>SET
DONOR_HYDROGENS      STATIC     ATOMS    <user>   **** ""
2 22 23
ATOM$RED        STATIC     ATOMS    COLORGROUP SYSTEM
2 22 23
@<TRIPOS>COMMENT
> <Gold.Version>
2022.3.0

> <Gold.Id.Protein>
unknown|3l9n_clean|pdb

> <Gold.Protein.RotatedTorsions>
[ 2826 2819 2817 2814 ] final   26.56 input   59.97 | X-H torsion
[ 5145 5136 5135 5133 ] final -129.95 input   59.99 | X-H torsion
[ 1819 1812 1811 1809 ] final  -81.18 input   59.98 | X-H torsion
[ 2506 2497 2496 2494 ] final -166.30 input   59.98 | X-H torsion
[ 2581 2570 2569 2568 ] final -153.19 input   60.01 | X-H torsion
[ 3119 3112 3110 3107 ] final  -17.01 input   60.01 | X-H torsion

> <Gold.Protein.ActiveResidues>
 THR48   LEU49   GLY50   THR51   GLY52   SER53   PHE54   GLY55   ARG56   VAL57  
 MET58   LEU59   TYR69   ALA70   MET71   LYS72   ILE73   LEU74   GLU91   LEU95  
 VAL104  LYS105  LEU106  MET118  VAL119  MET120  GLU121  TYR122  ALA123  PRO124 
 GLY125  GLY126  GLU127  MET128  PHE129  TYR164  ASP166  LYS168  PRO169  GLU170 
 ASN171  LEU172  MET173  ILE174  ASP175  LYS181  VAL182  THR183  ASP184  PHE185 
 GLY186  PHE187  THR201  PHE327  ASP328  TYR330 

> <Gold.Protein.RotatedAtoms>
   41.4048   10.9330   56.0075 H   0  0  0  0  0  0  0  0  0  0  0  0  # atno 1819 bound_to 1812
   27.0829   21.9683   52.7060 H   0  0  0  0  0  0  0  0  0  0  0  0  # atno 2506 bound_to 2497
   29.6130   26.3711   57.9796 H   0  0  0  0  0  0  0  0  0  0  0  0  # atno 2581 bound_to 2570
   30.4401   27.5952   57.2272 H   0  0  0  0  0  0  0  0  0  0  0  0  # atno 2582 bound_to 2570
   28.7829   27.6211   57.2739 H   0  0  0  0  0  0  0  0  0  0  0  0  # atno 2583 bound_to 2570
   29.5430   18.8140   54.8891 H   0  0  0  0  0  0  0  0  0  0  0  0  # atno 2826 bound_to 2819
   27.1944   29.0179   56.8850 H   0  0  0  0  0  0  0  0  0  0  0  0  # atno 3119 bound_to 3112
   40.3145   22.4581   61.4194 H   0  0  0  0  0  0  0  0  0  0  0  0  # atno 5145 bound_to 5136
   30.8636   18.1252   54.2334 LP  0  0  0  0  0  0  0  0  0  0  0  0  # atno 5479 bound_to 2819
   30.6476   18.1060   55.8519 LP  0  0  0  0  0  0  0  0  0  0  0  0  # atno 5480 bound_to 2819
   38.8373   21.7775   61.4662 LP  0  0  0  0  0  0  0  0  0  0  0  0  # atno 5483 bound_to 5136
   40.0736   21.0028   60.7327 LP  0  0  0  0  0  0  0  0  0  0  0  0  # atno 5484 bound_to 5136
   41.8432    9.5737   56.7877 LP  0  0  0  0  0  0  0  0  0  0  0  0  # atno 5511 bound_to 1812
   41.1604   10.8072   57.6116 LP  0  0  0  0  0  0  0  0  0  0  0  0  # atno 5512 bound_to 1812
   26.9312   20.3815   52.3790 LP  0  0  0  0  0  0  0  0  0  0  0  0  # atno 5533 bound_to 2497
   26.2514   21.0095   53.7245 LP  0  0  0  0  0  0  0  0  0  0  0  0  # atno 5534 bound_to 2497
   28.7190   28.6613   56.4429 LP  0  0  0  0  0  0  0  0  0  0  0  0  # atno 5545 bound_to 3112
   27.4797   28.3698   55.4202 LP  0  0  0  0  0  0  0  0  0  0  0  0  # atno 5546 bound_to 3112

> <Gold.Score>
     Fitness  S(hb_ext) S(vdw_ext)  S(hb_int)    S(int)      intcor
     35.45       2.00      24.88       0.00      -0.76      -0.76

> <Gold.Goldscore.Fitness>
35.4497

> <Gold.Goldscore.Internal.Vdw>
-0.9052

> <Gold.Goldscore.Internal.Torsion>
-0.6129

> <Gold.Goldscore.External.Vdw>
24.8813

> <Gold.Goldscore.Internal.HBond>
0.0000

> <Gold.Goldscore.External.HBond>
2.0000

> <Gold.Goldscore.Internal.Correction>
-0.7560

> <Gold.Goldscore.Hbonds>
donor molecule, donor type, donor heavy atom, donor atom, acceptor molecule, acceptor atom, score
      L1  H    10    23       P1  2601  1.00

> <Gold.Goldscore.Internal.Vdw.Weighted>
-0.9052

> <Gold.Goldscore.Internal.Torsion.Weighted>
-0.6129

> <Gold.Goldscore.External.Vdw.Weighted>
34.2118

> <Gold.Goldscore.Internal.HBond.Weighted>
0.0000

> <Gold.Goldscore.External.HBond.Weighted>
2.0000

> <Gold.Goldscore.Internal.Correction.Weighted>
-0.7560

> <Gold.Rescore>
     Score     S(PLP)   S(hbond)     S(cho)   S(metal)  DE(clash)   DE(tors)     intcor
     36.85     -35.70       0.94       0.00       0.00       0.00       0.84       ----

> <Gold.PLP.Fitness>
36.8521

> <Gold.PLP.PLP>
-35.6973

> <Gold.PLP.part.hbond>
-1.1452

> <Gold.PLP.part.metal>
0.0000

> <Gold.PLP.part.buried>
-0.4497

> <Gold.PLP.part.nonpolar>
-34.4676

> <Gold.PLP.part.repulsive>
0.4317

> <Gold.PLP.ligand.clash>
0.0000

> <Gold.PLP.ligand.torsion>
0.8386

> <Gold.PLP.Chemscore.Hbond>
0.9440

> <Gold.PLP.Chemscore.CHOScore>
0.0000

> <Gold.PLP.Chemscore.Metal>
0.0000

> <Gold.Chemscore.Hbonds>
donor molecule, donor type, donor heavy atom, donor atom, acceptor molecule, acceptor atom, score
      L1  H    10    23       P1  2601  0.76

> <Gold.PLP.Chemscore.Internal.Correction>
   9.000000E+99

