#       Name:                CT1002167954
#       Creating user name   hitesit
#       Creation time:       Sun Apr 16 20:15:43 2023


#       File generated by GOLD software.
#

@<TRIPOS>MOLECULE
CT1002167954|ligand_prepared|mol2|1|dock4
    29    30     1
SMALL
NO_CHARGES


@<TRIPOS>ATOM
      1 C1          31.3028  19.0689  58.8428 C.3            1 RES1               0.0000
      2 C2          30.8635  17.6314  58.4974 C.ar           1 RES1               0.0000
      3 C3          32.5697  18.9395  59.6833 C.2            1 RES1               0.0000
      4 C4          31.5097  19.7831  57.5117 C.2            1 RES1               0.0000
      5 C5          30.2542  19.8648  59.6542 C.3            1 RES1               0.0000
      6 C6          29.5821  17.1876  58.8101 C.ar           1 RES1               0.0000
      7 C7          31.7260  16.7399  57.8650 C.ar           1 RES1               0.0000
      8 N8          33.7563  19.2574  59.0909 N.am           1 RES1               0.0000
      9 O9          32.5324  18.5269  60.8360 O.2            1 RES1               0.0000
     10 N10         32.7805  20.1789  57.1861 N.am           1 RES1               0.0000
     11 O11         30.5863  19.9920  56.7345 O.2            1 RES1               0.0000
     12 C12         30.7116  21.2617  60.0436 C.3            1 RES1               0.0000
     13 C13         29.1765  15.9003  58.4992 C.ar           1 RES1               0.0000
     14 C14         31.3185  15.4529  57.5551 C.ar           1 RES1               0.0000
     15 C15         33.9181  19.9211  57.9014 C.2            1 RES1               0.0000
     16 C16         30.0441  15.0323  57.8711 C.ar           1 RES1               0.0000
     17 O17         35.0327  20.2623  57.5162 O.2            1 RES1               0.0000
     18 H18         29.3358  19.9468  59.0598 H              1 RES1               0.0000
     19 H19         30.0143  19.3048  60.5664 H              1 RES1               0.0000
     20 H20         28.8863  17.8557  59.3066 H              1 RES1               0.0000
     21 H21         32.7336  17.0487  57.6078 H              1 RES1               0.0000
     22 H22         34.6014  18.9755  59.5773 H              1 RES1               0.0000
     23 H23         32.8885  20.7155  56.3313 H              1 RES1               0.0000
     24 H24         29.9389  21.7764  60.6108 H              1 RES1               0.0000
     25 H25         31.6091  21.2168  60.6569 H              1 RES1               0.0000
     26 H26         30.9347  21.8550  59.1592 H              1 RES1               0.0000
     27 H27         28.1730  15.5737  58.7512 H              1 RES1               0.0000
     28 H28         32.0049  14.7730  57.0614 H              1 RES1               0.0000
     29 H29         29.7261  14.0241  57.6273 H              1 RES1               0.0000
@<TRIPOS>BOND
    1    1    2 1     
    2    1    3 1     
    3    1    4 1     
    4    1    5 1     
    5    2    6 ar    
    6    2    7 ar    
    7    3    8 1     
    8    3    9 2     
    9    4   10 1     
   10    4   11 2     
   11    5   12 1     
   12    5   18 1     
   13    5   19 1     
   14    6   13 ar    
   15    6   20 1     
   16    7   14 ar    
   17    7   21 1     
   18    8   15 1     
   19    8   22 1     
   20   10   15 1     
   21   10   23 1     
   22   12   24 1     
   23   12   25 1     
   24   12   26 1     
   25   13   16 ar    
   26   13   27 1     
   27   14   16 ar    
   28   14   28 1     
   29   15   17 2     
   30   16   29 1     
@<TRIPOS>SUBSTRUCTURE
      1 RES1           1
@<TRIPOS>SET
DONOR_HYDROGENS      STATIC     ATOMS    <user>   **** ""
2 22 23
ATOM$RED        STATIC     ATOMS    COLORGROUP SYSTEM
2 22 23
@<TRIPOS>COMMENT
> <Gold.Version>
2022.3.0

> <Gold.Id.Protein>
unknown|3l9n_clean|pdb

> <Gold.Protein.RotatedTorsions>
[ 2826 2819 2817 2814 ] final -136.81 input   59.97 | X-H torsion
[ 5145 5136 5135 5133 ] final -122.91 input   59.99 | X-H torsion
[ 1819 1812 1811 1809 ] final  -89.95 input   59.98 | X-H torsion
[ 2506 2497 2496 2494 ] final -119.86 input   59.98 | X-H torsion
[ 2581 2570 2569 2568 ] final   29.16 input   60.01 | X-H torsion
[ 3119 3112 3110 3107 ] final    9.60 input   60.01 | X-H torsion

> <Gold.Protein.ActiveResidues>
 THR48   LEU49   GLY50   THR51   GLY52   SER53   PHE54   GLY55   ARG56   VAL57  
 MET58   LEU59   TYR69   ALA70   MET71   LYS72   ILE73   LEU74   GLU91   LEU95  
 VAL104  LYS105  LEU106  MET118  VAL119  MET120  GLU121  TYR122  ALA123  PRO124 
 GLY125  GLY126  GLU127  MET128  PHE129  TYR164  ASP166  LYS168  PRO169  GLU170 
 ASN171  LEU172  MET173  ILE174  ASP175  LYS181  VAL182  THR183  ASP184  PHE185 
 GLY186  PHE187  THR201  PHE327  ASP328  TYR330 

> <Gold.Protein.RotatedAtoms>
   41.4653   10.8194   55.9447 H   0  0  0  0  0  0  0  0  0  0  0  0  # atno 1819 bound_to 1812
   26.6984   21.9661   53.3361 H   0  0  0  0  0  0  0  0  0  0  0  0  # atno 2506 bound_to 2497
   29.5714   28.0206   57.0095 H   0  0  0  0  0  0  0  0  0  0  0  0  # atno 2581 bound_to 2570
   28.8038   26.7667   57.7758 H   0  0  0  0  0  0  0  0  0  0  0  0  # atno 2582 bound_to 2570
   30.4596   26.7999   57.6955 H   0  0  0  0  0  0  0  0  0  0  0  0  # atno 2583 bound_to 2570
   31.1564   17.9049   54.8233 H   0  0  0  0  0  0  0  0  0  0  0  0  # atno 2826 bound_to 2819
   26.9400   28.9078   56.5553 H   0  0  0  0  0  0  0  0  0  0  0  0  # atno 3119 bound_to 3112
   40.3970   22.3983   61.3663 H   0  0  0  0  0  0  0  0  0  0  0  0  # atno 5145 bound_to 5136
   30.0410   18.4478   55.8767 LP  0  0  0  0  0  0  0  0  0  0  0  0  # atno 5479 bound_to 2819
   29.8458   18.6987   54.2750 LP  0  0  0  0  0  0  0  0  0  0  0  0  # atno 5480 bound_to 2819
   38.8614   21.8807   61.5127 LP  0  0  0  0  0  0  0  0  0  0  0  0  # atno 5483 bound_to 5136
   39.9664   20.9598   60.7397 LP  0  0  0  0  0  0  0  0  0  0  0  0  # atno 5484 bound_to 5136
   41.8172    9.5724   56.9295 LP  0  0  0  0  0  0  0  0  0  0  0  0  # atno 5511 bound_to 1812
   41.1255   10.9229   57.5330 LP  0  0  0  0  0  0  0  0  0  0  0  0  # atno 5512 bound_to 1812
   27.2267   21.0150   52.1261 LP  0  0  0  0  0  0  0  0  0  0  0  0  # atno 5533 bound_to 2497
   26.3431   20.3782   53.3429 LP  0  0  0  0  0  0  0  0  0  0  0  0  # atno 5534 bound_to 2497
   28.5463   28.8314   56.8028 LP  0  0  0  0  0  0  0  0  0  0  0  0  # atno 5545 bound_to 3112
   27.9087   28.3106   55.3925 LP  0  0  0  0  0  0  0  0  0  0  0  0  # atno 5546 bound_to 3112

> <Gold.Score>
     Fitness  S(hb_ext) S(vdw_ext)  S(hb_int)    S(int)      intcor
     37.70       1.83      26.68       0.00      -0.82      -0.76

> <Gold.Goldscore.Fitness>
37.7007

> <Gold.Goldscore.Internal.Vdw>
-1.1978

> <Gold.Goldscore.Internal.Torsion>
-0.3779

> <Gold.Goldscore.External.Vdw>
26.6842

> <Gold.Goldscore.Internal.HBond>
0.0000

> <Gold.Goldscore.External.HBond>
1.8296

> <Gold.Goldscore.Internal.Correction>
-0.7560

> <Gold.Goldscore.Hbonds>
donor molecule, donor type, donor heavy atom, donor atom, acceptor molecule, acceptor atom, score
      L1  H    10    23       P1  2601  0.91

> <Gold.Goldscore.Internal.Vdw.Weighted>
-1.1978

> <Gold.Goldscore.Internal.Torsion.Weighted>
-0.3779

> <Gold.Goldscore.External.Vdw.Weighted>
36.6908

> <Gold.Goldscore.Internal.HBond.Weighted>
0.0000

> <Gold.Goldscore.External.HBond.Weighted>
1.8296

> <Gold.Goldscore.Internal.Correction.Weighted>
-0.7560

> <Gold.Rescore>
     Score     S(PLP)   S(hbond)     S(cho)   S(metal)  DE(clash)   DE(tors)     intcor
     29.52     -27.98       0.86       0.00       0.00       0.00       0.53       ----

> <Gold.PLP.Fitness>
29.5160

> <Gold.PLP.PLP>
-27.9786

> <Gold.PLP.part.hbond>
-1.8437

> <Gold.PLP.part.metal>
0.0000

> <Gold.PLP.part.buried>
2.1501

> <Gold.PLP.part.nonpolar>
-33.4084

> <Gold.PLP.part.repulsive>
4.9788

> <Gold.PLP.ligand.clash>
0.0000

> <Gold.PLP.ligand.torsion>
0.5273

> <Gold.PLP.Chemscore.Hbond>
0.8640

> <Gold.PLP.Chemscore.CHOScore>
0.0000

> <Gold.PLP.Chemscore.Metal>
0.0000

> <Gold.Chemscore.Hbonds>
donor molecule, donor type, donor heavy atom, donor atom, acceptor molecule, acceptor atom, score
      L1  H    10    23       P1  2601  1.00

> <Gold.PLP.Chemscore.Internal.Correction>
   9.000000E+99

