#       Name:                CT1002167954
#       Creating user name   hitesit
#       Creation time:       Sun Apr 16 20:15:44 2023


#       File generated by GOLD software.
#

@<TRIPOS>MOLECULE
CT1002167954|ligand_prepared|mol2|1|dock5
    29    30     1
SMALL
NO_CHARGES


@<TRIPOS>ATOM
      1 C1          32.4506  18.2035  58.5230 C.3            1 RES1               0.0000
      2 C2          33.4416  17.0340  58.3525 C.ar           1 RES1               0.0000
      3 C3          32.8626  18.9316  59.7991 C.2            1 RES1               0.0000
      4 C4          32.5668  19.0487  57.2593 C.2            1 RES1               0.0000
      5 C5          30.9767  17.7578  58.6658 C.3            1 RES1               0.0000
      6 C6          34.7839  17.1884  58.6856 C.ar           1 RES1               0.0000
      7 C7          33.0284  15.7963  57.8667 C.ar           1 RES1               0.0000
      8 N8          33.4833  20.1386  59.6655 N.am           1 RES1               0.0000
      9 O9          32.6812  18.4361  60.9044 O.2            1 RES1               0.0000
     10 N10         33.0638  20.3199  57.3806 N.am           1 RES1               0.0000
     11 O11         32.2479  18.6195  56.1573 O.2            1 RES1               0.0000
     12 C12         30.0351  18.8773  59.0809 C.3            1 RES1               0.0000
     13 C13         35.6803  16.1424  58.5412 C.ar           1 RES1               0.0000
     14 C14         33.9265  14.7517  57.7229 C.ar           1 RES1               0.0000
     15 C15         33.5561  20.8924  58.5217 C.2            1 RES1               0.0000
     16 C16         35.2522  14.9234  58.0602 C.ar           1 RES1               0.0000
     17 O17         34.0371  22.0217  58.5403 O.2            1 RES1               0.0000
     18 H18         30.6371  17.3482  57.7065 H              1 RES1               0.0000
     19 H19         30.9212  16.9551  59.4115 H              1 RES1               0.0000
     20 H20         35.1396  18.1411  59.0634 H              1 RES1               0.0000
     21 H21         31.9905  15.6386  57.5940 H              1 RES1               0.0000
     22 H22         33.9352  20.5156  60.4925 H              1 RES1               0.0000
     23 H23         33.0671  20.8926  56.5425 H              1 RES1               0.0000
     24 H24         29.0143  18.5108  59.1665 H              1 RES1               0.0000
     25 H25         30.3284  19.2911  60.0435 H              1 RES1               0.0000
     26 H26         30.0460  19.6819  58.3485 H              1 RES1               0.0000
     27 H27         36.7228  16.2831  58.8069 H              1 RES1               0.0000
     28 H28         33.5854  13.7942  57.3433 H              1 RES1               0.0000
     29 H29         35.9545  14.1041  57.9476 H              1 RES1               0.0000
@<TRIPOS>BOND
    1    1    2 1     
    2    1    3 1     
    3    1    4 1     
    4    1    5 1     
    5    2    6 ar    
    6    2    7 ar    
    7    3    8 1     
    8    3    9 2     
    9    4   10 1     
   10    4   11 2     
   11    5   12 1     
   12    5   18 1     
   13    5   19 1     
   14    6   13 ar    
   15    6   20 1     
   16    7   14 ar    
   17    7   21 1     
   18    8   15 1     
   19    8   22 1     
   20   10   15 1     
   21   10   23 1     
   22   12   24 1     
   23   12   25 1     
   24   12   26 1     
   25   13   16 ar    
   26   13   27 1     
   27   14   16 ar    
   28   14   28 1     
   29   15   17 2     
   30   16   29 1     
@<TRIPOS>SUBSTRUCTURE
      1 RES1           1
@<TRIPOS>SET
DONOR_HYDROGENS      STATIC     ATOMS    <user>   **** ""
2 22 23
ATOM$RED        STATIC     ATOMS    COLORGROUP SYSTEM
2 22 23
@<TRIPOS>COMMENT
> <Gold.Version>
2022.3.0

> <Gold.Id.Protein>
unknown|3l9n_clean|pdb

> <Gold.Protein.RotatedTorsions>
[ 2826 2819 2817 2814 ] final   60.25 input   59.97 | X-H torsion
[ 5145 5136 5135 5133 ] final   32.81 input   59.99 | X-H torsion
[ 1819 1812 1811 1809 ] final  141.65 input   59.98 | X-H torsion
[ 2506 2497 2496 2494 ] final -120.02 input   59.98 | X-H torsion
[ 2581 2570 2569 2568 ] final  158.20 input   60.01 | X-H torsion
[ 3119 3112 3110 3107 ] final   44.12 input   60.01 | X-H torsion

> <Gold.Protein.ActiveResidues>
 THR48   LEU49   GLY50   THR51   GLY52   SER53   PHE54   GLY55   ARG56   VAL57  
 MET58   LEU59   TYR69   ALA70   MET71   LYS72   ILE73   LEU74   GLU91   LEU95  
 VAL104  LYS105  LEU106  MET118  VAL119  MET120  GLU121  TYR122  ALA123  PRO124 
 GLY125  GLY126  GLU127  MET128  PHE129  TYR164  ASP166  LYS168  PRO169  GLU170 
 ASN171  LEU172  MET173  ILE174  ASP175  LYS181  VAL182  THR183  ASP184  PHE185 
 GLY186  PHE187  THR201  PHE327  ASP328  TYR330 

> <Gold.Protein.RotatedAtoms>
   41.7809    9.5951   57.0603 H   0  0  0  0  0  0  0  0  0  0  0  0  # atno 1819 bound_to 1812
   26.6998   21.9672   53.3342 H   0  0  0  0  0  0  0  0  0  0  0  0  # atno 2506 bound_to 2497
   28.8948   26.6614   57.8352 H   0  0  0  0  0  0  0  0  0  0  0  0  # atno 2581 bound_to 2570
   30.5189   26.9184   57.6230 H   0  0  0  0  0  0  0  0  0  0  0  0  # atno 2582 bound_to 2570
   29.4221   28.0073   57.0227 H   0  0  0  0  0  0  0  0  0  0  0  0  # atno 2583 bound_to 2570
   29.6097   18.7297   55.4210 H   0  0  0  0  0  0  0  0  0  0  0  0  # atno 2826 bound_to 2819
   26.8837   28.6995   56.0438 H   0  0  0  0  0  0  0  0  0  0  0  0  # atno 3119 bound_to 3112
   39.4084   20.9360   60.8822 H   0  0  0  0  0  0  0  0  0  0  0  0  # atno 5145 bound_to 5136
   30.4222   18.3913   54.0522 LP  0  0  0  0  0  0  0  0  0  0  0  0  # atno 5479 bound_to 2819
   31.0220   17.9247   55.4976 LP  0  0  0  0  0  0  0  0  0  0  0  0  # atno 5480 bound_to 2819
   40.6496   21.9704   61.0742 LP  0  0  0  0  0  0  0  0  0  0  0  0  # atno 5483 bound_to 5136
   39.1737   22.3427   61.6656 LP  0  0  0  0  0  0  0  0  0  0  0  0  # atno 5484 bound_to 5136
   41.0997   11.0232   57.4417 LP  0  0  0  0  0  0  0  0  0  0  0  0  # atno 5511 bound_to 1812
   41.5253   10.7049   55.8976 LP  0  0  0  0  0  0  0  0  0  0  0  0  # atno 5512 bound_to 1812
   27.2261   21.0124   52.1261 LP  0  0  0  0  0  0  0  0  0  0  0  0  # atno 5533 bound_to 2497
   26.3422   20.3798   53.3448 LP  0  0  0  0  0  0  0  0  0  0  0  0  # atno 5534 bound_to 2497
   28.0953   29.0007   57.0871 LP  0  0  0  0  0  0  0  0  0  0  0  0  # atno 5545 bound_to 3112
   28.4165   28.3513   55.6237 LP  0  0  0  0  0  0  0  0  0  0  0  0  # atno 5546 bound_to 3112

> <Gold.Score>
     Fitness  S(hb_ext) S(vdw_ext)  S(hb_int)    S(int)      intcor
     35.95       2.00      24.90       0.00      -0.29      -0.76

> <Gold.Goldscore.Fitness>
35.9469

> <Gold.Goldscore.Internal.Vdw>
-0.5064

> <Gold.Goldscore.Internal.Torsion>
-0.5403

> <Gold.Goldscore.External.Vdw>
24.9001

> <Gold.Goldscore.Internal.HBond>
0.0000

> <Gold.Goldscore.External.HBond>
2.0000

> <Gold.Goldscore.Internal.Correction>
-0.7560

> <Gold.Goldscore.Hbonds>
donor molecule, donor type, donor heavy atom, donor atom, acceptor molecule, acceptor atom, score
      L1  H    10    23       P1  2601  1.00

> <Gold.Goldscore.Internal.Vdw.Weighted>
-0.5064

> <Gold.Goldscore.Internal.Torsion.Weighted>
-0.5403

> <Gold.Goldscore.External.Vdw.Weighted>
34.2376

> <Gold.Goldscore.Internal.HBond.Weighted>
0.0000

> <Gold.Goldscore.External.HBond.Weighted>
2.0000

> <Gold.Goldscore.Internal.Correction.Weighted>
-0.7560

> <Gold.Rescore>
     Score     S(PLP)   S(hbond)     S(cho)   S(metal)  DE(clash)   DE(tors)     intcor
     37.53     -36.90       0.96       0.00       0.00       0.57       0.84       ----

> <Gold.PLP.Fitness>
37.5298

> <Gold.PLP.PLP>
-36.9045

> <Gold.PLP.part.hbond>
-1.7335

> <Gold.PLP.part.metal>
0.0000

> <Gold.PLP.part.buried>
-1.4366

> <Gold.PLP.part.nonpolar>
-34.8714

> <Gold.PLP.part.repulsive>
0.4368

> <Gold.PLP.ligand.clash>
0.5687

> <Gold.PLP.ligand.torsion>
0.8430

> <Gold.PLP.Chemscore.Hbond>
0.9600

> <Gold.PLP.Chemscore.CHOScore>
0.0000

> <Gold.PLP.Chemscore.Metal>
0.0000

> <Gold.Chemscore.Hbonds>
donor molecule, donor type, donor heavy atom, donor atom, acceptor molecule, acceptor atom, score
      L1  H    10    23       P1  2601  1.00

> <Gold.PLP.Chemscore.Internal.Correction>
   9.000000E+99

