#       Name:                CT1002167954
#       Creating user name   hitesit
#       Creation time:       Sun Apr 16 20:15:44 2023


#       File generated by GOLD software.
#

@<TRIPOS>MOLECULE
CT1002167954|ligand_prepared|mol2|1|dock6
    29    30     1
SMALL
NO_CHARGES


@<TRIPOS>ATOM
      1 C1          31.4563  19.1866  58.9846 C.3            1 RES1               0.0000
      2 C2          32.7807  18.5174  58.5640 C.ar           1 RES1               0.0000
      3 C3          30.5657  19.1900  57.7456 C.2            1 RES1               0.0000
      4 C4          30.9088  18.3588  60.1420 C.2            1 RES1               0.0000
      5 C5          31.6208  20.6439  59.4753 C.3            1 RES1               0.0000
      6 C6          34.0020  19.0430  58.9752 C.ar           1 RES1               0.0000
      7 C7          32.7972  17.3747  57.7688 C.ar           1 RES1               0.0000
      8 N8          29.5256  18.3085  57.7126 N.am           1 RES1               0.0000
      9 O9          30.7960  19.9274  56.7951 O.2            1 RES1               0.0000
     10 N10         29.7361  17.6775  59.9459 N.am           1 RES1               0.0000
     11 O11         31.4909  18.2770  61.2166 O.2            1 RES1               0.0000
     12 C12         30.3040  21.3829  59.6543 C.3            1 RES1               0.0000
     13 C13         35.1964  18.4461  58.6073 C.ar           1 RES1               0.0000
     14 C14         33.9928  16.7794  57.4018 C.ar           1 RES1               0.0000
     15 C15         29.0357  17.5903  58.7736 C.2            1 RES1               0.0000
     16 C16         35.1926  17.3138  57.8208 C.ar           1 RES1               0.0000
     17 O17         28.0180  16.9130  58.6606 O.2            1 RES1               0.0000
     18 H18         32.1542  20.6356  60.4339 H              1 RES1               0.0000
     19 H19         32.2379  21.1922  58.7529 H              1 RES1               0.0000
     20 H20         34.0248  19.9349  59.5925 H              1 RES1               0.0000
     21 H21         31.8653  16.9374  57.4266 H              1 RES1               0.0000
     22 H22         29.0700  18.1705  56.8161 H              1 RES1               0.0000
     23 H23         29.3493  17.1905  60.7481 H              1 RES1               0.0000
     24 H24         30.4764  22.4001  59.9997 H              1 RES1               0.0000
     25 H25         29.7584  21.4321  58.7143 H              1 RES1               0.0000
     26 H26         29.6751  20.8788  60.3852 H              1 RES1               0.0000
     27 H27         36.1380  18.8713  58.9385 H              1 RES1               0.0000
     28 H28         33.9851  15.8888  56.7822 H              1 RES1               0.0000
     29 H29         36.1284  16.8462  57.5330 H              1 RES1               0.0000
@<TRIPOS>BOND
    1    1    2 1     
    2    1    3 1     
    3    1    4 1     
    4    1    5 1     
    5    2    6 ar    
    6    2    7 ar    
    7    3    8 1     
    8    3    9 2     
    9    4   10 1     
   10    4   11 2     
   11    5   12 1     
   12    5   18 1     
   13    5   19 1     
   14    6   13 ar    
   15    6   20 1     
   16    7   14 ar    
   17    7   21 1     
   18    8   15 1     
   19    8   22 1     
   20   10   15 1     
   21   10   23 1     
   22   12   24 1     
   23   12   25 1     
   24   12   26 1     
   25   13   16 ar    
   26   13   27 1     
   27   14   16 ar    
   28   14   28 1     
   29   15   17 2     
   30   16   29 1     
@<TRIPOS>SUBSTRUCTURE
      1 RES1           1
@<TRIPOS>SET
DONOR_HYDROGENS      STATIC     ATOMS    <user>   **** ""
2 22 23
ATOM$RED        STATIC     ATOMS    COLORGROUP SYSTEM
2 22 23
@<TRIPOS>COMMENT
> <Gold.Version>
2022.3.0

> <Gold.Id.Protein>
unknown|3l9n_clean|pdb

> <Gold.Protein.RotatedTorsions>
[ 2826 2819 2817 2814 ] final  -69.26 input   59.97 | X-H torsion
[ 5145 5136 5135 5133 ] final  -19.14 input   59.99 | X-H torsion
[ 1819 1812 1811 1809 ] final -177.47 input   59.98 | X-H torsion
[ 2506 2497 2496 2494 ] final  -16.78 input   59.98 | X-H torsion
[ 2581 2570 2569 2568 ] final  -13.86 input   60.01 | X-H torsion
[ 3119 3112 3110 3107 ] final   57.45 input   60.01 | X-H torsion

> <Gold.Protein.ActiveResidues>
 THR48   LEU49   GLY50   THR51   GLY52   SER53   PHE54   GLY55   ARG56   VAL57  
 MET58   LEU59   TYR69   ALA70   MET71   LYS72   ILE73   LEU74   GLU91   LEU95  
 VAL104  LYS105  LEU106  MET118  VAL119  MET120  GLU121  TYR122  ALA123  PRO124 
 GLY125  GLY126  GLU127  MET128  PHE129  TYR164  ASP166  LYS168  PRO169  GLU170 
 ASN171  LEU172  MET173  ILE174  ASP175  LYS181  VAL182  THR183  ASP184  PHE185 
 GLY186  PHE187  THR201  PHE327  ASP328  TYR330 

> <Gold.Protein.RotatedAtoms>
   41.8643    9.6814   56.4174 H   0  0  0  0  0  0  0  0  0  0  0  0  # atno 1819 bound_to 1812
   26.2737   20.5755   53.5237 H   0  0  0  0  0  0  0  0  0  0  0  0  # atno 2506 bound_to 2497
   30.2344   27.8121   57.1078 H   0  0  0  0  0  0  0  0  0  0  0  0  # atno 2581 bound_to 2570
   28.6713   27.3628   57.4296 H   0  0  0  0  0  0  0  0  0  0  0  0  # atno 2582 bound_to 2570
   29.9292   26.4127   57.9433 H   0  0  0  0  0  0  0  0  0  0  0  0  # atno 2583 bound_to 2570
   30.5538   18.3119   54.0782 H   0  0  0  0  0  0  0  0  0  0  0  0  # atno 2826 bound_to 2819
   26.9508   28.6132   55.8559 H   0  0  0  0  0  0  0  0  0  0  0  0  # atno 3119 bound_to 3112
   40.2032   21.0791   60.7404 H   0  0  0  0  0  0  0  0  0  0  0  0  # atno 5145 bound_to 5136
   30.9348   17.9633   55.6215 LP  0  0  0  0  0  0  0  0  0  0  0  0  # atno 5479 bound_to 2819
   29.5587   18.7735   55.2803 LP  0  0  0  0  0  0  0  0  0  0  0  0  # atno 5480 bound_to 2819
   40.1965   22.5267   61.4831 LP  0  0  0  0  0  0  0  0  0  0  0  0  # atno 5483 bound_to 5136
   38.8264   21.6423   61.3996 LP  0  0  0  0  0  0  0  0  0  0  0  0  # atno 5484 bound_to 5136
   41.2880   10.4596   57.7254 LP  0  0  0  0  0  0  0  0  0  0  0  0  # atno 5511 bound_to 1812
   41.2529   11.1816   56.2611 LP  0  0  0  0  0  0  0  0  0  0  0  0  # atno 5512 bound_to 1812
   26.8512   22.0418   53.1184 LP  0  0  0  0  0  0  0  0  0  0  0  0  # atno 5533 bound_to 2497
   27.1463   20.7518   52.1617 LP  0  0  0  0  0  0  0  0  0  0  0  0  # atno 5534 bound_to 2497
   27.8822   29.0384   57.1204 LP  0  0  0  0  0  0  0  0  0  0  0  0  # atno 5545 bound_to 3112
   28.5620   28.4006   55.7797 LP  0  0  0  0  0  0  0  0  0  0  0  0  # atno 5546 bound_to 3112

> <Gold.Score>
     Fitness  S(hb_ext) S(vdw_ext)  S(hb_int)    S(int)      intcor
     35.11       3.04      23.79       0.00      -0.63      -0.76

> <Gold.Goldscore.Fitness>
35.1121

> <Gold.Goldscore.Internal.Vdw>
-0.8504

> <Gold.Goldscore.Internal.Torsion>
-0.5386

> <Gold.Goldscore.External.Vdw>
23.7885

> <Gold.Goldscore.Internal.HBond>
0.0000

> <Gold.Goldscore.External.HBond>
3.0358

> <Gold.Goldscore.Internal.Correction>
-0.7560

> <Gold.Goldscore.Hbonds>
donor molecule, donor type, donor heavy atom, donor atom, acceptor molecule, acceptor atom, score
      P1  H   936   949       L1    17  0.51

> <Gold.Goldscore.Internal.Vdw.Weighted>
-0.8504

> <Gold.Goldscore.Internal.Torsion.Weighted>
-0.5386

> <Gold.Goldscore.External.Vdw.Weighted>
32.7092

> <Gold.Goldscore.Internal.HBond.Weighted>
0.0000

> <Gold.Goldscore.External.HBond.Weighted>
3.0358

> <Gold.Goldscore.Internal.Correction.Weighted>
-0.7560

> <Gold.Rescore>
     Score     S(PLP)   S(hbond)     S(cho)   S(metal)  DE(clash)   DE(tors)     intcor
     28.55     -25.39       1.14       0.00       0.00       0.00       0.13       ----

> <Gold.PLP.Fitness>
28.5466

> <Gold.PLP.PLP>
-25.3901

> <Gold.PLP.part.hbond>
-3.9965

> <Gold.PLP.part.metal>
0.0000

> <Gold.PLP.part.buried>
11.4920

> <Gold.PLP.part.nonpolar>
-33.9784

> <Gold.PLP.part.repulsive>
1.1751

> <Gold.PLP.ligand.clash>
0.0000

> <Gold.PLP.ligand.torsion>
0.1305

> <Gold.PLP.Chemscore.Hbond>
1.1392

> <Gold.PLP.Chemscore.CHOScore>
0.0000

> <Gold.PLP.Chemscore.Metal>
0.0000

> <Gold.Chemscore.Hbonds>
donor molecule, donor type, donor heavy atom, donor atom, acceptor molecule, acceptor atom, score
      L1  H     8    22       P1  2819  0.04
      P1  H   936   949       L1    17  1.00

> <Gold.PLP.Chemscore.Internal.Correction>
   9.000000E+99

