@<TRIPOS>MOLECULE
A:DF3362
    63    67     1     0     1
SMALL
NO_CHARGES
****
Generated from the CSD

@<TRIPOS>ATOM
     1 CAF     24.8490  -2.2670 -21.7950   C.ar      1 DF3362   0.0000
     2 CAG     17.6210   3.6120 -23.5460   C.ar      1 DF3362   0.0000
     3 CAH     17.5310   3.9380 -22.2000   C.ar      1 DF3362   0.0000
     4 CAI     24.1230  -1.1000 -21.5750   C.ar      1 DF3362   0.0000
     5 CAJ     24.3720  -3.4870 -21.3180   C.ar      1 DF3362   0.0000
     6 CAK     21.5510   3.5770 -25.6190   C.ar      1 DF3362   0.0000
     7 CAL     21.5060   4.9330 -25.9020   C.ar      1 DF3362   0.0000
     8 CAM     18.0820   2.3610 -23.9220   C.ar      1 DF3362   0.0000
     9 CAN     17.9150   2.9920 -21.2390   C.ar      1 DF3362   0.0000
    10 CAO     21.2130   3.9740 -23.2920   C.ar      1 DF3362   0.0000
    11 CAP     22.4190  -2.4090 -20.4160   C.ar      1 DF3362   0.0000
    12 CAQ     19.1620  -0.3030 -21.7960   C.2       1 DF3362   0.0000
    13 CAR     20.3610   1.1070 -19.1520   C.3       1 DF3362   0.0000
    14 CAS     21.2560   7.9500 -24.0630   C.3       1 DF3362   0.0000
    15 CAT     20.3210   7.3190 -23.0580   C.3       1 DF3362   0.0000
    16 CAU     18.9620   0.5460 -19.5180   C.3       1 DF3362   0.0000
    17 CAV     21.0290  -0.4230 -24.7800   C.3       1 DF3362   0.0000
    18 NAW     21.2900   0.0500 -19.5530   N.am      1 DF3362   0.0000
    19 NAX     21.4440   1.8210 -24.1220   N.am      1 DF3362   0.0000
    20 OAA     20.8150   1.4000 -26.2370   O.2       1 DF3362   0.0000
    21 OAB     22.1330   1.0210 -21.4740   O.2       1 DF3362   0.0000
    22 OAY     21.2750   7.1180 -25.2140   O.3       1 DF3362   0.0000
    23 OAZ     20.9860   6.1600 -22.5520   O.3       1 DF3362   0.0000
    24 CBB     21.0910   1.0320 -25.1120   C.2       1 DF3362   0.0000
    25 CBC     22.0860   0.0990 -20.6560   C.2       1 DF3362   0.0000
    26 CBD     21.4440   3.0980 -24.3310   C.ar      1 DF3362   0.0000
    27 CBE     22.9180  -1.1670 -20.8750   C.ar      1 DF3362   0.0000
    28 CBF     23.1600  -3.5620 -20.6320   C.ar      1 DF3362   0.0000
    29 CBG     21.3170   5.8090 -24.8760   C.ar      1 DF3362   0.0000
    30 CBH     21.1650   5.3240 -23.5800   C.ar      1 DF3362   0.0000
    31 CBI     18.9550   0.1300 -23.0230   C.2       1 DF3362   0.0000
    32 CBJ     18.4680   1.4270 -22.9730   C.ar      1 DF3362   0.0000
    33 CBK     18.3940   1.7400 -21.6330   C.ar      1 DF3362   0.0000
    34 CBM     22.6930  -4.9350 -20.1490   C.3       1 DF3362   0.0000
    35 NBL     18.8290   0.6700 -20.9730   N.pl3     1 DF3362   0.0000
    36 SBA     19.3000  -0.8610 -24.4400   S.3       1 DF3362   0.0000
    37 FAC     23.4750  -5.4220 -19.2310   F         1 DF3362   0.0000
    38 FAD     21.5500  -4.9010 -19.5740   F         1 DF3362   0.0000
    39 FAE     22.5890  -5.7520 -21.1930   F         1 DF3362   0.0000
    40 H1      18.1839   1.1218 -19.0190   H         1 DF3362   0.0000
    41 H2      18.8868  -0.4991 -19.2214   H         1 DF3362   0.0000
    42 H3      19.3869   7.0354 -23.5406   H         1 DF3362   0.0000
    43 H4      20.1139   8.0168 -22.2480   H         1 DF3362   0.0000
    44 H5      17.1663   4.9173 -21.8937   H         1 DF3362   0.0000
    45 H6      17.3301   4.3375 -24.3043   H         1 DF3362   0.0000
    46 H7      17.8395   3.2343 -20.1800   H         1 DF3362   0.0000
    47 H8      21.4624  -2.4594 -19.8981   H         1 DF3362   0.0000
    48 H9      21.6744   2.8697 -26.4378   H         1 DF3362   0.0000
    49 H10     24.9532  -4.3930 -21.4831   H         1 DF3362   0.0000
    50 H11     18.1421   2.1073 -24.9793   H         1 DF3362   0.0000
    51 H12     21.6195   5.2911 -26.9242   H         1 DF3362   0.0000
    52 H13     21.6393  -0.6259 -23.9012   H         1 DF3362   0.0000
    53 H14     21.3979  -1.0081 -25.6211   H         1 DF3362   0.0000
    54 H15     21.3446  -0.7775 -18.9678   H         1 DF3362   0.0000
    55 H16     24.4917  -0.1446 -21.9454   H         1 DF3362   0.0000
    56 H17     25.7907  -2.2270 -22.3404   H         1 DF3362   0.0000
    57 H18     21.7090   1.4397 -23.2195   H         1 DF3362   0.0000
    58 H19     21.0725   3.6124 -22.2744   H         1 DF3362   0.0000
    59 H20     22.2577   8.0246 -23.6423   H         1 DF3362   0.0000
    60 H21     20.8991   8.9438 -24.3292   H         1 DF3362   0.0000
    61 H22     20.4323   1.2980 -18.0823   H         1 DF3362   0.0000
    62 H23     20.5632   2.0265 -19.6992   H         1 DF3362   0.0000
    63 H24     19.5391  -1.2849 -21.5141   H         1 DF3362   0.0000
@<TRIPOS>BOND
     1     2     3   ar
     2     1     4   ar
     3     1     5   ar
     4     6     7   ar
     5     2     8   ar
     6     3     9   ar
     7    14    15    1
     8    13    16    1
     9    13    18    1
    10    14    22    1
    11    15    23    1
    12    17    24    1
    13    19    24   am
    14    20    24    2
    15    18    25   am
    16    21    25    2
    17     6    26   ar
    18    10    26   ar
    19    19    26    1
    20     4    27   ar
    21    11    27   ar
    22    25    27    1
    23     5    28   ar
    24    11    28   ar
    25     7    29   ar
    26    22    29    1
    27    10    30   ar
    28    23    30    1
    29    29    30   ar
    30    12    31    2
    31     8    32   ar
    32    31    32    1
    33     9    33   ar
    34    32    33   ar
    35    28    34    1
    36    12    35    1
    37    16    35    1
    38    33    35    1
    39    17    36    1
    40    31    36    1
    41    34    37    1
    42    34    38    1
    43    34    39    1
    44    16    40    1
    45    16    41    1
    46    15    42    1
    47    15    43    1
    48     3    44    1
    49     2    45    1
    50     9    46    1
    51    11    47    1
    52     6    48    1
    53     5    49    1
    54     8    50    1
    55     7    51    1
    56    17    52    1
    57    17    53    1
    58    18    54    1
    59     4    55    1
    60     1    56    1
    61    19    57    1
    62    10    58    1
    63    14    59    1
    64    14    60    1
    65    13    61    1
    66    13    62    1
    67    12    63    1
@<TRIPOS>SUBSTRUCTURE
     1 DF3362      1 GROUP             0 A     DF3     0  
@<TRIPOS>SET
CCDC_LIGAND STATIC ATOMS
63 1 2 3 4 5 6 7 8 9 \
10 11 12 13 14 15 16 17 18 19 \
20 21 22 23 24 25 26 27 28 29 \
30 31 32 33 34 35 36 37 38 39 \
40 41 42 43 44 45 46 47 48 49 \
50 51 52 53 54 55 56 57 58 59 \
60 61 62 63 
