#       Name:                CT1002167954
#       Creating user name   hitesit
#       Creation time:       Sun Apr 16 02:22:41 2023


#       File generated by GOLD software.
#

@<TRIPOS>MOLECULE
CT1002167954|ligand_prepared|mol2|1|dock2
    29    30     1
SMALL
NO_CHARGES


@<TRIPOS>ATOM
      1 C1          11.1582 -15.8290 -50.5960 C.3            1 RES1               0.0000
      2 C2          11.1712 -15.0277 -49.2783 C.ar           1 RES1               0.0000
      3 C3          10.9644 -17.2914 -50.2063 C.2            1 RES1               0.0000
      4 C4          10.0226 -15.2528 -51.4345 C.2            1 RES1               0.0000
      5 C5          12.4651 -15.7077 -51.4139 C.3            1 RES1               0.0000
      6 C6           9.9807 -14.7017 -48.6354 C.ar           1 RES1               0.0000
      7 C7          12.3637 -14.6106 -48.6930 C.ar           1 RES1               0.0000
      8 N8           9.7431 -17.8513 -50.4410 N.am           1 RES1               0.0000
      9 O9          11.8569 -17.9322 -49.6651 O.2            1 RES1               0.0000
     10 N10          8.9488 -16.0606 -51.7028 N.am           1 RES1               0.0000
     11 O11         10.0405 -14.1011 -51.8513 O.2            1 RES1               0.0000
     12 C12         12.3464 -16.2234 -52.8394 C.3            1 RES1               0.0000
     13 C13          9.9823 -13.9872 -47.4489 C.ar           1 RES1               0.0000
     14 C14         12.3631 -13.8960 -47.5064 C.ar           1 RES1               0.0000
     15 C15          8.7436 -17.3237 -51.2183 C.2            1 RES1               0.0000
     16 C16         11.1733 -13.5843 -46.8834 C.ar           1 RES1               0.0000
     17 O17          7.7264 -17.9672 -51.4599 O.2            1 RES1               0.0000
     18 H18         12.7664 -14.6533 -51.4438 H              1 RES1               0.0000
     19 H19         13.2562 -16.2680 -50.9005 H              1 RES1               0.0000
     20 H20          9.0335 -15.0081 -49.0667 H              1 RES1               0.0000
     21 H21         13.3116 -14.8436 -49.1660 H              1 RES1               0.0000
     22 H22          9.5557 -18.7449 -49.9976 H              1 RES1               0.0000
     23 H23          8.2364 -15.6857 -52.3212 H              1 RES1               0.0000
     24 H24         13.2907 -16.1150 -53.3687 H              1 RES1               0.0000
     25 H25         12.0725 -17.2764 -52.8471 H              1 RES1               0.0000
     26 H26         11.5855 -15.6713 -53.3872 H              1 RES1               0.0000
     27 H27          9.0433 -13.7433 -46.9632 H              1 RES1               0.0000
     28 H28         13.3028 -13.5804 -47.0653 H              1 RES1               0.0000
     29 H29         11.1744 -13.0249 -45.9537 H              1 RES1               0.0000
@<TRIPOS>BOND
    1    1    2 1     
    2    1    3 1     
    3    1    4 1     
    4    1    5 1     
    5    2    6 ar    
    6    2    7 ar    
    7    3    8 1     
    8    3    9 2     
    9    4   10 1     
   10    4   11 2     
   11    5   12 1     
   12    5   18 1     
   13    5   19 1     
   14    6   13 ar    
   15    6   20 1     
   16    7   14 ar    
   17    7   21 1     
   18    8   15 1     
   19    8   22 1     
   20   10   15 1     
   21   10   23 1     
   22   12   24 1     
   23   12   25 1     
   24   12   26 1     
   25   13   16 ar    
   26   13   27 1     
   27   14   16 ar    
   28   14   28 1     
   29   15   17 2     
   30   16   29 1     
@<TRIPOS>SUBSTRUCTURE
      1 RES1           1
@<TRIPOS>SET
DONOR_HYDROGENS      STATIC     ATOMS    <user>   **** ""
2 22 23
ATOM$RED        STATIC     ATOMS    COLORGROUP SYSTEM
2 22 23
@<TRIPOS>COMMENT
> <Gold.Version>
2022.3.0

> <Gold.Id.Protein>
unknown|7kl0_clean|pdb

> <Gold.Protein.RotatedTorsions>
[ 3255 3234 3235 3236 ] final   30.34 input   29.64 | X-H torsion
[ 3263 3245 3244 3242 ] final  158.02 input   60.01 | X-H torsion
[ 3290 3276 3277 3278 ] final -166.32 input   80.30 | X-H torsion
[ 3319 3312 3313 3314 ] final  -47.94 input  125.66 | X-H torsion
[ 6344 6325 6326 6327 ] final -111.28 input   95.32 | X-H torsion
[ 6378 6362 6363 6364 ] final -168.03 input   48.34 | X-H torsion
[ 6398 6391 6392 6393 ] final -140.95 input  -98.70 | X-H torsion
[ 7269 7260 7261 7262 ] final  -56.58 input  118.90 | X-H torsion
[ 7309 7295 7296 7297 ] final  123.31 input   89.68 | X-H torsion
[ 7345 7337 7338 7339 ] final  -63.47 input  116.36 | X-H torsion
[ 7367 7360 7361 7362 ] final   -7.30 input   69.83 | X-H torsion
[ 7373 7366 7364 7361 ] final   68.49 input   60.03 | X-H torsion
[ 7395 7388 7389 7390 ] final  136.70 input   93.08 | X-H torsion
[ 3352 3337 3338 3339 ] final   43.31 input  120.41 | X-H torsion
[ 3327 3317 3316 3313 ] final   27.44 input   60.01 | X-H torsion
[ 7427 7420 7421 7422 ] final -159.75 input  116.71 | X-H torsion
[ 8541 3279 3278 3277 ] final -136.45 input   -0.00 | X-H torsion
[ 8546 6290 6289 6288 ] final -149.15 input    0.00 | X-H torsion
[ 8549 6328 6327 6326 ] final  171.76 input    0.00 | X-H torsion
[ 8552 6365 6364 6363 ] final -170.39 input    0.00 | X-H torsion
[ 8555 7183 7182 7181 ] final -163.13 input   -0.00 | X-H torsion
[ 8557 7233 7232 7231 ] final -177.67 input   -0.00 | X-H torsion
[ 8560 7263 7262 7261 ] final   52.78 input    0.00 | X-H torsion
[ 8567 7298 7297 7296 ] final -152.14 input    0.00 | X-H torsion
[ 8571 7363 7362 7361 ] final  -18.83 input   -0.00 | X-H torsion
[ 8576 7340 7339 7338 ] final  104.57 input   -0.00 | X-H torsion
[ 8578 7391 7390 7389 ] final   17.40 input    0.00 | X-H torsion
[ 8580 3204 3203 3202 ] final -178.29 input   -0.00 | X-H torsion
[ 8582 3237 3236 3235 ] final   21.29 input    0.00 | X-H torsion
[ 8584 3315 3314 3313 ] final  113.39 input    0.00 | X-H torsion

> <Gold.Protein.ActiveResidues>
 GLU105  TYR106  TYR107  SER108  GLU109  ALA112  LEU206  LEU207  VAL208  GLY209 
 TYR210  PRO233  SER234  PRO235  GLU236  TRP237  ASP238  THR239  VAL240  THR241 
 LYS245 

> <Gold.Protein.RotatedAtoms>
    9.4902  -19.2458  -42.3988 H   0  0  0  0  0  0  0  0  0  0  0  0  # atno 3255 bound_to 3234
   14.0156  -17.7608  -46.5458 H   0  0  0  0  0  0  0  0  0  0  0  0  # atno 3263 bound_to 3245
    6.4743  -19.5103  -43.9663 H   0  0  0  0  0  0  0  0  0  0  0  0  # atno 3290 bound_to 3276
    6.5366  -19.9496  -47.6185 H   0  0  0  0  0  0  0  0  0  0  0  0  # atno 3319 bound_to 3312
    5.4328  -22.1306  -50.3567 H   0  0  0  0  0  0  0  0  0  0  0  0  # atno 3327 bound_to 3317
    6.1119  -20.1223  -51.6870 H   0  0  0  0  0  0  0  0  0  0  0  0  # atno 3352 bound_to 3337
    3.5995  -15.9634  -45.3075 H   0  0  0  0  0  0  0  0  0  0  0  0  # atno 6344 bound_to 6325
    6.1596  -13.6726  -45.9822 H   0  0  0  0  0  0  0  0  0  0  0  0  # atno 6378 bound_to 6362
    6.1553  -14.2912  -42.9201 H   0  0  0  0  0  0  0  0  0  0  0  0  # atno 6398 bound_to 6391
   13.8197   -8.2411  -49.2199 H   0  0  0  0  0  0  0  0  0  0  0  0  # atno 7269 bound_to 7260
   10.9747   -7.9774  -48.8017 H   0  0  0  0  0  0  0  0  0  0  0  0  # atno 7309 bound_to 7295
   10.4363   -8.3063  -52.0463 H   0  0  0  0  0  0  0  0  0  0  0  0  # atno 7345 bound_to 7337
   10.7076   -9.9015  -53.4448 H   0  0  0  0  0  0  0  0  0  0  0  0  # atno 7367 bound_to 7360
   11.4562  -13.1001  -52.2338 H   0  0  0  0  0  0  0  0  0  0  0  0  # atno 7373 bound_to 7366
    9.5942  -11.2251  -52.8058 H   0  0  0  0  0  0  0  0  0  0  0  0  # atno 7395 bound_to 7388
    7.1358  -12.8270  -55.5771 H   0  0  0  0  0  0  0  0  0  0  0  0  # atno 7427 bound_to 7420
    8.8148  -18.0209  -41.3417 LP  0  0  0  0  0  0  0  0  0  0  0  0  # atno 8537 bound_to 3234
   13.1643  -18.2334  -47.8497 LP  0  0  0  0  0  0  0  0  0  0  0  0  # atno 8538 bound_to 3245
   13.5164  -19.3048  -46.6687 LP  0  0  0  0  0  0  0  0  0  0  0  0  # atno 8539 bound_to 3245
    6.8700  -18.3386  -45.2164 LP  0  0  0  0  0  0  0  0  0  0  0  0  # atno 8540 bound_to 3276
    6.2053  -18.2233  -48.4415 LP  0  0  0  0  0  0  0  0  0  0  0  0  # atno 8541 bound_to 3279
    6.8658  -17.8988  -46.8736 LP  0  0  0  0  0  0  0  0  0  0  0  0  # atno 8542 bound_to 3279
    7.2178  -21.5568  -47.7906 LP  0  0  0  0  0  0  0  0  0  0  0  0  # atno 8543 bound_to 3312
    5.6376  -16.8026  -44.9069 LP  0  0  0  0  0  0  0  0  0  0  0  0  # atno 8546 bound_to 6290
    4.3978  -17.9815  -44.6365 LP  0  0  0  0  0  0  0  0  0  0  0  0  # atno 8547 bound_to 6290
    3.5292  -14.2298  -45.0705 LP  0  0  0  0  0  0  0  0  0  0  0  0  # atno 8548 bound_to 6325
    8.1531  -14.2998  -46.5154 LP  0  0  0  0  0  0  0  0  0  0  0  0  # atno 8549 bound_to 6328
    7.1742  -15.3395  -47.4957 LP  0  0  0  0  0  0  0  0  0  0  0  0  # atno 8550 bound_to 6328
    5.6081  -13.9390  -44.3434 LP  0  0  0  0  0  0  0  0  0  0  0  0  # atno 8551 bound_to 6362
    9.0557  -13.3145  -41.5282 LP  0  0  0  0  0  0  0  0  0  0  0  0  # atno 8552 bound_to 6365
    9.5425  -12.5302  -42.9938 LP  0  0  0  0  0  0  0  0  0  0  0  0  # atno 8553 bound_to 6365
    7.1929  -12.9250  -42.5715 LP  0  0  0  0  0  0  0  0  0  0  0  0  # atno 8554 bound_to 6391
   11.6259   -6.4261  -48.2626 LP  0  0  0  0  0  0  0  0  0  0  0  0  # atno 8555 bound_to 7183
    9.9699   -6.0901  -47.8821 LP  0  0  0  0  0  0  0  0  0  0  0  0  # atno 8556 bound_to 7183
   13.0402   -9.3019  -50.6755 LP  0  0  0  0  0  0  0  0  0  0  0  0  # atno 8557 bound_to 7233
   14.2520   -8.2917  -51.3903 LP  0  0  0  0  0  0  0  0  0  0  0  0  # atno 8558 bound_to 7233
   13.5602   -7.9859  -47.5108 LP  0  0  0  0  0  0  0  0  0  0  0  0  # atno 8559 bound_to 7260
   10.9755  -11.6820  -49.1566 LP  0  0  0  0  0  0  0  0  0  0  0  0  # atno 8560 bound_to 7263
   11.1016  -11.0043  -50.7456 LP  0  0  0  0  0  0  0  0  0  0  0  0  # atno 8561 bound_to 7263
   11.6030   -9.3314  -49.7189 LP  0  0  0  0  0  0  0  0  0  0  0  0  # atno 8566 bound_to 7295
    9.5094   -8.7908  -53.7453 LP  0  0  0  0  0  0  0  0  0  0  0  0  # atno 8567 bound_to 7298
    8.2954   -8.2885  -52.6166 LP  0  0  0  0  0  0  0  0  0  0  0  0  # atno 8568 bound_to 7298
   12.0578   -8.1461  -51.4091 LP  0  0  0  0  0  0  0  0  0  0  0  0  # atno 8569 bound_to 7337
   12.4439   -9.7810  -53.6987 LP  0  0  0  0  0  0  0  0  0  0  0  0  # atno 8570 bound_to 7360
   10.5848  -13.7502  -55.4249 LP  0  0  0  0  0  0  0  0  0  0  0  0  # atno 8571 bound_to 7363
    9.1837  -13.9364  -54.4237 LP  0  0  0  0  0  0  0  0  0  0  0  0  # atno 8572 bound_to 7363
   12.1858  -11.6636  -52.0049 LP  0  0  0  0  0  0  0  0  0  0  0  0  # atno 8573 bound_to 7366
   13.0470  -13.0466  -51.8949 LP  0  0  0  0  0  0  0  0  0  0  0  0  # atno 8574 bound_to 7366
    9.7180  -11.6267  -54.5070 LP  0  0  0  0  0  0  0  0  0  0  0  0  # atno 8575 bound_to 7388
   12.2909   -9.2120  -56.2505 LP  0  0  0  0  0  0  0  0  0  0  0  0  # atno 8576 bound_to 7340
   10.6902   -8.6013  -55.9959 LP  0  0  0  0  0  0  0  0  0  0  0  0  # atno 8577 bound_to 7340
    8.0720   -9.7896  -54.8667 LP  0  0  0  0  0  0  0  0  0  0  0  0  # atno 8578 bound_to 7391
    6.6726   -9.8316  -55.8864 LP  0  0  0  0  0  0  0  0  0  0  0  0  # atno 8579 bound_to 7391
    7.5722  -16.5280  -41.4428 LP  0  0  0  0  0  0  0  0  0  0  0  0  # atno 8580 bound_to 3204
    8.2950  -16.4739  -39.8697 LP  0  0  0  0  0  0  0  0  0  0  0  0  # atno 8581 bound_to 3204
    8.8536  -20.4822  -43.2649 LP  0  0  0  0  0  0  0  0  0  0  0  0  # atno 8582 bound_to 3237
    8.3037  -21.0003  -44.8235 LP  0  0  0  0  0  0  0  0  0  0  0  0  # atno 8583 bound_to 3237
    4.2085  -19.2785  -49.0531 LP  0  0  0  0  0  0  0  0  0  0  0  0  # atno 8584 bound_to 3315
    4.2940  -20.9834  -49.3460 LP  0  0  0  0  0  0  0  0  0  0  0  0  # atno 8585 bound_to 3315
    6.1195  -18.7707  -50.5745 LP  0  0  0  0  0  0  0  0  0  0  0  0  # atno 8586 bound_to 3337
    6.3567  -23.2572  -49.6321 LP  0  0  0  0  0  0  0  0  0  0  0  0  # atno 8587 bound_to 3317
    6.3108  -23.1595  -51.2615 LP  0  0  0  0  0  0  0  0  0  0  0  0  # atno 8588 bound_to 3317

> <Gold.Score>
     Fitness  S(hb_ext) S(vdw_ext)  S(hb_int)    S(int)      intcor
     31.22       4.67      19.48       0.00      -0.24      -0.76

> <Gold.Goldscore.Fitness>
31.2201

> <Gold.Goldscore.Internal.Vdw>
-0.3708

> <Gold.Goldscore.Internal.Torsion>
-0.6337

> <Gold.Goldscore.External.Vdw>
19.4824

> <Gold.Goldscore.Internal.HBond>
0.0000

> <Gold.Goldscore.External.HBond>
4.6714

> <Gold.Goldscore.Internal.Correction>
-0.7650

> <Gold.Goldscore.Hbonds>
donor molecule, donor type, donor heavy atom, donor atom, acceptor molecule, acceptor atom, score
      P1  H  7366  7373       L1    11  1.00
      L1  H    10    23       P1  3345  0.45

> <Gold.Goldscore.Internal.Vdw.Weighted>
-0.3708

> <Gold.Goldscore.Internal.Torsion.Weighted>
-0.6337

> <Gold.Goldscore.External.Vdw.Weighted>
26.7883

> <Gold.Goldscore.Internal.HBond.Weighted>
0.0000

> <Gold.Goldscore.External.HBond.Weighted>
4.6714

> <Gold.Goldscore.Internal.Correction.Weighted>
-0.7650

> <Gold.Rescore>
     Score     S(PLP)   S(hbond)     S(cho)   S(metal)  DE(clash)   DE(tors)     intcor
     33.95     -31.39       0.88       0.00       0.00       0.00       0.04       ----

> <Gold.PLP.Fitness>
33.9510

> <Gold.PLP.PLP>
-31.3949

> <Gold.PLP.part.hbond>
-2.6042

> <Gold.PLP.part.metal>
0.0000

> <Gold.PLP.part.buried>
-2.9842

> <Gold.PLP.part.nonpolar>
-27.2636

> <Gold.PLP.part.repulsive>
0.2306

> <Gold.PLP.ligand.clash>
0.0000

> <Gold.PLP.ligand.torsion>
0.0382

> <Gold.PLP.Chemscore.Hbond>
0.8775

> <Gold.PLP.Chemscore.CHOScore>
0.0000

> <Gold.PLP.Chemscore.Metal>
0.0000

> <Gold.Chemscore.Hbonds>
donor molecule, donor type, donor heavy atom, donor atom, acceptor molecule, acceptor atom, score
      P1  H  7366  7373       L1    11  1.00

> <Gold.PLP.Chemscore.Internal.Correction>
   9.000000E+99

