#       Name:                CT1002167954
#       Creating user name   hitesit
#       Creation time:       Sun Apr 16 02:22:42 2023


#       File generated by GOLD software.
#

@<TRIPOS>MOLECULE
CT1002167954|ligand_prepared|mol2|1|dock3
    29    30     1
SMALL
NO_CHARGES


@<TRIPOS>ATOM
      1 C1           9.9326 -16.4390 -50.0624 C.3            1 RES1               0.0000
      2 C2          10.4521 -15.5433 -48.9193 C.ar           1 RES1               0.0000
      3 C3           9.0446 -17.4945 -49.4098 C.2            1 RES1               0.0000
      4 C4           9.1959 -15.5159 -51.0266 C.2            1 RES1               0.0000
      5 C5          11.0520 -17.1581 -50.8507 C.3            1 RES1               0.0000
      6 C6          11.5430 -14.7023 -49.1180 C.ar           1 RES1               0.0000
      7 C7           9.8503 -15.5450 -47.6638 C.ar           1 RES1               0.0000
      8 N8           7.6958 -17.3719 -49.5697 N.am           1 RES1               0.0000
      9 O9           9.5186 -18.3981 -48.7322 O.2            1 RES1               0.0000
     10 N10          7.8432 -15.6832 -51.1685 N.am           1 RES1               0.0000
     11 O11          9.7718 -14.6343 -51.6521 O.2            1 RES1               0.0000
     12 C12         10.5386 -18.1992 -51.8329 C.3            1 RES1               0.0000
     13 C13         12.0135 -13.8903 -48.0994 C.ar           1 RES1               0.0000
     14 C14         10.3225 -14.7323 -46.6464 C.ar           1 RES1               0.0000
     15 C15          7.0549 -16.5491 -50.4607 C.2            1 RES1               0.0000
     16 C16         11.4034 -13.9044 -46.8632 C.ar           1 RES1               0.0000
     17 O17          5.8371 -16.6035 -50.6058 O.2            1 RES1               0.0000
     18 H18         11.6329 -16.4086 -51.4022 H              1 RES1               0.0000
     19 H19         11.7272 -17.6478 -50.1381 H              1 RES1               0.0000
     20 H20         12.0375 -14.6795 -50.0834 H              1 RES1               0.0000
     21 H21          8.9993 -16.1891 -47.4701 H              1 RES1               0.0000
     22 H22          7.1094 -17.9450 -48.9714 H              1 RES1               0.0000
     23 H23          7.3812 -15.1091 -51.8665 H              1 RES1               0.0000
     24 H24         11.3644 -18.6733 -52.3592 H              1 RES1               0.0000
     25 H25          9.9772 -18.9742 -51.3152 H              1 RES1               0.0000
     26 H26          9.8835 -17.7423 -52.5718 H              1 RES1               0.0000
     27 H27         12.8653 -13.2415 -48.2747 H              1 RES1               0.0000
     28 H28          9.8397 -14.7471 -45.6749 H              1 RES1               0.0000
     29 H29         11.7718 -13.2678 -46.0655 H              1 RES1               0.0000
@<TRIPOS>BOND
    1    1    2 1     
    2    1    3 1     
    3    1    4 1     
    4    1    5 1     
    5    2    6 ar    
    6    2    7 ar    
    7    3    8 1     
    8    3    9 2     
    9    4   10 1     
   10    4   11 2     
   11    5   12 1     
   12    5   18 1     
   13    5   19 1     
   14    6   13 ar    
   15    6   20 1     
   16    7   14 ar    
   17    7   21 1     
   18    8   15 1     
   19    8   22 1     
   20   10   15 1     
   21   10   23 1     
   22   12   24 1     
   23   12   25 1     
   24   12   26 1     
   25   13   16 ar    
   26   13   27 1     
   27   14   16 ar    
   28   14   28 1     
   29   15   17 2     
   30   16   29 1     
@<TRIPOS>SUBSTRUCTURE
      1 RES1           1
@<TRIPOS>SET
DONOR_HYDROGENS      STATIC     ATOMS    <user>   **** ""
2 22 23
ATOM$RED        STATIC     ATOMS    COLORGROUP SYSTEM
2 22 23
@<TRIPOS>COMMENT
> <Gold.Version>
2022.3.0

> <Gold.Id.Protein>
unknown|7kl0_clean|pdb

> <Gold.Protein.RotatedTorsions>
[ 3255 3234 3235 3236 ] final   32.05 input   29.64 | X-H torsion
[ 3263 3245 3244 3242 ] final   11.13 input   60.01 | X-H torsion
[ 3290 3276 3277 3278 ] final -121.33 input   80.30 | X-H torsion
[ 3319 3312 3313 3314 ] final  -51.10 input  125.66 | X-H torsion
[ 6344 6325 6326 6327 ] final   19.96 input   95.32 | X-H torsion
[ 6378 6362 6363 6364 ] final  -80.02 input   48.34 | X-H torsion
[ 6398 6391 6392 6393 ] final  105.96 input  -98.70 | X-H torsion
[ 7269 7260 7261 7262 ] final   88.06 input  118.90 | X-H torsion
[ 7309 7295 7296 7297 ] final  120.81 input   89.68 | X-H torsion
[ 7345 7337 7338 7339 ] final -127.30 input  116.36 | X-H torsion
[ 7367 7360 7361 7362 ] final   80.54 input   69.83 | X-H torsion
[ 7373 7366 7364 7361 ] final -167.23 input   60.03 | X-H torsion
[ 7395 7388 7389 7390 ] final -173.64 input   93.08 | X-H torsion
[ 3352 3337 3338 3339 ] final  -92.92 input  120.41 | X-H torsion
[ 3327 3317 3316 3313 ] final  163.50 input   60.01 | X-H torsion
[ 7427 7420 7421 7422 ] final  142.87 input  116.71 | X-H torsion
[ 8541 3279 3278 3277 ] final  177.32 input   -0.00 | X-H torsion
[ 8546 6290 6289 6288 ] final  107.79 input    0.00 | X-H torsion
[ 8549 6328 6327 6326 ] final  163.28 input    0.00 | X-H torsion
[ 8552 6365 6364 6363 ] final -144.91 input    0.00 | X-H torsion
[ 8555 7183 7182 7181 ] final  110.04 input   -0.00 | X-H torsion
[ 8557 7233 7232 7231 ] final    5.20 input   -0.00 | X-H torsion
[ 8560 7263 7262 7261 ] final   16.11 input    0.00 | X-H torsion
[ 8567 7298 7297 7296 ] final -137.35 input    0.00 | X-H torsion
[ 8571 7363 7362 7361 ] final  -12.80 input   -0.00 | X-H torsion
[ 8576 7340 7339 7338 ] final -145.96 input   -0.00 | X-H torsion
[ 8578 7391 7390 7389 ] final   41.96 input    0.00 | X-H torsion
[ 8580 3204 3203 3202 ] final  170.42 input   -0.00 | X-H torsion
[ 8582 3237 3236 3235 ] final -104.06 input    0.00 | X-H torsion
[ 8584 3315 3314 3313 ] final -101.18 input    0.00 | X-H torsion

> <Gold.Protein.ActiveResidues>
 GLU105  TYR106  TYR107  SER108  GLU109  ALA112  LEU206  LEU207  VAL208  GLY209 
 TYR210  PRO233  SER234  PRO235  GLU236  TRP237  ASP238  THR239  VAL240  THR241 
 LYS245 

> <Gold.Protein.RotatedAtoms>
    9.5079  -19.2277  -42.4078 H   0  0  0  0  0  0  0  0  0  0  0  0  # atno 3255 bound_to 3234
   13.0768  -18.6567  -47.7861 H   0  0  0  0  0  0  0  0  0  0  0  0  # atno 3263 bound_to 3245
    7.1245  -19.5773  -44.1959 H   0  0  0  0  0  0  0  0  0  0  0  0  # atno 3290 bound_to 3276
    6.5826  -19.9323  -47.6124 H   0  0  0  0  0  0  0  0  0  0  0  0  # atno 3319 bound_to 3312
    6.4470  -23.3230  -51.1079 H   0  0  0  0  0  0  0  0  0  0  0  0  # atno 3327 bound_to 3317
    5.7644  -19.2582  -50.3231 H   0  0  0  0  0  0  0  0  0  0  0  0  # atno 3352 bound_to 3337
    4.0441  -14.5399  -44.6675 H   0  0  0  0  0  0  0  0  0  0  0  0  # atno 6344 bound_to 6325
    6.2670  -14.6065  -45.1827 H   0  0  0  0  0  0  0  0  0  0  0  0  # atno 6378 bound_to 6362
    7.5462  -13.7720  -42.8719 H   0  0  0  0  0  0  0  0  0  0  0  0  # atno 6398 bound_to 6391
   13.1453   -7.7598  -47.7532 H   0  0  0  0  0  0  0  0  0  0  0  0  # atno 7269 bound_to 7260
   10.9945   -7.9534  -48.8252 H   0  0  0  0  0  0  0  0  0  0  0  0  # atno 7309 bound_to 7295
   10.7789   -7.4791  -51.7630 H   0  0  0  0  0  0  0  0  0  0  0  0  # atno 7345 bound_to 7337
   11.7118  -10.2575  -52.7792 H   0  0  0  0  0  0  0  0  0  0  0  0  # atno 7367 bound_to 7360
   13.0710  -12.9807  -51.8892 H   0  0  0  0  0  0  0  0  0  0  0  0  # atno 7373 bound_to 7366
    9.8053  -11.9306  -52.9483 H   0  0  0  0  0  0  0  0  0  0  0  0  # atno 7395 bound_to 7388
    6.4416  -13.2751  -55.3495 H   0  0  0  0  0  0  0  0  0  0  0  0  # atno 7427 bound_to 7420
    8.7979  -18.0382  -41.3331 LP  0  0  0  0  0  0  0  0  0  0  0  0  # atno 8537 bound_to 3234
   13.7455  -19.0861  -46.3660 LP  0  0  0  0  0  0  0  0  0  0  0  0  # atno 8538 bound_to 3245
   13.8802  -17.5502  -46.9038 LP  0  0  0  0  0  0  0  0  0  0  0  0  # atno 8539 bound_to 3245
    6.2582  -18.2756  -45.0004 LP  0  0  0  0  0  0  0  0  0  0  0  0  # atno 8540 bound_to 3276
    6.8852  -18.2157  -48.4346 LP  0  0  0  0  0  0  0  0  0  0  0  0  # atno 8541 bound_to 3279
    6.1859  -17.9063  -46.8805 LP  0  0  0  0  0  0  0  0  0  0  0  0  # atno 8542 bound_to 3279
    7.1738  -21.5734  -47.7965 LP  0  0  0  0  0  0  0  0  0  0  0  0  # atno 8543 bound_to 3312
    4.7956  -17.6298  -45.5743 LP  0  0  0  0  0  0  0  0  0  0  0  0  # atno 8546 bound_to 6290
    5.2399  -17.1542  -43.9692 LP  0  0  0  0  0  0  0  0  0  0  0  0  # atno 8547 bound_to 6290
    3.1000  -15.6041  -45.6884 LP  0  0  0  0  0  0  0  0  0  0  0  0  # atno 8548 bound_to 6325
    8.1261  -14.2090  -46.6015 LP  0  0  0  0  0  0  0  0  0  0  0  0  # atno 8549 bound_to 6328
    7.2012  -15.4303  -47.4096 LP  0  0  0  0  0  0  0  0  0  0  0  0  # atno 8550 bound_to 6328
    5.5040  -13.0334  -45.1187 LP  0  0  0  0  0  0  0  0  0  0  0  0  # atno 8551 bound_to 6362
    9.2148  -13.5990  -41.7271 LP  0  0  0  0  0  0  0  0  0  0  0  0  # atno 8552 bound_to 6365
    9.3834  -12.2457  -42.7948 LP  0  0  0  0  0  0  0  0  0  0  0  0  # atno 8553 bound_to 6365
    5.8488  -13.4268  -42.6180 LP  0  0  0  0  0  0  0  0  0  0  0  0  # atno 8554 bound_to 6391
   10.6569   -6.2324  -48.9264 LP  0  0  0  0  0  0  0  0  0  0  0  0  # atno 8555 bound_to 7183
   10.9390   -6.2838  -47.2183 LP  0  0  0  0  0  0  0  0  0  0  0  0  # atno 8556 bound_to 7183
   14.2806   -8.3236  -51.3843 LP  0  0  0  0  0  0  0  0  0  0  0  0  # atno 8557 bound_to 7233
   13.0116   -9.2700  -50.6815 LP  0  0  0  0  0  0  0  0  0  0  0  0  # atno 8558 bound_to 7233
   14.2188   -8.4559  -48.9431 LP  0  0  0  0  0  0  0  0  0  0  0  0  # atno 8559 bound_to 7260
   11.4859  -11.7537  -49.3335 LP  0  0  0  0  0  0  0  0  0  0  0  0  # atno 8560 bound_to 7263
   10.5912  -10.9327  -50.5687 LP  0  0  0  0  0  0  0  0  0  0  0  0  # atno 8561 bound_to 7263
   11.5840   -9.3545  -49.6963 LP  0  0  0  0  0  0  0  0  0  0  0  0  # atno 8566 bound_to 7295
    9.4582   -8.9930  -53.6663 LP  0  0  0  0  0  0  0  0  0  0  0  0  # atno 8567 bound_to 7298
    8.3466   -8.0863  -52.6956 LP  0  0  0  0  0  0  0  0  0  0  0  0  # atno 8568 bound_to 7298
   11.7256   -8.9482  -51.6839 LP  0  0  0  0  0  0  0  0  0  0  0  0  # atno 8569 bound_to 7337
   11.4990   -9.4460  -54.3250 LP  0  0  0  0  0  0  0  0  0  0  0  0  # atno 8570 bound_to 7360
   10.6327  -13.7862  -55.3562 LP  0  0  0  0  0  0  0  0  0  0  0  0  # atno 8571 bound_to 7363
    9.1358  -13.9004  -54.4924 LP  0  0  0  0  0  0  0  0  0  0  0  0  # atno 8572 bound_to 7363
   11.4895  -13.1618  -52.2272 LP  0  0  0  0  0  0  0  0  0  0  0  0  # atno 8573 bound_to 7366
   12.1172  -11.6686  -52.0196 LP  0  0  0  0  0  0  0  0  0  0  0  0  # atno 8574 bound_to 7366
    9.5149  -10.9482  -54.3699 LP  0  0  0  0  0  0  0  0  0  0  0  0  # atno 8575 bound_to 7388
   10.9253   -9.5625  -56.1399 LP  0  0  0  0  0  0  0  0  0  0  0  0  # atno 8576 bound_to 7340
   12.0559   -8.2508  -56.1066 LP  0  0  0  0  0  0  0  0  0  0  0  0  # atno 8577 bound_to 7340
    8.2117   -9.9071  -55.1867 LP  0  0  0  0  0  0  0  0  0  0  0  0  # atno 8578 bound_to 7391
    6.5329   -9.7141  -55.5664 LP  0  0  0  0  0  0  0  0  0  0  0  0  # atno 8579 bound_to 7391
    7.7028  -16.4282  -41.4878 LP  0  0  0  0  0  0  0  0  0  0  0  0  # atno 8580 bound_to 3204
    8.1644  -16.5737  -39.8247 LP  0  0  0  0  0  0  0  0  0  0  0  0  # atno 8581 bound_to 3204
    8.9499  -20.5375  -44.7996 LP  0  0  0  0  0  0  0  0  0  0  0  0  # atno 8582 bound_to 3237
    8.2075  -20.9449  -43.2887 LP  0  0  0  0  0  0  0  0  0  0  0  0  # atno 8583 bound_to 3237
    4.0087  -20.7779  -49.7218 LP  0  0  0  0  0  0  0  0  0  0  0  0  # atno 8584 bound_to 3315
    4.4938  -19.4841  -48.6774 LP  0  0  0  0  0  0  0  0  0  0  0  0  # atno 8585 bound_to 3315
    6.4554  -19.6063  -51.8934 LP  0  0  0  0  0  0  0  0  0  0  0  0  # atno 8586 bound_to 3337
    5.4431  -22.1394  -50.6188 LP  0  0  0  0  0  0  0  0  0  0  0  0  # atno 8587 bound_to 3317
    6.2028  -23.0764  -49.5181 LP  0  0  0  0  0  0  0  0  0  0  0  0  # atno 8588 bound_to 3317

> <Gold.Score>
     Fitness  S(hb_ext) S(vdw_ext)  S(hb_int)    S(int)      intcor
     25.72       2.04      18.07       0.00      -1.17      -0.76

> <Gold.Goldscore.Fitness>
25.7172

> <Gold.Goldscore.Internal.Vdw>
-1.4390

> <Gold.Goldscore.Internal.Torsion>
-0.4956

> <Gold.Goldscore.External.Vdw>
18.0675

> <Gold.Goldscore.Internal.HBond>
0.0000

> <Gold.Goldscore.External.HBond>
2.0439

> <Gold.Goldscore.Internal.Correction>
-0.7650

> <Gold.Goldscore.Hbonds>
donor molecule, donor type, donor heavy atom, donor atom, acceptor molecule, acceptor atom, score
      L1  H     8    22       P1  3279  0.68
      L1  H    10    23       P1  3345  0.11

> <Gold.Goldscore.Internal.Vdw.Weighted>
-1.4390

> <Gold.Goldscore.Internal.Torsion.Weighted>
-0.4956

> <Gold.Goldscore.External.Vdw.Weighted>
24.8429

> <Gold.Goldscore.Internal.HBond.Weighted>
0.0000

> <Gold.Goldscore.External.HBond.Weighted>
2.0439

> <Gold.Goldscore.Internal.Correction.Weighted>
-0.7650

> <Gold.Rescore>
     Score     S(PLP)   S(hbond)     S(cho)   S(metal)  DE(clash)   DE(tors)     intcor
     18.40     -17.96       0.91       0.00       0.00       0.00       1.15       ----

> <Gold.PLP.Fitness>
18.3977

> <Gold.PLP.PLP>
-17.9589

> <Gold.PLP.part.hbond>
-2.1806

> <Gold.PLP.part.metal>
0.0000

> <Gold.PLP.part.buried>
12.8171

> <Gold.PLP.part.nonpolar>
-29.2985

> <Gold.PLP.part.repulsive>
0.4412

> <Gold.PLP.ligand.clash>
0.0000

> <Gold.PLP.ligand.torsion>
1.1456

> <Gold.PLP.Chemscore.Hbond>
0.9100

> <Gold.PLP.Chemscore.CHOScore>
0.0000

> <Gold.PLP.Chemscore.Metal>
0.0000

> <Gold.Chemscore.Hbonds>
donor molecule, donor type, donor heavy atom, donor atom, acceptor molecule, acceptor atom, score
      L1  H     8    22       P1  3279  1.00

> <Gold.PLP.Chemscore.Internal.Correction>
   9.000000E+99

