#       Name:                CT1002167954
#       Creating user name   hitesit
#       Creation time:       Sun Apr 16 02:22:43 2023


#       File generated by GOLD software.
#

@<TRIPOS>MOLECULE
CT1002167954|ligand_prepared|mol2|1|dock6
    29    30     1
SMALL
NO_CHARGES


@<TRIPOS>ATOM
      1 C1          10.5533 -15.9876 -50.0760 C.3            1 RES1               0.0000
      2 C2          11.0161 -15.3957 -48.7290 C.ar           1 RES1               0.0000
      3 C3          11.8185 -16.2383 -50.8912 C.2            1 RES1               0.0000
      4 C4           9.7692 -17.2512 -49.7398 C.2            1 RES1               0.0000
      5 C5           9.6257 -15.0507 -50.8843 C.3            1 RES1               0.0000
      6 C6          12.2219 -15.7916 -48.1580 C.ar           1 RES1               0.0000
      7 C7          10.2508 -14.4527 -48.0482 C.ar           1 RES1               0.0000
      8 N8          12.2292 -17.5303 -51.0390 N.am           1 RES1               0.0000
      9 O9          12.4679 -15.3135 -51.3637 O.2            1 RES1               0.0000
     10 N10         10.2870 -18.4543 -50.1425 N.am           1 RES1               0.0000
     11 O11          8.7161 -17.2172 -49.1153 O.2            1 RES1               0.0000
     12 C12          9.3984 -15.5013 -52.3187 C.3            1 RES1               0.0000
     13 C13         12.6486 -15.2618 -46.9515 C.ar           1 RES1               0.0000
     14 C14         10.6793 -13.9243 -46.8416 C.ar           1 RES1               0.0000
     15 C15         11.4968 -18.6535 -50.7499 C.2            1 RES1               0.0000
     16 C16         11.8780 -14.3276 -46.2928 C.ar           1 RES1               0.0000
     17 O17         11.9183 -19.7714 -51.0326 O.2            1 RES1               0.0000
     18 H18          8.6558 -14.9891 -50.3756 H              1 RES1               0.0000
     19 H19         10.0629 -14.0446 -50.8955 H              1 RES1               0.0000
     20 H20         12.8406 -16.5276 -48.6606 H              1 RES1               0.0000
     21 H21          9.3038 -14.1214 -48.4605 H              1 RES1               0.0000
     22 H22         13.1678 -17.6747 -51.3976 H              1 RES1               0.0000
     23 H23          9.7178 -19.2777 -49.9739 H              1 RES1               0.0000
     24 H24          8.7410 -14.8093 -52.8408 H              1 RES1               0.0000
     25 H25         10.3399 -15.5494 -52.8618 H              1 RES1               0.0000
     26 H26          8.9412 -16.4883 -52.3450 H              1 RES1               0.0000
     27 H27         13.5921 -15.5836 -46.5231 H              1 RES1               0.0000
     28 H28         10.0692 -13.1898 -46.3264 H              1 RES1               0.0000
     29 H29         12.2126 -13.9125 -45.3479 H              1 RES1               0.0000
@<TRIPOS>BOND
    1    1    2 1     
    2    1    3 1     
    3    1    4 1     
    4    1    5 1     
    5    2    6 ar    
    6    2    7 ar    
    7    3    8 1     
    8    3    9 2     
    9    4   10 1     
   10    4   11 2     
   11    5   12 1     
   12    5   18 1     
   13    5   19 1     
   14    6   13 ar    
   15    6   20 1     
   16    7   14 ar    
   17    7   21 1     
   18    8   15 1     
   19    8   22 1     
   20   10   15 1     
   21   10   23 1     
   22   12   24 1     
   23   12   25 1     
   24   12   26 1     
   25   13   16 ar    
   26   13   27 1     
   27   14   16 ar    
   28   14   28 1     
   29   15   17 2     
   30   16   29 1     
@<TRIPOS>SUBSTRUCTURE
      1 RES1           1
@<TRIPOS>SET
DONOR_HYDROGENS      STATIC     ATOMS    <user>   **** ""
2 22 23
ATOM$RED        STATIC     ATOMS    COLORGROUP SYSTEM
2 22 23
@<TRIPOS>COMMENT
> <Gold.Version>
2022.3.0

> <Gold.Id.Protein>
unknown|7kl0_clean|pdb

> <Gold.Protein.RotatedTorsions>
[ 3255 3234 3235 3236 ] final  -48.38 input   29.64 | X-H torsion
[ 3263 3245 3244 3242 ] final  -63.83 input   60.01 | X-H torsion
[ 3290 3276 3277 3278 ] final -179.81 input   80.30 | X-H torsion
[ 3319 3312 3313 3314 ] final  151.57 input  125.66 | X-H torsion
[ 6344 6325 6326 6327 ] final -146.82 input   95.32 | X-H torsion
[ 6378 6362 6363 6364 ] final  -72.79 input   48.34 | X-H torsion
[ 6398 6391 6392 6393 ] final  -97.87 input  -98.70 | X-H torsion
[ 7269 7260 7261 7262 ] final  114.81 input  118.90 | X-H torsion
[ 7309 7295 7296 7297 ] final -167.23 input   89.68 | X-H torsion
[ 7345 7337 7338 7339 ] final -155.33 input  116.36 | X-H torsion
[ 7367 7360 7361 7362 ] final -176.38 input   69.83 | X-H torsion
[ 7373 7366 7364 7361 ] final  137.56 input   60.03 | X-H torsion
[ 7395 7388 7389 7390 ] final -179.69 input   93.08 | X-H torsion
[ 3352 3337 3338 3339 ] final   83.08 input  120.41 | X-H torsion
[ 3327 3317 3316 3313 ] final -105.82 input   60.01 | X-H torsion
[ 7427 7420 7421 7422 ] final   38.74 input  116.71 | X-H torsion
[ 8541 3279 3278 3277 ] final  -44.63 input   -0.00 | X-H torsion
[ 8546 6290 6289 6288 ] final  142.20 input    0.00 | X-H torsion
[ 8549 6328 6327 6326 ] final    8.76 input    0.00 | X-H torsion
[ 8552 6365 6364 6363 ] final   82.73 input    0.00 | X-H torsion
[ 8555 7183 7182 7181 ] final  134.05 input   -0.00 | X-H torsion
[ 8557 7233 7232 7231 ] final -113.26 input   -0.00 | X-H torsion
[ 8560 7263 7262 7261 ] final -178.07 input    0.00 | X-H torsion
[ 8567 7298 7297 7296 ] final   59.84 input    0.00 | X-H torsion
[ 8571 7363 7362 7361 ] final  113.12 input   -0.00 | X-H torsion
[ 8576 7340 7339 7338 ] final  170.96 input   -0.00 | X-H torsion
[ 8578 7391 7390 7389 ] final -168.92 input    0.00 | X-H torsion
[ 8580 3204 3203 3202 ] final  -25.64 input   -0.00 | X-H torsion
[ 8582 3237 3236 3235 ] final  137.76 input    0.00 | X-H torsion
[ 8584 3315 3314 3313 ] final  -67.20 input    0.00 | X-H torsion

> <Gold.Protein.ActiveResidues>
 GLU105  TYR106  TYR107  SER108  GLU109  ALA112  LEU206  LEU207  VAL208  GLY209 
 TYR210  PRO233  SER234  PRO235  GLU236  TRP237  ASP238  THR239  VAL240  THR241 
 LYS245 

> <Gold.Protein.RotatedAtoms>
    8.6202  -19.3216  -41.6725 H   0  0  0  0  0  0  0  0  0  0  0  0  # atno 3255 bound_to 3234
   13.3636  -19.3402  -46.9204 H   0  0  0  0  0  0  0  0  0  0  0  0  # atno 3263 bound_to 3245
    6.2839  -19.4160  -43.9734 H   0  0  0  0  0  0  0  0  0  0  0  0  # atno 3290 bound_to 3276
    7.4907  -21.4272  -47.7898 H   0  0  0  0  0  0  0  0  0  0  0  0  # atno 3319 bound_to 3312
    6.4637  -23.3779  -49.7774 H   0  0  0  0  0  0  0  0  0  0  0  0  # atno 3327 bound_to 3317
    6.4238  -19.6615  -51.9251 H   0  0  0  0  0  0  0  0  0  0  0  0  # atno 3352 bound_to 3337
    3.2152  -15.7663  -45.6378 H   0  0  0  0  0  0  0  0  0  0  0  0  # atno 6344 bound_to 6325
    6.2313  -14.6202  -45.0775 H   0  0  0  0  0  0  0  0  0  0  0  0  # atno 6378 bound_to 6362
    5.8116  -13.7761  -42.7107 H   0  0  0  0  0  0  0  0  0  0  0  0  # atno 6398 bound_to 6391
   13.4430   -7.9251  -47.5267 H   0  0  0  0  0  0  0  0  0  0  0  0  # atno 7269 bound_to 7260
   10.7587   -8.9533  -48.6153 H   0  0  0  0  0  0  0  0  0  0  0  0  # atno 7309 bound_to 7295
   11.1565   -7.3511  -51.6015 H   0  0  0  0  0  0  0  0  0  0  0  0  # atno 7345 bound_to 7337
   12.4507   -9.7645  -53.8848 H   0  0  0  0  0  0  0  0  0  0  0  0  # atno 7367 bound_to 7360
   12.4136  -13.5222  -52.0546 H   0  0  0  0  0  0  0  0  0  0  0  0  # atno 7373 bound_to 7366
    9.7831  -11.8545  -52.8973 H   0  0  0  0  0  0  0  0  0  0  0  0  # atno 7395 bound_to 7388
    5.7135  -12.2542  -54.7088 H   0  0  0  0  0  0  0  0  0  0  0  0  # atno 7427 bound_to 7420
    9.6477  -17.9484  -42.0370 LP  0  0  0  0  0  0  0  0  0  0  0  0  # atno 8537 bound_to 3234
   14.0620  -17.9833  -46.3552 LP  0  0  0  0  0  0  0  0  0  0  0  0  # atno 8538 bound_to 3245
   13.2751  -17.9650  -47.7860 LP  0  0  0  0  0  0  0  0  0  0  0  0  # atno 8539 bound_to 3245
    7.0493  -18.4274  -45.2098 LP  0  0  0  0  0  0  0  0  0  0  0  0  # atno 8540 bound_to 3276
    5.7459  -17.9971  -47.3077 LP  0  0  0  0  0  0  0  0  0  0  0  0  # atno 8541 bound_to 3279
    7.3252  -18.1249  -48.0074 LP  0  0  0  0  0  0  0  0  0  0  0  0  # atno 8542 bound_to 3279
    6.3057  -20.1443  -47.6269 LP  0  0  0  0  0  0  0  0  0  0  0  0  # atno 8543 bound_to 3312
    5.1649  -17.2775  -45.6174 LP  0  0  0  0  0  0  0  0  0  0  0  0  # atno 8546 bound_to 6290
    4.8706  -17.5066  -43.9260 LP  0  0  0  0  0  0  0  0  0  0  0  0  # atno 8547 bound_to 6290
    3.9002  -14.4202  -44.7516 LP  0  0  0  0  0  0  0  0  0  0  0  0  # atno 8548 bound_to 6325
    7.1526  -15.1253  -47.6344 LP  0  0  0  0  0  0  0  0  0  0  0  0  # atno 8549 bound_to 6328
    8.1747  -14.5140  -46.3767 LP  0  0  0  0  0  0  0  0  0  0  0  0  # atno 8550 bound_to 6328
    5.5386  -13.0201  -45.2208 LP  0  0  0  0  0  0  0  0  0  0  0  0  # atno 8551 bound_to 6362
    9.0685  -12.0906  -42.1897 LP  0  0  0  0  0  0  0  0  0  0  0  0  # atno 8552 bound_to 6365
    9.5297  -13.7541  -42.3322 LP  0  0  0  0  0  0  0  0  0  0  0  0  # atno 8553 bound_to 6365
    7.5250  -13.4228  -42.7738 LP  0  0  0  0  0  0  0  0  0  0  0  0  # atno 8554 bound_to 6391
   11.0097   -6.3037  -48.9109 LP  0  0  0  0  0  0  0  0  0  0  0  0  # atno 8555 bound_to 7183
   10.5861   -6.2125  -47.2339 LP  0  0  0  0  0  0  0  0  0  0  0  0  # atno 8556 bound_to 7183
   12.8544   -8.4501  -50.9785 LP  0  0  0  0  0  0  0  0  0  0  0  0  # atno 8557 bound_to 7233
   14.4378   -9.1435  -51.0873 LP  0  0  0  0  0  0  0  0  0  0  0  0  # atno 8558 bound_to 7233
   13.9280   -8.2944  -49.1643 LP  0  0  0  0  0  0  0  0  0  0  0  0  # atno 8559 bound_to 7260
   10.4319  -10.9491  -50.4272 LP  0  0  0  0  0  0  0  0  0  0  0  0  # atno 8560 bound_to 7263
   11.6452  -11.7372  -49.4750 LP  0  0  0  0  0  0  0  0  0  0  0  0  # atno 8561 bound_to 7263
   11.8111   -8.3915  -49.8984 LP  0  0  0  0  0  0  0  0  0  0  0  0  # atno 8566 bound_to 7295
    8.4520   -7.8900  -52.8273 LP  0  0  0  0  0  0  0  0  0  0  0  0  # atno 8567 bound_to 7298
    9.3528   -9.1893  -53.5347 LP  0  0  0  0  0  0  0  0  0  0  0  0  # atno 8568 bound_to 7298
   11.3594   -9.0723  -51.8405 LP  0  0  0  0  0  0  0  0  0  0  0  0  # atno 8569 bound_to 7337
   10.8038   -9.9099  -53.2847 LP  0  0  0  0  0  0  0  0  0  0  0  0  # atno 8570 bound_to 7360
    9.7825  -14.1567  -54.1234 LP  0  0  0  0  0  0  0  0  0  0  0  0  # atno 8571 bound_to 7363
    9.9859  -13.5299  -55.7252 LP  0  0  0  0  0  0  0  0  0  0  0  0  # atno 8572 bound_to 7363
   11.3517  -12.2992  -52.2122 LP  0  0  0  0  0  0  0  0  0  0  0  0  # atno 8573 bound_to 7366
   12.9170  -11.9860  -51.8681 LP  0  0  0  0  0  0  0  0  0  0  0  0  # atno 8574 bound_to 7366
    9.5362  -11.0214  -54.4190 LP  0  0  0  0  0  0  0  0  0  0  0  0  # atno 8575 bound_to 7388
   11.5210   -9.7653  -56.2317 LP  0  0  0  0  0  0  0  0  0  0  0  0  # atno 8576 bound_to 7340
   11.4601   -8.0480  -56.0148 LP  0  0  0  0  0  0  0  0  0  0  0  0  # atno 8577 bound_to 7340
    6.7306   -9.8621  -55.9558 LP  0  0  0  0  0  0  0  0  0  0  0  0  # atno 8578 bound_to 7391
    8.0140   -9.7592  -54.7973 LP  0  0  0  0  0  0  0  0  0  0  0  0  # atno 8579 bound_to 7391
    7.9646  -16.7099  -39.8164 LP  0  0  0  0  0  0  0  0  0  0  0  0  # atno 8580 bound_to 3204
    7.9026  -16.2920  -41.4961 LP  0  0  0  0  0  0  0  0  0  0  0  0  # atno 8581 bound_to 3204
    7.8742  -21.2447  -44.0572 LP  0  0  0  0  0  0  0  0  0  0  0  0  # atno 8582 bound_to 3237
    9.2832  -20.2377  -44.0311 LP  0  0  0  0  0  0  0  0  0  0  0  0  # atno 8583 bound_to 3237
    4.2889  -20.9824  -49.3534 LP  0  0  0  0  0  0  0  0  0  0  0  0  # atno 8584 bound_to 3315
    4.2136  -19.2795  -49.0458 LP  0  0  0  0  0  0  0  0  0  0  0  0  # atno 8585 bound_to 3315
    5.8179  -19.2163  -50.3442 LP  0  0  0  0  0  0  0  0  0  0  0  0  # atno 8586 bound_to 3337
    6.1801  -23.0014  -51.3349 LP  0  0  0  0  0  0  0  0  0  0  0  0  # atno 8587 bound_to 3317
    5.4491  -22.1591  -50.1421 LP  0  0  0  0  0  0  0  0  0  0  0  0  # atno 8588 bound_to 3317

> <Gold.Score>
     Fitness  S(hb_ext) S(vdw_ext)  S(hb_int)    S(int)      intcor
     31.17       2.00      21.52       0.00      -0.42      -0.76

> <Gold.Goldscore.Fitness>
31.1699

> <Gold.Goldscore.Internal.Vdw>
-0.6006

> <Gold.Goldscore.Internal.Torsion>
-0.5876

> <Gold.Goldscore.External.Vdw>
21.5224

> <Gold.Goldscore.Internal.HBond>
0.0000

> <Gold.Goldscore.External.HBond>
2.0000

> <Gold.Goldscore.Internal.Correction>
-0.7650

> <Gold.Goldscore.Hbonds>
donor molecule, donor type, donor heavy atom, donor atom, acceptor molecule, acceptor atom, score
      P1  H  7366  7373       L1     9  1.00

> <Gold.Goldscore.Internal.Vdw.Weighted>
-0.6006

> <Gold.Goldscore.Internal.Torsion.Weighted>
-0.5876

> <Gold.Goldscore.External.Vdw.Weighted>
29.5932

> <Gold.Goldscore.Internal.HBond.Weighted>
0.0000

> <Gold.Goldscore.External.HBond.Weighted>
2.0000

> <Gold.Goldscore.Internal.Correction.Weighted>
-0.7650

> <Gold.Rescore>
     Score     S(PLP)   S(hbond)     S(cho)   S(metal)  DE(clash)   DE(tors)     intcor
     38.20     -37.23       1.00       0.00       0.00       0.02       1.00       ----

> <Gold.PLP.Fitness>
38.2039

> <Gold.PLP.PLP>
-37.2334

> <Gold.PLP.part.hbond>
-1.0000

> <Gold.PLP.part.metal>
0.0000

> <Gold.PLP.part.buried>
-4.4454

> <Gold.PLP.part.nonpolar>
-32.3335

> <Gold.PLP.part.repulsive>
0.1801

> <Gold.PLP.ligand.clash>
0.0198

> <Gold.PLP.ligand.torsion>
1.0048

> <Gold.PLP.Chemscore.Hbond>
1.0000

> <Gold.PLP.Chemscore.CHOScore>
0.0000

> <Gold.PLP.Chemscore.Metal>
0.0000

> <Gold.Chemscore.Hbonds>
donor molecule, donor type, donor heavy atom, donor atom, acceptor molecule, acceptor atom, score
      P1  H  7366  7373       L1     9  1.00

> <Gold.PLP.Chemscore.Internal.Correction>
   9.000000E+99

