#       Name:                CT1002167954
#       Creating user name   hitesit
#       Creation time:       Sun Apr 16 02:22:45 2023


#       File generated by GOLD software.
#

@<TRIPOS>MOLECULE
CT1002167954|ligand_prepared|mol2|1|dock8
    29    30     1
SMALL
NO_CHARGES


@<TRIPOS>ATOM
      1 C1          11.4062 -14.6531 -48.3046 C.3            1 RES1               0.0000
      2 C2          10.1859 -15.3850 -48.8997 C.ar           1 RES1               0.0000
      3 C3          12.6392 -15.4021 -48.8014 C.2            1 RES1               0.0000
      4 C4          11.3170 -13.2106 -48.7901 C.2            1 RES1               0.0000
      5 C5          11.4316 -14.6361 -46.7584 C.3            1 RES1               0.0000
      6 C6           9.0974 -15.7154 -48.0980 C.ar           1 RES1               0.0000
      7 C7          10.1332 -15.7333 -50.2468 C.ar           1 RES1               0.0000
      8 N8          13.3907 -14.8083 -49.7723 N.am           1 RES1               0.0000
      9 O9          12.9257 -16.5145 -48.3760 O.2            1 RES1               0.0000
     10 N10         12.2917 -12.7578 -49.6402 N.am           1 RES1               0.0000
     11 O11         10.4023 -12.4670 -48.4574 O.2            1 RES1               0.0000
     12 C12         12.7409 -14.1320 -46.1723 C.3            1 RES1               0.0000
     13 C13          7.9948 -16.3677 -48.6244 C.ar           1 RES1               0.0000
     14 C14          9.0296 -16.3858 -50.7711 C.ar           1 RES1               0.0000
     15 C15         13.3075 -13.5004 -50.1776 C.2            1 RES1               0.0000
     16 C16          7.9599 -16.7029 -49.9612 C.ar           1 RES1               0.0000
     17 O17         14.1138 -13.0359 -50.9784 O.2            1 RES1               0.0000
     18 H18         10.6149 -13.9981 -46.3989 H              1 RES1               0.0000
     19 H19         11.2489 -15.6535 -46.3911 H              1 RES1               0.0000
     20 H20          9.1079 -15.4618 -47.0432 H              1 RES1               0.0000
     21 H21         10.9636 -15.4948 -50.9025 H              1 RES1               0.0000
     22 H22         14.0779 -15.3905 -50.2402 H              1 RES1               0.0000
     23 H23         12.2568 -11.7761 -49.8961 H              1 RES1               0.0000
     24 H24         12.7054 -14.1405 -45.0849 H              1 RES1               0.0000
     25 H25         13.5720 -14.7586 -46.4891 H              1 RES1               0.0000
     26 H26         12.9418 -13.1130 -46.4968 H              1 RES1               0.0000
     27 H27          7.1561 -16.6163 -47.9825 H              1 RES1               0.0000
     28 H28          9.0068 -16.6483 -51.8236 H              1 RES1               0.0000
     29 H29          7.0959 -17.2136 -50.3734 H              1 RES1               0.0000
@<TRIPOS>BOND
    1    1    2 1     
    2    1    3 1     
    3    1    4 1     
    4    1    5 1     
    5    2    6 ar    
    6    2    7 ar    
    7    3    8 1     
    8    3    9 2     
    9    4   10 1     
   10    4   11 2     
   11    5   12 1     
   12    5   18 1     
   13    5   19 1     
   14    6   13 ar    
   15    6   20 1     
   16    7   14 ar    
   17    7   21 1     
   18    8   15 1     
   19    8   22 1     
   20   10   15 1     
   21   10   23 1     
   22   12   24 1     
   23   12   25 1     
   24   12   26 1     
   25   13   16 ar    
   26   13   27 1     
   27   14   16 ar    
   28   14   28 1     
   29   15   17 2     
   30   16   29 1     
@<TRIPOS>SUBSTRUCTURE
      1 RES1           1
@<TRIPOS>SET
DONOR_HYDROGENS      STATIC     ATOMS    <user>   **** ""
2 22 23
ATOM$RED        STATIC     ATOMS    COLORGROUP SYSTEM
2 22 23
@<TRIPOS>COMMENT
> <Gold.Version>
2022.3.0

> <Gold.Id.Protein>
unknown|7kl0_clean|pdb

> <Gold.Protein.RotatedTorsions>
[ 3255 3234 3235 3236 ] final  147.51 input   29.64 | X-H torsion
[ 3263 3245 3244 3242 ] final   76.87 input   60.01 | X-H torsion
[ 3290 3276 3277 3278 ] final -134.87 input   80.30 | X-H torsion
[ 3319 3312 3313 3314 ] final -141.78 input  125.66 | X-H torsion
[ 6344 6325 6326 6327 ] final -116.09 input   95.32 | X-H torsion
[ 6378 6362 6363 6364 ] final -122.12 input   48.34 | X-H torsion
[ 6398 6391 6392 6393 ] final   10.11 input  -98.70 | X-H torsion
[ 7269 7260 7261 7262 ] final -168.40 input  118.90 | X-H torsion
[ 7309 7295 7296 7297 ] final    5.81 input   89.68 | X-H torsion
[ 7345 7337 7338 7339 ] final  118.30 input  116.36 | X-H torsion
[ 7367 7360 7361 7362 ] final  164.27 input   69.83 | X-H torsion
[ 7373 7366 7364 7361 ] final    2.85 input   60.03 | X-H torsion
[ 7395 7388 7389 7390 ] final  -10.68 input   93.08 | X-H torsion
[ 3352 3337 3338 3339 ] final  -95.01 input  120.41 | X-H torsion
[ 3327 3317 3316 3313 ] final  -36.63 input   60.01 | X-H torsion
[ 7427 7420 7421 7422 ] final  157.36 input  116.71 | X-H torsion
[ 8541 3279 3278 3277 ] final   72.23 input   -0.00 | X-H torsion
[ 8546 6290 6289 6288 ] final   28.16 input    0.00 | X-H torsion
[ 8549 6328 6327 6326 ] final -147.38 input    0.00 | X-H torsion
[ 8552 6365 6364 6363 ] final  -73.37 input    0.00 | X-H torsion
[ 8555 7183 7182 7181 ] final  129.32 input   -0.00 | X-H torsion
[ 8557 7233 7232 7231 ] final  -41.79 input   -0.00 | X-H torsion
[ 8560 7263 7262 7261 ] final    1.54 input    0.00 | X-H torsion
[ 8567 7298 7297 7296 ] final   37.00 input    0.00 | X-H torsion
[ 8571 7363 7362 7361 ] final  -93.27 input   -0.00 | X-H torsion
[ 8576 7340 7339 7338 ] final  151.41 input   -0.00 | X-H torsion
[ 8578 7391 7390 7389 ] final -136.89 input    0.00 | X-H torsion
[ 8580 3204 3203 3202 ] final  -11.29 input   -0.00 | X-H torsion
[ 8582 3237 3236 3235 ] final -177.15 input    0.00 | X-H torsion
[ 8584 3315 3314 3313 ] final -118.85 input    0.00 | X-H torsion

> <Gold.Protein.ActiveResidues>
 GLU105  TYR106  TYR107  SER108  GLU109  ALA112  LEU206  LEU207  VAL208  GLY209 
 TYR210  PRO233  SER234  PRO235  GLU236  TRP237  ASP238  THR239  VAL240  THR241 
 LYS245 

> <Gold.Protein.RotatedAtoms>
    9.4984  -17.7983  -41.9078 H   0  0  0  0  0  0  0  0  0  0  0  0  # atno 3255 bound_to 3234
   13.4347  -17.7208  -47.6156 H   0  0  0  0  0  0  0  0  0  0  0  0  # atno 3263 bound_to 3245
    6.9408  -19.5999  -44.0897 H   0  0  0  0  0  0  0  0  0  0  0  0  # atno 3290 bound_to 3276
    7.7310  -20.4870  -47.6199 H   0  0  0  0  0  0  0  0  0  0  0  0  # atno 3319 bound_to 3312
    5.7942  -22.5838  -49.5503 H   0  0  0  0  0  0  0  0  0  0  0  0  # atno 3327 bound_to 3317
    5.7774  -19.2284  -50.3246 H   0  0  0  0  0  0  0  0  0  0  0  0  # atno 3352 bound_to 3337
    3.5447  -15.9556  -45.3577 H   0  0  0  0  0  0  0  0  0  0  0  0  # atno 6344 bound_to 6325
    6.3429  -14.2924  -45.7329 H   0  0  0  0  0  0  0  0  0  0  0  0  # atno 6378 bound_to 6362
    6.8022  -12.7625  -42.4549 H   0  0  0  0  0  0  0  0  0  0  0  0  # atno 6398 bound_to 6391
   14.3314   -8.4732  -47.8678 H   0  0  0  0  0  0  0  0  0  0  0  0  # atno 7269 bound_to 7260
   11.8216   -8.4836  -49.9655 H   0  0  0  0  0  0  0  0  0  0  0  0  # atno 7309 bound_to 7295
   12.0841   -8.1137  -51.4121 H   0  0  0  0  0  0  0  0  0  0  0  0  # atno 7345 bound_to 7337
   12.5059   -9.8944  -53.6151 H   0  0  0  0  0  0  0  0  0  0  0  0  # atno 7367 bound_to 7360
   11.4600  -12.0865  -52.1813 H   0  0  0  0  0  0  0  0  0  0  0  0  # atno 7373 bound_to 7366
    9.5467  -11.1635  -54.5184 H   0  0  0  0  0  0  0  0  0  0  0  0  # atno 7395 bound_to 7388
    6.6436  -13.2330  -55.4395 H   0  0  0  0  0  0  0  0  0  0  0  0  # atno 7427 bound_to 7420
    8.8070  -19.4067  -41.8118 LP  0  0  0  0  0  0  0  0  0  0  0  0  # atno 8537 bound_to 3234
   13.2172  -19.2842  -47.2197 LP  0  0  0  0  0  0  0  0  0  0  0  0  # atno 8538 bound_to 3245
   14.0483  -18.2943  -46.2217 LP  0  0  0  0  0  0  0  0  0  0  0  0  # atno 8539 bound_to 3245
    6.4310  -18.2543  -45.1003 LP  0  0  0  0  0  0  0  0  0  0  0  0  # atno 8540 bound_to 3276
    7.2095  -17.9469  -47.1258 LP  0  0  0  0  0  0  0  0  0  0  0  0  # atno 8541 bound_to 3279
    5.8616  -18.1752  -48.1893 LP  0  0  0  0  0  0  0  0  0  0  0  0  # atno 8542 bound_to 3279
    6.0761  -21.0430  -47.7893 LP  0  0  0  0  0  0  0  0  0  0  0  0  # atno 8543 bound_to 3312
    4.4025  -17.9758  -44.5966 LP  0  0  0  0  0  0  0  0  0  0  0  0  # atno 8546 bound_to 6290
    5.6330  -16.8083  -44.9469 LP  0  0  0  0  0  0  0  0  0  0  0  0  # atno 8547 bound_to 6290
    3.5821  -14.2374  -45.0220 LP  0  0  0  0  0  0  0  0  0  0  0  0  # atno 8548 bound_to 6325
    8.1300  -14.8548  -46.2766 LP  0  0  0  0  0  0  0  0  0  0  0  0  # atno 8549 bound_to 6328
    7.1974  -14.7845  -47.7345 LP  0  0  0  0  0  0  0  0  0  0  0  0  # atno 8550 bound_to 6328
    5.4304  -13.3380  -44.5851 LP  0  0  0  0  0  0  0  0  0  0  0  0  # atno 8551 bound_to 6362
    9.6413  -13.6190  -42.6452 LP  0  0  0  0  0  0  0  0  0  0  0  0  # atno 8552 bound_to 6365
    8.9568  -12.2257  -41.8768 LP  0  0  0  0  0  0  0  0  0  0  0  0  # atno 8553 bound_to 6365
    6.5678  -14.4024  -43.0209 LP  0  0  0  0  0  0  0  0  0  0  0  0  # atno 8554 bound_to 6391
   10.9413   -6.2899  -48.9259 LP  0  0  0  0  0  0  0  0  0  0  0  0  # atno 8555 bound_to 7183
   10.6546   -6.2263  -47.2189 LP  0  0  0  0  0  0  0  0  0  0  0  0  # atno 8556 bound_to 7183
   13.6719   -7.9981  -51.3667 LP  0  0  0  0  0  0  0  0  0  0  0  0  # atno 8557 bound_to 7233
   13.6203   -9.5955  -50.6992 LP  0  0  0  0  0  0  0  0  0  0  0  0  # atno 8558 bound_to 7233
   13.0605   -7.7592  -48.8312 LP  0  0  0  0  0  0  0  0  0  0  0  0  # atno 8559 bound_to 7260
   11.6491  -11.7364  -49.4793 LP  0  0  0  0  0  0  0  0  0  0  0  0  # atno 8560 bound_to 7263
   10.4280  -10.9499  -50.4228 LP  0  0  0  0  0  0  0  0  0  0  0  0  # atno 8561 bound_to 7263
   10.7873   -8.8439  -48.5980 LP  0  0  0  0  0  0  0  0  0  0  0  0  # atno 8566 bound_to 7295
    8.3224   -8.1607  -52.6613 LP  0  0  0  0  0  0  0  0  0  0  0  0  # atno 8567 bound_to 7298
    9.4823   -8.9186  -53.7006 LP  0  0  0  0  0  0  0  0  0  0  0  0  # atno 8568 bound_to 7298
   10.4599   -8.3328  -52.0241 LP  0  0  0  0  0  0  0  0  0  0  0  0  # atno 8569 bound_to 7337
   10.7519   -9.7876  -53.5385 LP  0  0  0  0  0  0  0  0  0  0  0  0  # atno 8570 bound_to 7360
    9.5974  -13.4930  -55.6626 LP  0  0  0  0  0  0  0  0  0  0  0  0  # atno 8571 bound_to 7363
   10.1711  -14.1935  -54.1860 LP  0  0  0  0  0  0  0  0  0  0  0  0  # atno 8572 bound_to 7363
   13.0502  -12.1865  -51.8504 LP  0  0  0  0  0  0  0  0  0  0  0  0  # atno 8573 bound_to 7366
   12.1787  -13.5443  -52.1023 LP  0  0  0  0  0  0  0  0  0  0  0  0  # atno 8574 bound_to 7366
    9.7636  -11.6859  -52.8600 LP  0  0  0  0  0  0  0  0  0  0  0  0  # atno 8575 bound_to 7388
   11.8071   -9.7018  -56.2561 LP  0  0  0  0  0  0  0  0  0  0  0  0  # atno 8576 bound_to 7340
   11.1740   -8.1116  -55.9904 LP  0  0  0  0  0  0  0  0  0  0  0  0  # atno 8577 bound_to 7340
    6.5300   -9.7089  -55.5501 LP  0  0  0  0  0  0  0  0  0  0  0  0  # atno 8578 bound_to 7391
    8.2146   -9.9124  -55.2030 LP  0  0  0  0  0  0  0  0  0  0  0  0  # atno 8579 bound_to 7391
    8.1436  -16.5887  -39.8207 LP  0  0  0  0  0  0  0  0  0  0  0  0  # atno 8580 bound_to 3204
    7.7236  -16.4132  -41.4918 LP  0  0  0  0  0  0  0  0  0  0  0  0  # atno 8581 bound_to 3204
    8.1123  -21.1240  -44.6654 LP  0  0  0  0  0  0  0  0  0  0  0  0  # atno 8582 bound_to 3237
    9.0451  -20.3584  -43.4230 LP  0  0  0  0  0  0  0  0  0  0  0  0  # atno 8583 bound_to 3237
    3.8905  -20.5763  -49.8488 LP  0  0  0  0  0  0  0  0  0  0  0  0  # atno 8584 bound_to 3315
    4.6121  -19.6856  -48.5503 LP  0  0  0  0  0  0  0  0  0  0  0  0  # atno 8585 bound_to 3315
    6.4429  -19.6350  -51.8919 LP  0  0  0  0  0  0  0  0  0  0  0  0  # atno 8586 bound_to 3337
    6.6326  -23.5630  -50.5435 LP  0  0  0  0  0  0  0  0  0  0  0  0  # atno 8587 bound_to 3317
    5.6708  -22.3972  -51.1622 LP  0  0  0  0  0  0  0  0  0  0  0  0  # atno 8588 bound_to 3317

> <Gold.Score>
     Fitness  S(hb_ext) S(vdw_ext)  S(hb_int)    S(int)      intcor
     30.72       0.90      22.23       0.00      -0.74      -0.76

> <Gold.Goldscore.Fitness>
30.7237

> <Gold.Goldscore.Internal.Vdw>
-0.9789

> <Gold.Goldscore.Internal.Torsion>
-0.5294

> <Gold.Goldscore.External.Vdw>
22.2335

> <Gold.Goldscore.Internal.HBond>
0.0000

> <Gold.Goldscore.External.HBond>
0.8960

> <Gold.Goldscore.Internal.Correction>
-0.7650

> <Gold.Goldscore.Hbonds>
donor molecule, donor type, donor heavy atom, donor atom, acceptor molecule, acceptor atom, score
      P1  H  3245  3263       L1     9  0.37
      L1  H    10    23       P1  7263  0.08

> <Gold.Goldscore.Internal.Vdw.Weighted>
-0.9789

> <Gold.Goldscore.Internal.Torsion.Weighted>
-0.5294

> <Gold.Goldscore.External.Vdw.Weighted>
30.5711

> <Gold.Goldscore.Internal.HBond.Weighted>
0.0000

> <Gold.Goldscore.External.HBond.Weighted>
0.8960

> <Gold.Goldscore.Internal.Correction.Weighted>
-0.7650

> <Gold.Rescore>
     Score     S(PLP)   S(hbond)     S(cho)   S(metal)  DE(clash)   DE(tors)     intcor
     15.99     -13.49       1.05       0.00       0.00       0.00       0.32       ----

> <Gold.PLP.Fitness>
15.9883

> <Gold.PLP.PLP>
-13.4886

> <Gold.PLP.part.hbond>
-2.2040

> <Gold.PLP.part.metal>
0.0000

> <Gold.PLP.part.buried>
10.0136

> <Gold.PLP.part.nonpolar>
-30.4349

> <Gold.PLP.part.repulsive>
6.8774

> <Gold.PLP.ligand.clash>
0.0000

> <Gold.PLP.ligand.torsion>
0.3203

> <Gold.PLP.Chemscore.Hbond>
1.0468

> <Gold.PLP.Chemscore.CHOScore>
0.0000

> <Gold.PLP.Chemscore.Metal>
0.0000

> <Gold.Chemscore.Hbonds>
donor molecule, donor type, donor heavy atom, donor atom, acceptor molecule, acceptor atom, score
      L1  H    10    23       P1  7263  0.27
      P1  H  3245  3263       L1     9  0.72

> <Gold.PLP.Chemscore.Internal.Correction>
   9.000000E+99

