#       Name:                CT1002167954
#       Creating user name   hitesit
#       Creation time:       Sun Apr 16 02:22:42 2023


#       File generated by GOLD software.
#

@<TRIPOS>MOLECULE
CT1002167954|ligand_prepared|mol2|1|dock4
    29    30     1
SMALL
NO_CHARGES


@<TRIPOS>ATOM
      1 C1          10.2793 -16.4524 -51.0204 C.3            1 RES1               0.0000
      2 C2          10.6120 -15.6050 -49.7754 C.ar           1 RES1               0.0000
      3 C3           9.8657 -15.4681 -52.1105 C.2            1 RES1               0.0000
      4 C4          11.5395 -17.2468 -51.3449 C.2            1 RES1               0.0000
      5 C5           9.1241 -17.4571 -50.8018 C.3            1 RES1               0.0000
      6 C6           9.7526 -15.5858 -48.6809 C.ar           1 RES1               0.0000
      7 C7          11.7738 -14.8409 -49.7056 C.ar           1 RES1               0.0000
      8 N8          10.7495 -15.2396 -53.1238 N.am           1 RES1               0.0000
      9 O9           8.7971 -14.8717 -52.0610 O.2            1 RES1               0.0000
     10 N10         12.1872 -16.9714 -52.5207 N.am           1 RES1               0.0000
     11 O11         11.9867 -18.0973 -50.5853 O.2            1 RES1               0.0000
     12 C12          8.9722 -18.4705 -51.9253 C.3            1 RES1               0.0000
     13 C13         10.0454 -14.8323 -47.5563 C.ar           1 RES1               0.0000
     14 C14         12.0646 -14.0879 -48.5800 C.ar           1 RES1               0.0000
     15 C15         11.8666 -15.9824 -53.4102 C.2            1 RES1               0.0000
     16 C16         11.2017 -14.0833 -47.5049 C.ar           1 RES1               0.0000
     17 O17         12.5299 -15.7603 -54.4191 O.2            1 RES1               0.0000
     18 H18          9.2974 -17.9954 -49.8618 H              1 RES1               0.0000
     19 H19          8.1852 -16.8990 -50.7004 H              1 RES1               0.0000
     20 H20          8.8368 -16.1670 -48.7042 H              1 RES1               0.0000
     21 H21         12.4668 -14.8284 -50.5400 H              1 RES1               0.0000
     22 H22         10.5626 -14.4426 -53.7239 H              1 RES1               0.0000
     23 H23         12.9819 -17.5579 -52.7544 H              1 RES1               0.0000
     24 H24          8.1480 -19.1510 -51.7220 H              1 RES1               0.0000
     25 H25          8.7736 -17.9708 -52.8712 H              1 RES1               0.0000
     26 H26          9.8793 -19.0607 -52.0376 H              1 RES1               0.0000
     27 H27          9.3623 -14.8310 -46.7133 H              1 RES1               0.0000
     28 H28         12.9755 -13.4994 -48.5442 H              1 RES1               0.0000
     29 H29         11.4310 -13.4934 -46.6236 H              1 RES1               0.0000
@<TRIPOS>BOND
    1    1    2 1     
    2    1    3 1     
    3    1    4 1     
    4    1    5 1     
    5    2    6 ar    
    6    2    7 ar    
    7    3    8 1     
    8    3    9 2     
    9    4   10 1     
   10    4   11 2     
   11    5   12 1     
   12    5   18 1     
   13    5   19 1     
   14    6   13 ar    
   15    6   20 1     
   16    7   14 ar    
   17    7   21 1     
   18    8   15 1     
   19    8   22 1     
   20   10   15 1     
   21   10   23 1     
   22   12   24 1     
   23   12   25 1     
   24   12   26 1     
   25   13   16 ar    
   26   13   27 1     
   27   14   16 ar    
   28   14   28 1     
   29   15   17 2     
   30   16   29 1     
@<TRIPOS>SUBSTRUCTURE
      1 RES1           1
@<TRIPOS>SET
DONOR_HYDROGENS      STATIC     ATOMS    <user>   **** ""
2 22 23
ATOM$RED        STATIC     ATOMS    COLORGROUP SYSTEM
2 22 23
@<TRIPOS>COMMENT
> <Gold.Version>
2022.3.0

> <Gold.Id.Protein>
unknown|7kl0_clean|pdb

> <Gold.Protein.RotatedTorsions>
[ 3255 3234 3235 3236 ] final   14.88 input   29.64 | X-H torsion
[ 3263 3245 3244 3242 ] final  -91.13 input   60.01 | X-H torsion
[ 3290 3276 3277 3278 ] final   72.07 input   80.30 | X-H torsion
[ 3319 3312 3313 3314 ] final -133.93 input  125.66 | X-H torsion
[ 6344 6325 6326 6327 ] final -129.71 input   95.32 | X-H torsion
[ 6378 6362 6363 6364 ] final  -78.29 input   48.34 | X-H torsion
[ 6398 6391 6392 6393 ] final -156.31 input  -98.70 | X-H torsion
[ 7269 7260 7261 7262 ] final -100.18 input  118.90 | X-H torsion
[ 7309 7295 7296 7297 ] final  166.81 input   89.68 | X-H torsion
[ 7345 7337 7338 7339 ] final   81.10 input  116.36 | X-H torsion
[ 7367 7360 7361 7362 ] final  155.50 input   69.83 | X-H torsion
[ 7373 7366 7364 7361 ] final   27.52 input   60.03 | X-H torsion
[ 7395 7388 7389 7390 ] final  -63.94 input   93.08 | X-H torsion
[ 3352 3337 3338 3339 ] final -128.66 input  120.41 | X-H torsion
[ 3327 3317 3316 3313 ] final -125.80 input   60.01 | X-H torsion
[ 7427 7420 7421 7422 ] final  161.83 input  116.71 | X-H torsion
[ 8541 3279 3278 3277 ] final  -97.37 input   -0.00 | X-H torsion
[ 8546 6290 6289 6288 ] final  -86.30 input    0.00 | X-H torsion
[ 8549 6328 6327 6326 ] final  -20.27 input    0.00 | X-H torsion
[ 8552 6365 6364 6363 ] final  -25.69 input    0.00 | X-H torsion
[ 8555 7183 7182 7181 ] final -175.90 input   -0.00 | X-H torsion
[ 8557 7233 7232 7231 ] final  122.61 input   -0.00 | X-H torsion
[ 8560 7263 7262 7261 ] final -121.44 input    0.00 | X-H torsion
[ 8567 7298 7297 7296 ] final -139.80 input    0.00 | X-H torsion
[ 8571 7363 7362 7361 ] final   85.30 input   -0.00 | X-H torsion
[ 8576 7340 7339 7338 ] final   27.85 input   -0.00 | X-H torsion
[ 8578 7391 7390 7389 ] final  -77.87 input    0.00 | X-H torsion
[ 8580 3204 3203 3202 ] final   29.83 input   -0.00 | X-H torsion
[ 8582 3237 3236 3235 ] final  174.82 input    0.00 | X-H torsion
[ 8584 3315 3314 3313 ] final  -10.12 input    0.00 | X-H torsion

> <Gold.Protein.ActiveResidues>
 GLU105  TYR106  TYR107  SER108  GLU109  ALA112  LEU206  LEU207  VAL208  GLY209 
 TYR210  PRO233  SER234  PRO235  GLU236  TRP237  ASP238  THR239  VAL240  THR241 
 LYS245 

> <Gold.Protein.RotatedAtoms>
    9.3190  -19.3815  -42.2974 H   0  0  0  0  0  0  0  0  0  0  0  0  # atno 3255 bound_to 3234
   13.5929  -19.2438  -46.5552 H   0  0  0  0  0  0  0  0  0  0  0  0  # atno 3263 bound_to 3245
    6.0543  -18.3392  -44.9411 H   0  0  0  0  0  0  0  0  0  0  0  0  # atno 3290 bound_to 3276
    7.6829  -20.3750  -47.6052 H   0  0  0  0  0  0  0  0  0  0  0  0  # atno 3319 bound_to 3312
    6.5809  -23.5109  -50.0494 H   0  0  0  0  0  0  0  0  0  0  0  0  # atno 3327 bound_to 3317
    6.0333  -18.8130  -50.4903 H   0  0  0  0  0  0  0  0  0  0  0  0  # atno 3352 bound_to 3337
    3.3918  -15.9004  -45.4928 H   0  0  0  0  0  0  0  0  0  0  0  0  # atno 6344 bound_to 6325
    6.2590  -14.6110  -45.1575 H   0  0  0  0  0  0  0  0  0  0  0  0  # atno 6378 bound_to 6362
    6.3628  -14.3941  -42.9749 H   0  0  0  0  0  0  0  0  0  0  0  0  # atno 6398 bound_to 6391
   14.2986   -8.5071  -48.8582 H   0  0  0  0  0  0  0  0  0  0  0  0  # atno 7269 bound_to 7260
   10.7533   -8.5552  -48.5684 H   0  0  0  0  0  0  0  0  0  0  0  0  # atno 7309 bound_to 7295
   12.0126   -8.6603  -51.5432 H   0  0  0  0  0  0  0  0  0  0  0  0  # atno 7345 bound_to 7337
   12.4971   -9.9532  -53.4901 H   0  0  0  0  0  0  0  0  0  0  0  0  # atno 7367 bound_to 7360
   11.3216  -12.4588  -52.2293 H   0  0  0  0  0  0  0  0  0  0  0  0  # atno 7373 bound_to 7366
    9.7782  -11.9220  -54.4085 H   0  0  0  0  0  0  0  0  0  0  0  0  # atno 7395 bound_to 7388
    6.7045  -13.2092  -55.4637 H   0  0  0  0  0  0  0  0  0  0  0  0  # atno 7427 bound_to 7420
    8.9788  -17.8910  -41.4388 LP  0  0  0  0  0  0  0  0  0  0  0  0  # atno 8537 bound_to 3234
   13.9832  -17.6673  -46.6583 LP  0  0  0  0  0  0  0  0  0  0  0  0  # atno 8538 bound_to 3245
   13.1231  -18.3781  -47.8506 LP  0  0  0  0  0  0  0  0  0  0  0  0  # atno 8539 bound_to 3245
    7.2653  -19.4407  -44.2990 LP  0  0  0  0  0  0  0  0  0  0  0  0  # atno 8540 bound_to 3276
    5.7745  -18.1499  -48.0611 LP  0  0  0  0  0  0  0  0  0  0  0  0  # atno 8541 bound_to 3279
    7.2966  -17.9721  -47.2539 LP  0  0  0  0  0  0  0  0  0  0  0  0  # atno 8542 bound_to 3279
    6.1220  -21.1501  -47.8034 LP  0  0  0  0  0  0  0  0  0  0  0  0  # atno 8543 bound_to 3312
    5.3756  -17.0275  -44.0724 LP  0  0  0  0  0  0  0  0  0  0  0  0  # atno 8546 bound_to 6290
    4.6599  -17.7566  -45.4711 LP  0  0  0  0  0  0  0  0  0  0  0  0  # atno 8547 bound_to 6290
    3.7297  -14.2907  -44.8917 LP  0  0  0  0  0  0  0  0  0  0  0  0  # atno 8548 bound_to 6325
    7.2156  -15.4645  -47.3708 LP  0  0  0  0  0  0  0  0  0  0  0  0  # atno 8549 bound_to 6328
    8.1118  -14.1749  -46.6402 LP  0  0  0  0  0  0  0  0  0  0  0  0  # atno 8550 bound_to 6328
    5.5118  -13.0291  -45.1432 LP  0  0  0  0  0  0  0  0  0  0  0  0  # atno 8551 bound_to 6362
    9.6797  -13.0358  -43.0306 LP  0  0  0  0  0  0  0  0  0  0  0  0  # atno 8552 bound_to 6365
    8.9185  -12.8089  -41.4914 LP  0  0  0  0  0  0  0  0  0  0  0  0  # atno 8553 bound_to 6365
    6.9924  -12.8256  -42.5185 LP  0  0  0  0  0  0  0  0  0  0  0  0  # atno 8554 bound_to 6391
   11.5641   -6.4142  -48.4446 LP  0  0  0  0  0  0  0  0  0  0  0  0  # atno 8555 bound_to 7183
   10.0317   -6.1019  -47.7001 LP  0  0  0  0  0  0  0  0  0  0  0  0  # atno 8556 bound_to 7183
   13.8481   -9.5924  -50.7570 LP  0  0  0  0  0  0  0  0  0  0  0  0  # atno 8557 bound_to 7233
   13.4441   -8.0011  -51.3088 LP  0  0  0  0  0  0  0  0  0  0  0  0  # atno 8558 bound_to 7233
   13.0925   -7.7261  -47.8640 LP  0  0  0  0  0  0  0  0  0  0  0  0  # atno 8559 bound_to 7260
   11.1852  -11.0294  -50.7448 LP  0  0  0  0  0  0  0  0  0  0  0  0  # atno 8560 bound_to 7263
   10.8919  -11.6569  -49.1573 LP  0  0  0  0  0  0  0  0  0  0  0  0  # atno 8561 bound_to 7263
   11.8163   -8.7749  -49.9436 LP  0  0  0  0  0  0  0  0  0  0  0  0  # atno 8566 bound_to 7295
    9.4693   -8.9613  -53.6818 LP  0  0  0  0  0  0  0  0  0  0  0  0  # atno 8567 bound_to 7298
    8.3354   -8.1181  -52.6801 LP  0  0  0  0  0  0  0  0  0  0  0  0  # atno 8568 bound_to 7298
   10.5292   -7.8028  -51.8970 LP  0  0  0  0  0  0  0  0  0  0  0  0  # atno 8569 bound_to 7337
   10.7601   -9.7323  -53.6561 LP  0  0  0  0  0  0  0  0  0  0  0  0  # atno 8570 bound_to 7360
   10.1911  -14.1935  -54.1941 LP  0  0  0  0  0  0  0  0  0  0  0  0  # atno 8571 bound_to 7363
    9.5774  -13.4931  -55.6545 LP  0  0  0  0  0  0  0  0  0  0  0  0  # atno 8572 bound_to 7363
   12.8004  -11.8725  -51.8867 LP  0  0  0  0  0  0  0  0  0  0  0  0  # atno 8573 bound_to 7366
   12.5679  -13.4835  -52.0176 LP  0  0  0  0  0  0  0  0  0  0  0  0  # atno 8574 bound_to 7366
    9.5410  -10.9565  -52.9657 LP  0  0  0  0  0  0  0  0  0  0  0  0  # atno 8575 bound_to 7388
   11.9826   -8.1947  -56.0915 LP  0  0  0  0  0  0  0  0  0  0  0  0  # atno 8576 bound_to 7340
   10.9985   -9.6186  -56.1550 LP  0  0  0  0  0  0  0  0  0  0  0  0  # atno 8577 bound_to 7340
    6.8216   -9.5356  -54.7673 LP  0  0  0  0  0  0  0  0  0  0  0  0  # atno 8578 bound_to 7391
    7.9230  -10.0856  -55.9858 LP  0  0  0  0  0  0  0  0  0  0  0  0  # atno 8579 bound_to 7391
    8.5498  -16.2382  -40.1073 LP  0  0  0  0  0  0  0  0  0  0  0  0  # atno 8580 bound_to 3204
    7.3174  -16.7637  -41.2051 LP  0  0  0  0  0  0  0  0  0  0  0  0  # atno 8581 bound_to 3204
    8.0428  -21.1663  -44.5753 LP  0  0  0  0  0  0  0  0  0  0  0  0  # atno 8582 bound_to 3237
    9.1146  -20.3161  -43.5130 LP  0  0  0  0  0  0  0  0  0  0  0  0  # atno 8583 bound_to 3237
    4.6830  -20.6826  -48.6903 LP  0  0  0  0  0  0  0  0  0  0  0  0  # atno 8584 bound_to 3315
    3.8196  -19.5793  -49.7088 LP  0  0  0  0  0  0  0  0  0  0  0  0  # atno 8585 bound_to 3315
    6.1954  -20.0367  -51.7316 LP  0  0  0  0  0  0  0  0  0  0  0  0  # atno 8586 bound_to 3337
    5.9708  -22.7507  -51.3525 LP  0  0  0  0  0  0  0  0  0  0  0  0  # atno 8587 bound_to 3317
    5.5403  -22.2758  -49.8506 LP  0  0  0  0  0  0  0  0  0  0  0  0  # atno 8588 bound_to 3317

> <Gold.Score>
     Fitness  S(hb_ext) S(vdw_ext)  S(hb_int)    S(int)      intcor
     27.91       2.00      19.48       0.00      -0.87      -0.76

> <Gold.Goldscore.Fitness>
27.9143

> <Gold.Goldscore.Internal.Vdw>
-1.0724

> <Gold.Goldscore.Internal.Torsion>
-0.5582

> <Gold.Goldscore.External.Vdw>
19.4763

> <Gold.Goldscore.Internal.HBond>
0.0000

> <Gold.Goldscore.External.HBond>
2.0000

> <Gold.Goldscore.Internal.Correction>
-0.7650

> <Gold.Goldscore.Hbonds>
donor molecule, donor type, donor heavy atom, donor atom, acceptor molecule, acceptor atom, score
      L1  H     8    22       P1  7363  1.00

> <Gold.Goldscore.Internal.Vdw.Weighted>
-1.0724

> <Gold.Goldscore.Internal.Torsion.Weighted>
-0.5582

> <Gold.Goldscore.External.Vdw.Weighted>
26.7799

> <Gold.Goldscore.Internal.HBond.Weighted>
0.0000

> <Gold.Goldscore.External.HBond.Weighted>
2.0000

> <Gold.Goldscore.Internal.Correction.Weighted>
-0.7650

> <Gold.Rescore>
     Score     S(PLP)   S(hbond)     S(cho)   S(metal)  DE(clash)   DE(tors)     intcor
     34.76     -32.97       0.91       0.00       0.00       0.00       0.47       ----

> <Gold.PLP.Fitness>
34.7603

> <Gold.PLP.PLP>
-32.9673

> <Gold.PLP.part.hbond>
-2.7959

> <Gold.PLP.part.metal>
0.0000

> <Gold.PLP.part.buried>
-3.4392

> <Gold.PLP.part.nonpolar>
-28.6967

> <Gold.PLP.part.repulsive>
0.2072

> <Gold.PLP.ligand.clash>
0.0000

> <Gold.PLP.ligand.torsion>
0.4685

> <Gold.PLP.Chemscore.Hbond>
0.9100

> <Gold.PLP.Chemscore.CHOScore>
0.0000

> <Gold.PLP.Chemscore.Metal>
0.0000

> <Gold.Chemscore.Hbonds>
donor molecule, donor type, donor heavy atom, donor atom, acceptor molecule, acceptor atom, score
      L1  H     8    22       P1  7363  0.96

> <Gold.PLP.Chemscore.Internal.Correction>
   9.000000E+99

