#       Name:                CT1002167954
#       Creating user name   hitesit
#       Creation time:       Sun Apr 16 02:22:46 2023


#       File generated by GOLD software.
#

@<TRIPOS>MOLECULE
CT1002167954|ligand_prepared|mol2|1|dock10
    29    30     1
SMALL
NO_CHARGES


@<TRIPOS>ATOM
      1 C1          10.5210 -16.0246 -50.1096 C.3            1 RES1               0.0000
      2 C2          11.0545 -15.3954 -48.8064 C.ar           1 RES1               0.0000
      3 C3          11.6929 -16.0452 -51.0865 C.2            1 RES1               0.0000
      4 C4          10.0002 -17.4074 -49.7336 C.2            1 RES1               0.0000
      5 C5           9.3580 -15.2351 -50.7541 C.3            1 RES1               0.0000
      6 C6          10.1868 -14.7779 -47.9107 C.ar           1 RES1               0.0000
      7 C7          12.4090 -15.4269 -48.4856 C.ar           1 RES1               0.0000
      8 N8          12.2826 -17.2483 -51.3407 N.am           1 RES1               0.0000
      9 O9          12.1185 -15.0156 -51.5956 O.2            1 RES1               0.0000
     10 N10         10.6472 -18.4995 -50.2499 N.am           1 RES1               0.0000
     11 O11          9.0457 -17.5613 -48.9816 O.2            1 RES1               0.0000
     12 C12          9.0025 -15.7028 -52.1566 C.3            1 RES1               0.0000
     13 C13         10.6556 -14.2148 -46.7353 C.ar           1 RES1               0.0000
     14 C14         12.8758 -14.8630 -47.3097 C.ar           1 RES1               0.0000
     15 C15         11.7836 -18.4830 -51.0118 C.2            1 RES1               0.0000
     16 C16         12.0002 -14.2574 -46.4338 C.ar           1 RES1               0.0000
     17 O17         12.3384 -19.5095 -51.3934 O.2            1 RES1               0.0000
     18 H18          8.4711 -15.3284 -50.1153 H              1 RES1               0.0000
     19 H19          9.6317 -14.1735 -50.7948 H              1 RES1               0.0000
     20 H20          9.1257 -14.7325 -48.1321 H              1 RES1               0.0000
     21 H21         13.1164 -15.8971 -49.1602 H              1 RES1               0.0000
     22 H22         13.1773 -17.2282 -51.8196 H              1 RES1               0.0000
     23 H23         10.2442 -19.4089 -50.0476 H              1 RES1               0.0000
     24 H24          8.1810 -15.1159 -52.5623 H              1 RES1               0.0000
     25 H25          9.8548 -15.6002 -52.8251 H              1 RES1               0.0000
     26 H26          8.7011 -16.7482 -52.1497 H              1 RES1               0.0000
     27 H27          9.9626 -13.7381 -46.0499 H              1 RES1               0.0000
     28 H28         13.9349 -14.8983 -47.0768 H              1 RES1               0.0000
     29 H29         12.3672 -13.8165 -45.5128 H              1 RES1               0.0000
@<TRIPOS>BOND
    1    1    2 1     
    2    1    3 1     
    3    1    4 1     
    4    1    5 1     
    5    2    6 ar    
    6    2    7 ar    
    7    3    8 1     
    8    3    9 2     
    9    4   10 1     
   10    4   11 2     
   11    5   12 1     
   12    5   18 1     
   13    5   19 1     
   14    6   13 ar    
   15    6   20 1     
   16    7   14 ar    
   17    7   21 1     
   18    8   15 1     
   19    8   22 1     
   20   10   15 1     
   21   10   23 1     
   22   12   24 1     
   23   12   25 1     
   24   12   26 1     
   25   13   16 ar    
   26   13   27 1     
   27   14   16 ar    
   28   14   28 1     
   29   15   17 2     
   30   16   29 1     
@<TRIPOS>SUBSTRUCTURE
      1 RES1           1
@<TRIPOS>SET
DONOR_HYDROGENS      STATIC     ATOMS    <user>   **** ""
2 22 23
ATOM$RED        STATIC     ATOMS    COLORGROUP SYSTEM
2 22 23
@<TRIPOS>COMMENT
> <Gold.Version>
2022.3.0

> <Gold.Id.Protein>
unknown|7kl0_clean|pdb

> <Gold.Protein.RotatedTorsions>
[ 3255 3234 3235 3236 ] final  -48.06 input   29.64 | X-H torsion
[ 3263 3245 3244 3242 ] final  177.66 input   60.01 | X-H torsion
[ 3290 3276 3277 3278 ] final  152.39 input   80.30 | X-H torsion
[ 3319 3312 3313 3314 ] final   64.61 input  125.66 | X-H torsion
[ 6344 6325 6326 6327 ] final -159.69 input   95.32 | X-H torsion
[ 6378 6362 6363 6364 ] final  -58.41 input   48.34 | X-H torsion
[ 6398 6391 6392 6393 ] final   97.67 input  -98.70 | X-H torsion
[ 7269 7260 7261 7262 ] final   58.09 input  118.90 | X-H torsion
[ 7309 7295 7296 7297 ] final  179.28 input   89.68 | X-H torsion
[ 7345 7337 7338 7339 ] final   61.12 input  116.36 | X-H torsion
[ 7367 7360 7361 7362 ] final -136.09 input   69.83 | X-H torsion
[ 7373 7366 7364 7361 ] final  129.52 input   60.03 | X-H torsion
[ 7395 7388 7389 7390 ] final   47.65 input   93.08 | X-H torsion
[ 3352 3337 3338 3339 ] final  143.87 input  120.41 | X-H torsion
[ 3327 3317 3316 3313 ] final   14.46 input   60.01 | X-H torsion
[ 7427 7420 7421 7422 ] final  125.94 input  116.71 | X-H torsion
[ 8541 3279 3278 3277 ] final   20.52 input   -0.00 | X-H torsion
[ 8546 6290 6289 6288 ] final   10.51 input    0.00 | X-H torsion
[ 8549 6328 6327 6326 ] final -105.64 input    0.00 | X-H torsion
[ 8552 6365 6364 6363 ] final   20.93 input    0.00 | X-H torsion
[ 8555 7183 7182 7181 ] final  128.93 input   -0.00 | X-H torsion
[ 8557 7233 7232 7231 ] final -166.24 input   -0.00 | X-H torsion
[ 8560 7263 7262 7261 ] final  177.55 input    0.00 | X-H torsion
[ 8567 7298 7297 7296 ] final  115.81 input    0.00 | X-H torsion
[ 8571 7363 7362 7361 ] final  -18.09 input   -0.00 | X-H torsion
[ 8576 7340 7339 7338 ] final   -7.94 input   -0.00 | X-H torsion
[ 8578 7391 7390 7389 ] final -164.63 input    0.00 | X-H torsion
[ 8580 3204 3203 3202 ] final  145.53 input   -0.00 | X-H torsion
[ 8582 3237 3236 3235 ] final   79.45 input    0.00 | X-H torsion
[ 8584 3315 3314 3313 ] final -150.09 input    0.00 | X-H torsion

> <Gold.Protein.ActiveResidues>
 GLU105  TYR106  TYR107  SER108  GLU109  ALA112  LEU206  LEU207  VAL208  GLY209 
 TYR210  PRO233  SER234  PRO235  GLU236  TRP237  ASP238  THR239  VAL240  THR241 
 LYS245 

> <Gold.Protein.RotatedAtoms>
    8.6228  -19.3243  -41.6757 H   0  0  0  0  0  0  0  0  0  0  0  0  # atno 3255 bound_to 3234
   14.0573  -18.0064  -46.3456 H   0  0  0  0  0  0  0  0  0  0  0  0  # atno 3263 bound_to 3245
    5.9685  -19.1446  -44.1000 H   0  0  0  0  0  0  0  0  0  0  0  0  # atno 3290 bound_to 3276
    6.2602  -21.3929  -47.8727 H   0  0  0  0  0  0  0  0  0  0  0  0  # atno 3319 bound_to 3312
    5.4540  -22.1615  -50.1484 H   0  0  0  0  0  0  0  0  0  0  0  0  # atno 3327 bound_to 3317
    6.5870  -18.8421  -51.5887 H   0  0  0  0  0  0  0  0  0  0  0  0  # atno 3352 bound_to 3337
    3.1023  -15.6244  -45.7217 H   0  0  0  0  0  0  0  0  0  0  0  0  # atno 6344 bound_to 6325
    6.1448  -14.6090  -44.8730 H   0  0  0  0  0  0  0  0  0  0  0  0  # atno 6378 bound_to 6362
    7.5670  -13.6513  -42.8323 H   0  0  0  0  0  0  0  0  0  0  0  0  # atno 6398 bound_to 6391
   12.9515   -7.6660  -48.1563 H   0  0  0  0  0  0  0  0  0  0  0  0  # atno 7269 bound_to 7260
   10.7421   -8.7487  -48.5730 H   0  0  0  0  0  0  0  0  0  0  0  0  # atno 7309 bound_to 7295
   11.8408   -8.8926  -51.6502 H   0  0  0  0  0  0  0  0  0  0  0  0  # atno 7345 bound_to 7337
   12.0478   -9.5475  -54.3087 H   0  0  0  0  0  0  0  0  0  0  0  0  # atno 7367 bound_to 7360
   12.2863  -13.5382  -52.0821 H   0  0  0  0  0  0  0  0  0  0  0  0  # atno 7373 bound_to 7366
    9.3876  -10.6020  -53.8726 H   0  0  0  0  0  0  0  0  0  0  0  0  # atno 7395 bound_to 7388
    6.2097  -13.2545  -55.2275 H   0  0  0  0  0  0  0  0  0  0  0  0  # atno 7427 bound_to 7420
    9.6452  -17.9457  -42.0339 LP  0  0  0  0  0  0  0  0  0  0  0  0  # atno 8537 bound_to 3234
   13.2858  -17.9445  -47.7772 LP  0  0  0  0  0  0  0  0  0  0  0  0  # atno 8538 bound_to 3245
   13.3530  -19.3465  -46.9427 LP  0  0  0  0  0  0  0  0  0  0  0  0  # atno 8539 bound_to 3245
    7.3460  -18.6828  -45.0906 LP  0  0  0  0  0  0  0  0  0  0  0  0  # atno 8540 bound_to 3276
    6.5263  -17.8887  -46.8089 LP  0  0  0  0  0  0  0  0  0  0  0  0  # atno 8541 bound_to 3279
    6.5448  -18.2333  -48.5062 LP  0  0  0  0  0  0  0  0  0  0  0  0  # atno 8542 bound_to 3279
    7.4820  -20.1771  -47.5477 LP  0  0  0  0  0  0  0  0  0  0  0  0  # atno 8543 bound_to 3312
    4.4658  -17.9074  -44.3477 LP  0  0  0  0  0  0  0  0  0  0  0  0  # atno 8546 bound_to 6290
    5.5697  -16.8767  -45.1957 LP  0  0  0  0  0  0  0  0  0  0  0  0  # atno 8547 bound_to 6290
    4.0092  -14.5571  -44.6706 LP  0  0  0  0  0  0  0  0  0  0  0  0  # atno 8548 bound_to 6325
    7.8724  -15.4019  -46.3994 LP  0  0  0  0  0  0  0  0  0  0  0  0  # atno 8549 bound_to 6328
    7.4549  -14.2374  -47.6117 LP  0  0  0  0  0  0  0  0  0  0  0  0  # atno 8550 bound_to 6328
    5.6225  -13.0310  -45.4190 LP  0  0  0  0  0  0  0  0  0  0  0  0  # atno 8551 bound_to 6362
    9.4759  -12.3906  -42.9213 LP  0  0  0  0  0  0  0  0  0  0  0  0  # atno 8552 bound_to 6365
    9.1222  -13.4541  -41.6007 LP  0  0  0  0  0  0  0  0  0  0  0  0  # atno 8553 bound_to 6365
    5.8286  -13.5434  -42.6563 LP  0  0  0  0  0  0  0  0  0  0  0  0  # atno 8554 bound_to 6391
   10.9356   -6.2888  -48.9268 LP  0  0  0  0  0  0  0  0  0  0  0  0  # atno 8555 bound_to 7183
   10.6603   -6.2274  -47.2179 LP  0  0  0  0  0  0  0  0  0  0  0  0  # atno 8556 bound_to 7183
   12.9358   -9.1678  -50.7046 LP  0  0  0  0  0  0  0  0  0  0  0  0  # atno 8557 bound_to 7233
   14.3564   -8.4258  -51.3613 LP  0  0  0  0  0  0  0  0  0  0  0  0  # atno 8558 bound_to 7233
   14.4081   -8.5475  -48.5494 LP  0  0  0  0  0  0  0  0  0  0  0  0  # atno 8559 bound_to 7260
   10.3897  -10.9591  -50.3772 LP  0  0  0  0  0  0  0  0  0  0  0  0  # atno 8560 bound_to 7263
   11.6874  -11.7272  -49.5250 LP  0  0  0  0  0  0  0  0  0  0  0  0  # atno 8561 bound_to 7263
   11.8271   -8.5885  -49.9392 LP  0  0  0  0  0  0  0  0  0  0  0  0  # atno 8566 bound_to 7295
    9.0024   -7.7069  -53.3966 LP  0  0  0  0  0  0  0  0  0  0  0  0  # atno 8567 bound_to 7298
    8.8024   -9.3724  -52.9653 LP  0  0  0  0  0  0  0  0  0  0  0  0  # atno 8568 bound_to 7298
   10.6958   -7.5775  -51.7933 LP  0  0  0  0  0  0  0  0  0  0  0  0  # atno 8569 bound_to 7337
   11.1829  -10.1141  -52.8859 LP  0  0  0  0  0  0  0  0  0  0  0  0  # atno 8570 bound_to 7360
   10.5911  -13.7545  -55.4168 LP  0  0  0  0  0  0  0  0  0  0  0  0  # atno 8571 bound_to 7363
    9.1774  -13.9320  -54.4318 LP  0  0  0  0  0  0  0  0  0  0  0  0  # atno 8572 bound_to 7363
   11.4009  -12.1777  -52.1957 LP  0  0  0  0  0  0  0  0  0  0  0  0  # atno 8573 bound_to 7366
   12.9960  -12.0913  -51.8569 LP  0  0  0  0  0  0  0  0  0  0  0  0  # atno 8574 bound_to 7366
    9.9166  -12.2259  -53.4811 LP  0  0  0  0  0  0  0  0  0  0  0  0  # atno 8575 bound_to 7388
   11.4768   -8.0473  -56.0166 LP  0  0  0  0  0  0  0  0  0  0  0  0  # atno 8576 bound_to 7340
   11.5044   -9.7660  -56.2299 LP  0  0  0  0  0  0  0  0  0  0  0  0  # atno 8577 bound_to 7340
    6.6903   -9.8415  -55.9094 LP  0  0  0  0  0  0  0  0  0  0  0  0  # atno 8578 bound_to 7391
    8.0543   -9.7798  -54.8437 LP  0  0  0  0  0  0  0  0  0  0  0  0  # atno 8579 bound_to 7391
    8.0145  -16.2235  -41.4726 LP  0  0  0  0  0  0  0  0  0  0  0  0  # atno 8580 bound_to 3204
    7.8527  -16.7784  -39.8399 LP  0  0  0  0  0  0  0  0  0  0  0  0  # atno 8581 bound_to 3204
    8.1714  -20.9728  -43.3158 LP  0  0  0  0  0  0  0  0  0  0  0  0  # atno 8582 bound_to 3237
    8.9859  -20.5097  -44.7726 LP  0  0  0  0  0  0  0  0  0  0  0  0  # atno 8583 bound_to 3237
    3.7698  -20.1313  -49.9194 LP  0  0  0  0  0  0  0  0  0  0  0  0  # atno 8584 bound_to 3315
    4.7327  -20.1307  -48.4797 LP  0  0  0  0  0  0  0  0  0  0  0  0  # atno 8585 bound_to 3315
    5.6600  -20.0085  -50.6696 LP  0  0  0  0  0  0  0  0  0  0  0  0  # atno 8586 bound_to 3337
    6.4630  -23.3807  -49.7695 LP  0  0  0  0  0  0  0  0  0  0  0  0  # atno 8587 bound_to 3317
    6.1830  -23.0049  -51.3338 LP  0  0  0  0  0  0  0  0  0  0  0  0  # atno 8588 bound_to 3317

> <Gold.Score>
     Fitness  S(hb_ext) S(vdw_ext)  S(hb_int)    S(int)      intcor
     30.65       2.00      21.51       0.00      -0.93      -0.76

> <Gold.Goldscore.Fitness>
30.6480

> <Gold.Goldscore.Internal.Vdw>
-1.1430

> <Gold.Goldscore.Internal.Torsion>
-0.5501

> <Gold.Goldscore.External.Vdw>
21.5146

> <Gold.Goldscore.Internal.HBond>
0.0000

> <Gold.Goldscore.External.HBond>
2.0000

> <Gold.Goldscore.Internal.Correction>
-0.7585

> <Gold.Goldscore.Hbonds>
donor molecule, donor type, donor heavy atom, donor atom, acceptor molecule, acceptor atom, score
      P1  H  7366  7373       L1     9  1.00

> <Gold.Goldscore.Internal.Vdw.Weighted>
-1.1430

> <Gold.Goldscore.Internal.Torsion.Weighted>
-0.5501

> <Gold.Goldscore.External.Vdw.Weighted>
29.5826

> <Gold.Goldscore.Internal.HBond.Weighted>
0.0000

> <Gold.Goldscore.External.HBond.Weighted>
2.0000

> <Gold.Goldscore.Internal.Correction.Weighted>
-0.7585

> <Gold.Rescore>
     Score     S(PLP)   S(hbond)     S(cho)   S(metal)  DE(clash)   DE(tors)     intcor
     39.60     -38.29       1.00       0.00       0.00       0.96       0.36       ----

> <Gold.PLP.Fitness>
39.5973

> <Gold.PLP.PLP>
-38.2854

> <Gold.PLP.part.hbond>
-1.0000

> <Gold.PLP.part.metal>
0.0000

> <Gold.PLP.part.buried>
-5.4073

> <Gold.PLP.part.nonpolar>
-32.7365

> <Gold.PLP.part.repulsive>
0.1856

> <Gold.PLP.ligand.clash>
0.9627

> <Gold.PLP.ligand.torsion>
0.3627

> <Gold.PLP.Chemscore.Hbond>
1.0000

> <Gold.PLP.Chemscore.CHOScore>
0.0000

> <Gold.PLP.Chemscore.Metal>
0.0000

> <Gold.Chemscore.Hbonds>
donor molecule, donor type, donor heavy atom, donor atom, acceptor molecule, acceptor atom, score
      P1  H  7366  7373       L1     9  0.91

> <Gold.PLP.Chemscore.Internal.Correction>
   9.000000E+99

