#       Name:                CT1002167954
#       Creating user name   hitesit
#       Creation time:       Sun Apr 16 02:22:17 2023


#       File generated by GOLD software.
#

@<TRIPOS>MOLECULE
CT1002167954|ligand_prepared|mol2|1|dock4
    29    30     1
SMALL
NO_CHARGES


@<TRIPOS>ATOM
      1 C1          -7.9312 -24.9118 -28.3827 C.3            1 RES1               0.0000
      2 C2          -8.1011 -26.3538 -28.9028 C.ar           1 RES1               0.0000
      3 C3          -7.1561 -25.0174 -27.0726 C.2            1 RES1               0.0000
      4 C4          -7.1984 -24.1464 -29.4791 C.2            1 RES1               0.0000
      5 C5          -9.2683 -24.1860 -28.1053 C.3            1 RES1               0.0000
      6 C6          -6.9978 -27.1895 -29.0475 C.ar           1 RES1               0.0000
      7 C7          -9.3529 -26.8625 -29.2388 C.ar           1 RES1               0.0000
      8 N8          -5.8478 -24.6324 -27.0797 N.am           1 RES1               0.0000
      9 O9          -7.6739 -25.4687 -26.0585 O.2            1 RES1               0.0000
     10 N10         -5.9353 -23.6891 -29.2086 N.am           1 RES1               0.0000
     11 O11         -7.6970 -23.9497 -30.5805 O.2            1 RES1               0.0000
     12 C12         -9.1002 -22.8024 -27.4974 C.3            1 RES1               0.0000
     13 C13         -7.1409 -28.4877 -29.5085 C.ar           1 RES1               0.0000
     14 C14         -9.4938 -28.1609 -29.6999 C.ar           1 RES1               0.0000
     15 C15         -5.2149 -23.9240 -28.0693 C.2            1 RES1               0.0000
     16 C16         -8.3889 -28.9744 -29.8346 C.ar           1 RES1               0.0000
     17 O17         -4.0632 -23.5255 -27.9215 O.2            1 RES1               0.0000
     18 H18         -9.8216 -24.0927 -29.0479 H              1 RES1               0.0000
     19 H19         -9.8688 -24.8006 -27.4234 H              1 RES1               0.0000
     20 H20         -6.0075 -26.8232 -28.7982 H              1 RES1               0.0000
     21 H21        -10.2361 -26.2402 -29.1418 H              1 RES1               0.0000
     22 H22         -5.2882 -24.8957 -26.2748 H              1 RES1               0.0000
     23 H23         -5.4910 -23.1208 -29.9227 H              1 RES1               0.0000
     24 H24        -10.0683 -22.3375 -27.3230 H              1 RES1               0.0000
     25 H25         -8.5757 -22.8601 -26.5460 H              1 RES1               0.0000
     26 H26         -8.5288 -22.1565 -28.1608 H              1 RES1               0.0000
     27 H27         -6.2680 -29.1234 -29.6141 H              1 RES1               0.0000
     28 H28        -10.4778 -28.5396 -29.9559 H              1 RES1               0.0000
     29 H29         -8.5008 -29.9915 -30.1954 H              1 RES1               0.0000
@<TRIPOS>BOND
    1    1    2 1     
    2    1    3 1     
    3    1    4 1     
    4    1    5 1     
    5    2    6 ar    
    6    2    7 ar    
    7    3    8 1     
    8    3    9 2     
    9    4   10 1     
   10    4   11 2     
   11    5   12 1     
   12    5   18 1     
   13    5   19 1     
   14    6   13 ar    
   15    6   20 1     
   16    7   14 ar    
   17    7   21 1     
   18    8   15 1     
   19    8   22 1     
   20   10   15 1     
   21   10   23 1     
   22   12   24 1     
   23   12   25 1     
   24   12   26 1     
   25   13   16 ar    
   26   13   27 1     
   27   14   16 ar    
   28   14   28 1     
   29   15   17 2     
   30   16   29 1     
@<TRIPOS>SUBSTRUCTURE
      1 RES1           1
@<TRIPOS>SET
DONOR_HYDROGENS      STATIC     ATOMS    <user>   **** ""
2 22 23
ATOM$RED        STATIC     ATOMS    COLORGROUP SYSTEM
2 22 23
@<TRIPOS>COMMENT
> <Gold.Version>
2022.3.0

> <Gold.Id.Protein>
unknown|7kl0_clean|pdb

> <Gold.Protein.RotatedTorsions>
[ 1096 1086 1087 1088 ] final   14.37 input   77.66 | X-H torsion
[ 1116 1106 1107 1108 ] final  -39.92 input   75.39 | X-H torsion
[ 2209 2193 2194 2195 ] final  146.36 input  128.07 | X-H torsion
[ 2253 2229 2230 2231 ] final  150.73 input   94.48 | X-H torsion
[ 2733 2713 2714 2715 ] final  -54.93 input   74.45 | X-H torsion
[ 2762 2750 2751 2752 ] final -157.32 input  128.15 | X-H torsion
[ 2793 2774 2775 2776 ] final  108.08 input  106.68 | X-H torsion
[ 2827 2811 2812 2813 ] final  -40.66 input   64.81 | X-H torsion
[ 2857 2843 2844 2845 ] final   61.90 input   70.34 | X-H torsion
[  504  482  483  484 ] final   82.52 input   40.33 | X-H torsion
[  528  521  522  523 ] final  169.32 input   38.54 | X-H torsion
[  612  602  601  598 ] final   13.59 input   59.99 | X-H torsion
[  636  620  621  622 ] final  -70.46 input   33.60 | X-H torsion
[  668  652  653  654 ] final  161.46 input   67.24 | X-H torsion
[ 1152 1130 1131 1132 ] final  -46.55 input  101.11 | X-H torsion
[ 1162 1138 1137 1136 ] final  -96.12 input   59.97 | X-H torsion
[ 1189 1173 1174 1175 ] final  -68.45 input   74.99 | X-H torsion
[ 4769 4761 4762 4763 ] final -161.16 input -116.16 | X-H torsion
[ 4799 4788 4789 4790 ] final -179.63 input   84.75 | X-H torsion
[ 4825 4821 4822 4823 ] final  -58.30 input  114.67 | X-H torsion
[  760  736  737  738 ] final   73.31 input  123.93 | X-H torsion
[ 1072 1051 1052 1053 ] final -102.10 input   37.12 | X-H torsion
[ 2863 2849 2847 2844 ] final  159.83 input   59.99 | X-H torsion
[ 2875 2868 2869 2870 ] final -142.96 input   94.70 | X-H torsion
[ 2889 2882 2883 2884 ] final   37.49 input -101.73 | X-H torsion
[ 4743 4738 4739 4740 ] final -120.02 input   44.52 | X-H torsion
[  447  429  430  431 ] final   63.69 input   69.31 | X-H torsion
[  470  463  464  465 ] final  151.05 input   13.24 | X-H torsion
[  712  688  689  690 ] final  151.91 input   42.22 | X-H torsion
[ 2916 2901 2902 2903 ] final -139.02 input  112.69 | X-H torsion
[ 4310 4296 4297 4298 ] final   55.47 input   86.41 | X-H torsion
[ 4343 4324 4325 4326 ] final  -39.68 input   71.41 | X-H torsion
[ 4381 4362 4363 4364 ] final  -46.11 input   70.60 | X-H torsion
[ 4419 4400 4401 4402 ] final  106.77 input   92.71 | X-H torsion
[  790  779  780  781 ] final  173.41 input   42.63 | X-H torsion
[ 4847 4839 4840 4841 ] final  -54.79 input   74.58 | X-H torsion
[ 2649 2634 2635 2636 ] final -178.47 input   83.10 | X-H torsion
[ 2946 2930 2931 2932 ] final  134.85 input  126.41 | X-H torsion
[ 4496 4485 4484 4483 ] final  175.32 input   60.01 | X-H torsion
[ 8535  691  690  689 ] final    0.00 input    0.00 | X-H torsion
[ 8537 1054 1053 1052 ] final  129.37 input    0.00 | X-H torsion
[ 8540 1089 1088 1087 ] final   74.53 input    0.00 | X-H torsion
[ 8545 2232 2231 2230 ] final  -59.06 input    0.00 | X-H torsion
[ 8548 2716 2715 2714 ] final   36.56 input    0.00 | X-H torsion
[ 8551 2753 2752 2751 ] final   74.53 input    0.00 | X-H torsion
[ 8558 2777 2776 2775 ] final   90.00 input    0.00 | X-H torsion
[ 8561 2814 2813 2812 ] final  105.47 input    0.00 | X-H torsion
[ 8564  466  465  464 ] final  132.19 input   -0.00 | X-H torsion
[ 8567  485  484  483 ] final  -52.03 input    0.00 | X-H torsion
[ 8573  623  622  621 ] final -137.81 input    0.00 | X-H torsion
[ 8576 1109 1108 1107 ] final -127.97 input   -0.00 | X-H torsion
[ 8579 1133 1132 1131 ] final   99.84 input    0.00 | X-H torsion
[ 8586 2637 2636 2635 ] final  127.97 input    0.00 | X-H torsion
[ 8588 4741 4740 4739 ] final  146.25 input    0.00 | X-H torsion
[ 8591 4764 4763 4762 ] final   56.25 input    0.00 | X-H torsion
[ 8600 1021 1020 1019 ] final   47.81 input    0.00 | X-H torsion
[ 8603 2846 2845 2844 ] final -129.37 input   -0.00 | X-H torsion
[ 8609 4403 4402 4401 ] final  167.34 input    0.00 | X-H torsion
[ 8612 4791 4790 4789 ] final  -68.91 input    0.00 | X-H torsion
[ 8615  432  431  430 ] final  -66.09 input    0.00 | X-H torsion
[ 8618  655  654  653 ] final  -73.12 input    0.00 | X-H torsion
[ 8626 4270 4269 4268 ] final -127.97 input    0.00 | X-H torsion
[ 8628 2885 2884 2883 ] final   50.62 input    0.00 | X-H torsion
[ 8633 4299 4298 4297 ] final   91.41 input    0.00 | X-H torsion
[ 8636 4327 4326 4325 ] final  109.69 input    0.00 | X-H torsion
[ 8639 2196 2195 2194 ] final   84.37 input    0.00 | X-H torsion
[ 8641 4706 4705 4704 ] final  -66.09 input    0.00 | X-H torsion
[ 8647  403  402  401 ] final  -37.97 input    0.00 | X-H torsion
[ 8651 2871 2870 2869 ] final  102.66 input    0.00 | X-H torsion
[ 8653 2904 2903 2902 ] final  -43.59 input    0.00 | X-H torsion
[ 8655 4663 4662 4661 ] final -102.66 input    0.00 | X-H torsion

> <Gold.Protein.ActiveResidues>
 GLU18   LEU19   GLY20   LYS21   GLY22   SER25   VAL26   VAL27   ARG28   ARG29  
 CYS30   GLU38   TYR39   ALA40   ALA41   LYS42   ILE43   ILE44   GLU60   CYS64  
 VAL73   ARG74   LEU75   LEU87   ILE88   PHE89   ASP90   LEU91   VAL92   THR93  
 GLY94   GLY95   GLU96   LEU97   GLU99   GLU139  ASN140  LEU141  LEU142  LEU143 
 LYS146  LYS153  LEU154  ALA155  ASP156  PHE157  GLY158  LEU159 

> <Gold.Protein.RotatedAtoms>
   -6.7195  -27.5629  -22.0320 H   0  0  0  0  0  0  0  0  0  0  0  0  # atno 447  bound_to 429 
   -5.9839  -25.7833  -23.9539 H   0  0  0  0  0  0  0  0  0  0  0  0  # atno 470  bound_to 463 
   -6.3178  -21.5097  -22.4272 H   0  0  0  0  0  0  0  0  0  0  0  0  # atno 504  bound_to 482 
   -9.5655  -20.1910  -21.6447 H   0  0  0  0  0  0  0  0  0  0  0  0  # atno 528  bound_to 521 
  -12.5171  -20.2906  -20.9919 H   0  0  0  0  0  0  0  0  0  0  0  0  # atno 612  bound_to 602 
  -12.4486  -22.4927  -20.3227 H   0  0  0  0  0  0  0  0  0  0  0  0  # atno 636  bound_to 620 
  -10.5361  -24.3771  -21.8999 H   0  0  0  0  0  0  0  0  0  0  0  0  # atno 668  bound_to 652 
  -10.3572  -28.0841  -21.5099 H   0  0  0  0  0  0  0  0  0  0  0  0  # atno 712  bound_to 688 
   -8.0674  -31.8902  -22.0080 H   0  0  0  0  0  0  0  0  0  0  0  0  # atno 760  bound_to 736 
  -10.5996  -33.8205  -22.8178 H   0  0  0  0  0  0  0  0  0  0  0  0  # atno 790  bound_to 779 
  -11.1843  -36.6613  -27.7956 H   0  0  0  0  0  0  0  0  0  0  0  0  # atno 1072 bound_to 1051
  -12.8128  -32.7433  -27.6186 H   0  0  0  0  0  0  0  0  0  0  0  0  # atno 1096 bound_to 1086
  -12.4354  -29.9372  -25.4730 H   0  0  0  0  0  0  0  0  0  0  0  0  # atno 1116 bound_to 1106
  -14.4362  -28.3354  -23.6396 H   0  0  0  0  0  0  0  0  0  0  0  0  # atno 1152 bound_to 1130
  -15.6382  -19.7924  -25.8579 H   0  0  0  0  0  0  0  0  0  0  0  0  # atno 1162 bound_to 1138
  -16.9254  -20.6811  -25.3099 H   0  0  0  0  0  0  0  0  0  0  0  0  # atno 1163 bound_to 1138
  -16.2543  -19.5120  -24.3460 H   0  0  0  0  0  0  0  0  0  0  0  0  # atno 1164 bound_to 1138
  -15.5956  -25.7187  -22.0514 H   0  0  0  0  0  0  0  0  0  0  0  0  # atno 1189 bound_to 1173
  -12.6268  -25.9884  -37.3680 H   0  0  0  0  0  0  0  0  0  0  0  0  # atno 2209 bound_to 2193
  -14.7857  -29.5532  -36.7734 H   0  0  0  0  0  0  0  0  0  0  0  0  # atno 2253 bound_to 2229
  -19.6266  -26.9593  -23.8726 H   0  0  0  0  0  0  0  0  0  0  0  0  # atno 2649 bound_to 2634
  -16.3605  -31.4193  -28.5871 H   0  0  0  0  0  0  0  0  0  0  0  0  # atno 2733 bound_to 2713
  -15.2625  -32.2045  -31.7980 H   0  0  0  0  0  0  0  0  0  0  0  0  # atno 2762 bound_to 2750
  -11.4701  -34.4125  -31.5936 H   0  0  0  0  0  0  0  0  0  0  0  0  # atno 2793 bound_to 2774
   -7.9317  -32.5150  -31.8536 H   0  0  0  0  0  0  0  0  0  0  0  0  # atno 2827 bound_to 2811
   -5.0894  -32.1027  -34.6111 H   0  0  0  0  0  0  0  0  0  0  0  0  # atno 2857 bound_to 2843
   -3.1019  -35.0476  -34.8171 H   0  0  0  0  0  0  0  0  0  0  0  0  # atno 2863 bound_to 2849
   -2.6359  -31.9343  -34.4431 H   0  0  0  0  0  0  0  0  0  0  0  0  # atno 2875 bound_to 2868
   -1.5684  -28.5112  -34.4720 H   0  0  0  0  0  0  0  0  0  0  0  0  # atno 2889 bound_to 2882
   -2.1366  -25.3513  -32.6101 H   0  0  0  0  0  0  0  0  0  0  0  0  # atno 2916 bound_to 2901
   -2.5085  -22.7482  -36.0015 H   0  0  0  0  0  0  0  0  0  0  0  0  # atno 2946 bound_to 2930
   -5.4887  -18.5558  -34.5853 H   0  0  0  0  0  0  0  0  0  0  0  0  # atno 4310 bound_to 4296
   -6.3966  -21.0161  -34.8574 H   0  0  0  0  0  0  0  0  0  0  0  0  # atno 4343 bound_to 4324
   -5.5180  -23.5781  -37.2365 H   0  0  0  0  0  0  0  0  0  0  0  0  # atno 4381 bound_to 4362
   -3.0898  -26.5487  -36.3142 H   0  0  0  0  0  0  0  0  0  0  0  0  # atno 4419 bound_to 4400
   -0.1610  -34.6595  -32.0860 H   0  0  0  0  0  0  0  0  0  0  0  0  # atno 4496 bound_to 4485
    0.2423  -33.0906  -31.7366 H   0  0  0  0  0  0  0  0  0  0  0  0  # atno 4497 bound_to 4485
   -0.1143  -33.5265  -33.2949 H   0  0  0  0  0  0  0  0  0  0  0  0  # atno 4498 bound_to 4485
  -11.6008  -22.6966  -36.5533 H   0  0  0  0  0  0  0  0  0  0  0  0  # atno 4743 bound_to 4738
  -12.2506  -22.3561  -32.1669 H   0  0  0  0  0  0  0  0  0  0  0  0  # atno 4769 bound_to 4761
  -14.5487  -20.1866  -32.8757 H   0  0  0  0  0  0  0  0  0  0  0  0  # atno 4799 bound_to 4788
  -16.6750  -17.9433  -31.1595 H   0  0  0  0  0  0  0  0  0  0  0  0  # atno 4825 bound_to 4821
  -17.0637  -15.7967  -30.2535 H   0  0  0  0  0  0  0  0  0  0  0  0  # atno 4847 bound_to 4839
  -11.4461  -30.5557  -22.9559 LP  0  0  0  0  0  0  0  0  0  0  0  0  # atno 8535 bound_to 691 
  -10.9384  -31.9789  -23.8025 LP  0  0  0  0  0  0  0  0  0  0  0  0  # atno 8536 bound_to 691 
  -10.0538  -33.7857  -25.8295 LP  0  0  0  0  0  0  0  0  0  0  0  0  # atno 8537 bound_to 1054
  -11.3633  -34.7117  -25.1754 LP  0  0  0  0  0  0  0  0  0  0  0  0  # atno 8538 bound_to 1054
  -11.1318  -33.2556  -27.5698 LP  0  0  0  0  0  0  0  0  0  0  0  0  # atno 8539 bound_to 1086
  -14.2733  -31.0760  -27.4803 LP  0  0  0  0  0  0  0  0  0  0  0  0  # atno 8540 bound_to 1089
  -13.8713  -29.4079  -27.2437 LP  0  0  0  0  0  0  0  0  0  0  0  0  # atno 8541 bound_to 1089
  -12.7286  -31.4870  -24.7020 LP  0  0  0  0  0  0  0  0  0  0  0  0  # atno 8542 bound_to 1106
  -13.9532  -26.7966  -38.1850 LP  0  0  0  0  0  0  0  0  0  0  0  0  # atno 8543 bound_to 2193
  -14.8785  -28.6126  -35.3005 LP  0  0  0  0  0  0  0  0  0  0  0  0  # atno 8544 bound_to 2229
  -15.9229  -31.1977  -33.6327 LP  0  0  0  0  0  0  0  0  0  0  0  0  # atno 8545 bound_to 2232
  -15.7914  -29.7035  -32.7666 LP  0  0  0  0  0  0  0  0  0  0  0  0  # atno 8546 bound_to 2232
  -15.7154  -29.8514  -28.1340 LP  0  0  0  0  0  0  0  0  0  0  0  0  # atno 8547 bound_to 2713
  -14.3567  -32.4098  -28.7385 LP  0  0  0  0  0  0  0  0  0  0  0  0  # atno 8548 bound_to 2716
  -12.9667  -32.6476  -29.7442 LP  0  0  0  0  0  0  0  0  0  0  0  0  # atno 8549 bound_to 2716
  -14.0260  -31.0021  -31.4968 LP  0  0  0  0  0  0  0  0  0  0  0  0  # atno 8550 bound_to 2750
  -12.0959  -30.8206  -30.6707 LP  0  0  0  0  0  0  0  0  0  0  0  0  # atno 8551 bound_to 2753
  -11.0808  -30.7091  -32.0696 LP  0  0  0  0  0  0  0  0  0  0  0  0  # atno 8552 bound_to 2753
  -11.6706  -32.6732  -31.7065 LP  0  0  0  0  0  0  0  0  0  0  0  0  # atno 8557 bound_to 2774
   -9.9299  -33.2535  -34.1036 LP  0  0  0  0  0  0  0  0  0  0  0  0  # atno 8558 bound_to 2777
   -8.6047  -34.3050  -33.7317 LP  0  0  0  0  0  0  0  0  0  0  0  0  # atno 8559 bound_to 2777
   -9.1385  -31.3148  -32.2751 LP  0  0  0  0  0  0  0  0  0  0  0  0  # atno 8560 bound_to 2811
   -5.6052  -31.1510  -31.0674 LP  0  0  0  0  0  0  0  0  0  0  0  0  # atno 8561 bound_to 2814
   -5.6856  -29.6631  -31.9504 LP  0  0  0  0  0  0  0  0  0  0  0  0  # atno 8562 bound_to 2814
   -5.7310  -31.5789  -33.0664 LP  0  0  0  0  0  0  0  0  0  0  0  0  # atno 8563 bound_to 2843
   -7.4424  -23.7782  -20.2448 LP  0  0  0  0  0  0  0  0  0  0  0  0  # atno 8564 bound_to 466 
   -8.0410  -24.7905  -21.5164 LP  0  0  0  0  0  0  0  0  0  0  0  0  # atno 8565 bound_to 466 
   -7.5725  -22.7372  -22.3940 LP  0  0  0  0  0  0  0  0  0  0  0  0  # atno 8566 bound_to 482 
   -7.3797  -19.1570  -22.7604 LP  0  0  0  0  0  0  0  0  0  0  0  0  # atno 8567 bound_to 485 
   -8.9573  -19.4186  -23.4258 LP  0  0  0  0  0  0  0  0  0  0  0  0  # atno 8568 bound_to 485 
   -9.3585  -19.7487  -19.9557 LP  0  0  0  0  0  0  0  0  0  0  0  0  # atno 8569 bound_to 521 
  -13.8082  -19.5385  -21.6367 LP  0  0  0  0  0  0  0  0  0  0  0  0  # atno 8570 bound_to 602 
  -13.2239  -20.8989  -22.3256 LP  0  0  0  0  0  0  0  0  0  0  0  0  # atno 8571 bound_to 602 
  -12.8896  -23.2741  -18.8118 LP  0  0  0  0  0  0  0  0  0  0  0  0  # atno 8572 bound_to 620 
  -12.6693  -26.2400  -21.2991 LP  0  0  0  0  0  0  0  0  0  0  0  0  # atno 8573 bound_to 623 
  -13.1941  -24.6106  -21.0351 LP  0  0  0  0  0  0  0  0  0  0  0  0  # atno 8574 bound_to 623 
   -9.9352  -25.5121  -20.7096 LP  0  0  0  0  0  0  0  0  0  0  0  0  # atno 8575 bound_to 652 
  -13.0550  -27.8083  -22.1035 LP  0  0  0  0  0  0  0  0  0  0  0  0  # atno 8576 bound_to 1109
  -12.0000  -28.7446  -23.1086 LP  0  0  0  0  0  0  0  0  0  0  0  0  # atno 8577 bound_to 1109
  -14.6546  -27.6395  -25.2326 LP  0  0  0  0  0  0  0  0  0  0  0  0  # atno 8578 bound_to 1130
  -17.1800  -27.5214  -22.5001 LP  0  0  0  0  0  0  0  0  0  0  0  0  # atno 8579 bound_to 1133
  -17.4836  -25.8665  -22.9114 LP  0  0  0  0  0  0  0  0  0  0  0  0  # atno 8580 bound_to 1133
  -14.1611  -26.3844  -21.2917 LP  0  0  0  0  0  0  0  0  0  0  0  0  # atno 8581 bound_to 1173
  -16.1646  -29.1692  -25.4849 LP  0  0  0  0  0  0  0  0  0  0  0  0  # atno 8586 bound_to 2637
  -16.3061  -27.6361  -26.2784 LP  0  0  0  0  0  0  0  0  0  0  0  0  # atno 8587 bound_to 2637
  -12.1216  -19.3860  -34.0144 LP  0  0  0  0  0  0  0  0  0  0  0  0  # atno 8588 bound_to 4741
  -10.6858  -20.1365  -34.6269 LP  0  0  0  0  0  0  0  0  0  0  0  0  # atno 8589 bound_to 4741
  -12.7192  -21.2992  -33.4923 LP  0  0  0  0  0  0  0  0  0  0  0  0  # atno 8590 bound_to 4761
  -12.5473  -18.2025  -33.1046 LP  0  0  0  0  0  0  0  0  0  0  0  0  # atno 8591 bound_to 4764
  -13.6803  -17.3943  -32.0735 LP  0  0  0  0  0  0  0  0  0  0  0  0  # atno 8592 bound_to 4764
  -14.8405  -19.7484  -31.1968 LP  0  0  0  0  0  0  0  0  0  0  0  0  # atno 8597 bound_to 4788
  -15.2004  -18.4274  -30.3432 LP  0  0  0  0  0  0  0  0  0  0  0  0  # atno 8598 bound_to 4821
   -8.9972  -31.1690  -23.3049 LP  0  0  0  0  0  0  0  0  0  0  0  0  # atno 8599 bound_to 736 
  -12.4180  -38.0412  -29.5978 LP  0  0  0  0  0  0  0  0  0  0  0  0  # atno 8600 bound_to 1021
  -11.5877  -36.5341  -29.7955 LP  0  0  0  0  0  0  0  0  0  0  0  0  # atno 8601 bound_to 1021
  -12.1135  -36.6180  -26.3063 LP  0  0  0  0  0  0  0  0  0  0  0  0  # atno 8602 bound_to 1051
   -0.9054  -31.2001  -32.5058 LP  0  0  0  0  0  0  0  0  0  0  0  0  # atno 8603 bound_to 2846
   -1.1777  -32.9034  -32.6631 LP  0  0  0  0  0  0  0  0  0  0  0  0  # atno 8604 bound_to 2846
   -2.9796  -33.4397  -35.0357 LP  0  0  0  0  0  0  0  0  0  0  0  0  # atno 8605 bound_to 2849
   -4.4482  -34.1529  -35.0045 LP  0  0  0  0  0  0  0  0  0  0  0  0  # atno 8606 bound_to 2849
   -3.3370  -30.3572  -34.1589 LP  0  0  0  0  0  0  0  0  0  0  0  0  # atno 8607 bound_to 2868
   -2.2162  -29.2457  -33.0203 LP  0  0  0  0  0  0  0  0  0  0  0  0  # atno 8608 bound_to 2882
   -4.4495  -30.3261  -36.2715 LP  0  0  0  0  0  0  0  0  0  0  0  0  # atno 8609 bound_to 4403
   -3.3712  -29.0320  -35.8684 LP  0  0  0  0  0  0  0  0  0  0  0  0  # atno 8610 bound_to 4403
  -10.2598  -21.7584  -35.9180 LP  0  0  0  0  0  0  0  0  0  0  0  0  # atno 8611 bound_to 4738
  -18.2101  -16.9716  -32.1828 LP  0  0  0  0  0  0  0  0  0  0  0  0  # atno 8612 bound_to 4791
  -18.7340  -18.1848  -31.0631 LP  0  0  0  0  0  0  0  0  0  0  0  0  # atno 8613 bound_to 4791
   -5.1827  -28.2698  -21.5683 LP  0  0  0  0  0  0  0  0  0  0  0  0  # atno 8614 bound_to 429 
   -3.4607  -25.6000  -24.5070 LP  0  0  0  0  0  0  0  0  0  0  0  0  # atno 8615 bound_to 432 
   -4.8042  -25.0862  -25.4719 LP  0  0  0  0  0  0  0  0  0  0  0  0  # atno 8616 bound_to 432 
   -6.1099  -25.7070  -22.2057 LP  0  0  0  0  0  0  0  0  0  0  0  0  # atno 8617 bound_to 463 
   -7.6370  -27.0785  -22.4203 LP  0  0  0  0  0  0  0  0  0  0  0  0  # atno 8618 bound_to 655 
   -8.1457  -27.3803  -20.7924 LP  0  0  0  0  0  0  0  0  0  0  0  0  # atno 8619 bound_to 655 
  -10.2322  -28.6566  -23.1607 LP  0  0  0  0  0  0  0  0  0  0  0  0  # atno 8620 bound_to 688 
   -0.4371  -25.1055  -32.9470 LP  0  0  0  0  0  0  0  0  0  0  0  0  # atno 8623 bound_to 2901
   -5.4179  -21.4085  -32.8240 LP  0  0  0  0  0  0  0  0  0  0  0  0  # atno 8626 bound_to 4270
   -4.9204  -20.6174  -31.3657 LP  0  0  0  0  0  0  0  0  0  0  0  0  # atno 8627 bound_to 4270
   -2.9919  -26.6220  -34.8740 LP  0  0  0  0  0  0  0  0  0  0  0  0  # atno 8628 bound_to 2885
   -1.7163  -25.6307  -35.4985 LP  0  0  0  0  0  0  0  0  0  0  0  0  # atno 8629 bound_to 2885
   -5.4194  -19.0795  -32.9089 LP  0  0  0  0  0  0  0  0  0  0  0  0  # atno 8632 bound_to 4296
   -9.1259  -20.5433  -35.9873 LP  0  0  0  0  0  0  0  0  0  0  0  0  # atno 8633 bound_to 4299
   -8.7542  -21.8337  -34.8934 LP  0  0  0  0  0  0  0  0  0  0  0  0  # atno 8634 bound_to 4299
   -6.2592  -19.7006  -36.0078 LP  0  0  0  0  0  0  0  0  0  0  0  0  # atno 8635 bound_to 4324
   -3.9852  -22.7112  -35.0678 LP  0  0  0  0  0  0  0  0  0  0  0  0  # atno 8636 bound_to 4327
   -3.5052  -22.3434  -36.6908 LP  0  0  0  0  0  0  0  0  0  0  0  0  # atno 8637 bound_to 4327
   -6.7590  -23.7128  -36.0072 LP  0  0  0  0  0  0  0  0  0  0  0  0  # atno 8638 bound_to 4362
  -16.1781  -26.6062  -36.7397 LP  0  0  0  0  0  0  0  0  0  0  0  0  # atno 8639 bound_to 2196
  -16.0847  -26.7067  -35.0131 LP  0  0  0  0  0  0  0  0  0  0  0  0  # atno 8640 bound_to 2196
  -13.1447  -23.8161  -37.3728 LP  0  0  0  0  0  0  0  0  0  0  0  0  # atno 8641 bound_to 4706
  -12.0623  -24.7655  -36.4100 LP  0  0  0  0  0  0  0  0  0  0  0  0  # atno 8642 bound_to 4706
   -3.1653  -28.4608  -20.6189 LP  0  0  0  0  0  0  0  0  0  0  0  0  # atno 8647 bound_to 403 
   -3.4602  -29.0224  -22.2306 LP  0  0  0  0  0  0  0  0  0  0  0  0  # atno 8648 bound_to 403 
    0.1038  -27.6827  -35.3469 LP  0  0  0  0  0  0  0  0  0  0  0  0  # atno 8651 bound_to 2871
    0.9665  -28.8575  -34.4111 LP  0  0  0  0  0  0  0  0  0  0  0  0  # atno 8652 bound_to 2871
    0.8886  -23.3455  -34.1591 LP  0  0  0  0  0  0  0  0  0  0  0  0  # atno 8653 bound_to 2904
    0.6949  -24.0857  -35.7130 LP  0  0  0  0  0  0  0  0  0  0  0  0  # atno 8654 bound_to 2904
   -8.9648  -24.5191  -36.5181 LP  0  0  0  0  0  0  0  0  0  0  0  0  # atno 8655 bound_to 4663
   -7.6843  -24.0025  -37.5638 LP  0  0  0  0  0  0  0  0  0  0  0  0  # atno 8656 bound_to 4663
   -4.6981  -26.5304  -37.0138 LP  0  0  0  0  0  0  0  0  0  0  0  0  # atno 8657 bound_to 4400

> <Gold.Score>
     Fitness  S(hb_ext) S(vdw_ext)  S(hb_int)    S(int)      intcor
     32.01       6.39      18.67       0.00      -0.06      -0.76

> <Gold.Goldscore.Fitness>
32.0078

> <Gold.Goldscore.Internal.Vdw>
-0.4227

> <Gold.Goldscore.Internal.Torsion>
-0.3972

> <Gold.Goldscore.External.Vdw>
18.6729

> <Gold.Goldscore.Internal.HBond>
0.0000

> <Gold.Goldscore.External.HBond>
6.3940

> <Gold.Goldscore.Internal.Correction>
-0.7585

> <Gold.Goldscore.Hbonds>
donor molecule, donor type, donor heavy atom, donor atom, acceptor molecule, acceptor atom, score
      P1  H   481   498       L1    17  0.73
      L1  H     8    22       P1   432  1.00

> <Gold.Goldscore.Internal.Vdw.Weighted>
-0.4227

> <Gold.Goldscore.Internal.Torsion.Weighted>
-0.3972

> <Gold.Goldscore.External.Vdw.Weighted>
25.6752

> <Gold.Goldscore.Internal.HBond.Weighted>
0.0000

> <Gold.Goldscore.External.HBond.Weighted>
6.3940

> <Gold.Goldscore.Internal.Correction.Weighted>
-0.7585

> <Gold.Rescore>
     Score     S(PLP)   S(hbond)     S(cho)   S(metal)  DE(clash)   DE(tors)     intcor
     29.31     -24.23       1.80       0.00       0.00       0.00       0.16       ----

> <Gold.PLP.Fitness>
29.3088

> <Gold.PLP.PLP>
-24.2314

> <Gold.PLP.part.hbond>
-1.9688

> <Gold.PLP.part.metal>
0.0000

> <Gold.PLP.part.buried>
-1.8501

> <Gold.PLP.part.nonpolar>
-22.2869

> <Gold.PLP.part.repulsive>
0.3664

> <Gold.PLP.ligand.clash>
0.0000

> <Gold.PLP.ligand.torsion>
0.1614

> <Gold.PLP.Chemscore.Hbond>
1.8001

> <Gold.PLP.Chemscore.CHOScore>
0.0000

> <Gold.PLP.Chemscore.Metal>
0.0000

> <Gold.Chemscore.Hbonds>
donor molecule, donor type, donor heavy atom, donor atom, acceptor molecule, acceptor atom, score
      L1  H     8    22       P1   432  1.00
      P1  H   481   498       L1    17  0.19

> <Gold.PLP.Chemscore.Internal.Correction>
   9.000000E+99

