#       Name:                CT1002167954
#       Creating user name   hitesit
#       Creation time:       Sun Apr 16 02:22:16 2023


#       File generated by GOLD software.
#

@<TRIPOS>MOLECULE
CT1002167954|ligand_prepared|mol2|1|dock3
    29    30     1
SMALL
NO_CHARGES


@<TRIPOS>ATOM
      1 C1          -5.4850 -25.8319 -28.9394 C.3            1 RES1               0.0000
      2 C2          -6.1655 -27.2042 -29.1201 C.ar           1 RES1               0.0000
      3 C3          -5.3740 -25.6036 -27.4348 C.2            1 RES1               0.0000
      4 C4          -4.1421 -25.9242 -29.6554 C.2            1 RES1               0.0000
      5 C5          -6.2763 -24.6558 -29.5576 C.3            1 RES1               0.0000
      6 C6          -7.5464 -27.2965 -29.2667 C.ar           1 RES1               0.0000
      7 C7          -5.4268 -28.3841 -29.1449 C.ar           1 RES1               0.0000
      8 N8          -4.1404 -25.7264 -26.8664 N.am           1 RES1               0.0000
      9 O9          -6.3603 -25.3585 -26.7512 O.2            1 RES1               0.0000
     10 N10         -3.0034 -25.8492 -28.8967 N.am           1 RES1               0.0000
     11 O11         -4.0598 -26.0777 -30.8678 O.2            1 RES1               0.0000
     12 C12         -5.4770 -23.3664 -29.6614 C.3            1 RES1               0.0000
     13 C13         -8.1661 -28.5237 -29.4350 C.ar           1 RES1               0.0000
     14 C14         -6.0486 -29.6103 -29.3131 C.ar           1 RES1               0.0000
     15 C15         -2.9420 -25.7854 -27.5313 C.2            1 RES1               0.0000
     16 C16         -7.4177 -29.6812 -29.4587 C.ar           1 RES1               0.0000
     17 O17         -1.8790 -25.7761 -26.9172 O.2            1 RES1               0.0000
     18 H18         -6.6120 -24.9449 -30.5611 H              1 RES1               0.0000
     19 H19         -7.1680 -24.4701 -28.9462 H              1 RES1               0.0000
     20 H20         -8.1520 -26.3965 -29.2481 H              1 RES1               0.0000
     21 H21         -4.3486 -28.3525 -29.0312 H              1 RES1               0.0000
     22 H22         -4.1057 -25.7793 -25.8534 H              1 RES1               0.0000
     23 H23         -2.1197 -25.8401 -29.3961 H              1 RES1               0.0000
     24 H24         -6.0787 -22.5740 -30.1015 H              1 RES1               0.0000
     25 H25         -5.1483 -23.0361 -28.6782 H              1 RES1               0.0000
     26 H26         -4.5956 -23.5081 -30.2835 H              1 RES1               0.0000
     27 H27         -9.2440 -28.5742 -29.5478 H              1 RES1               0.0000
     28 H28         -5.4557 -30.5189 -29.3306 H              1 RES1               0.0000
     29 H29         -7.9034 -30.6424 -29.5910 H              1 RES1               0.0000
@<TRIPOS>BOND
    1    1    2 1     
    2    1    3 1     
    3    1    4 1     
    4    1    5 1     
    5    2    6 ar    
    6    2    7 ar    
    7    3    8 1     
    8    3    9 2     
    9    4   10 1     
   10    4   11 2     
   11    5   12 1     
   12    5   18 1     
   13    5   19 1     
   14    6   13 ar    
   15    6   20 1     
   16    7   14 ar    
   17    7   21 1     
   18    8   15 1     
   19    8   22 1     
   20   10   15 1     
   21   10   23 1     
   22   12   24 1     
   23   12   25 1     
   24   12   26 1     
   25   13   16 ar    
   26   13   27 1     
   27   14   16 ar    
   28   14   28 1     
   29   15   17 2     
   30   16   29 1     
@<TRIPOS>SUBSTRUCTURE
      1 RES1           1
@<TRIPOS>SET
DONOR_HYDROGENS      STATIC     ATOMS    <user>   **** ""
2 22 23
ATOM$RED        STATIC     ATOMS    COLORGROUP SYSTEM
2 22 23
@<TRIPOS>COMMENT
> <Gold.Version>
2022.3.0

> <Gold.Id.Protein>
unknown|7kl0_clean|pdb

> <Gold.Protein.RotatedTorsions>
[ 1096 1086 1087 1088 ] final   99.15 input   77.66 | X-H torsion
[ 1116 1106 1107 1108 ] final   74.37 input   75.39 | X-H torsion
[ 2209 2193 2194 2195 ] final   15.83 input  128.07 | X-H torsion
[ 2253 2229 2230 2231 ] final -152.77 input   94.48 | X-H torsion
[ 2733 2713 2714 2715 ] final  -30.82 input   74.45 | X-H torsion
[ 2762 2750 2751 2752 ] final  -51.71 input  128.15 | X-H torsion
[ 2793 2774 2775 2776 ] final  115.24 input  106.68 | X-H torsion
[ 2827 2811 2812 2813 ] final  -86.20 input   64.81 | X-H torsion
[ 2857 2843 2844 2845 ] final -146.09 input   70.34 | X-H torsion
[  504  482  483  484 ] final  -72.05 input   40.33 | X-H torsion
[  528  521  522  523 ] final  179.43 input   38.54 | X-H torsion
[  612  602  601  598 ] final   18.03 input   59.99 | X-H torsion
[  636  620  621  622 ] final -153.27 input   33.60 | X-H torsion
[  668  652  653  654 ] final  137.69 input   67.24 | X-H torsion
[ 1152 1130 1131 1132 ] final -158.82 input  101.11 | X-H torsion
[ 1162 1138 1137 1136 ] final   23.61 input   59.97 | X-H torsion
[ 1189 1173 1174 1175 ] final  160.92 input   74.99 | X-H torsion
[ 4769 4761 4762 4763 ] final   68.14 input -116.16 | X-H torsion
[ 4799 4788 4789 4790 ] final -175.30 input   84.75 | X-H torsion
[ 4825 4821 4822 4823 ] final    7.85 input  114.67 | X-H torsion
[  760  736  737  738 ] final   76.26 input  123.93 | X-H torsion
[ 1072 1051 1052 1053 ] final   54.12 input   37.12 | X-H torsion
[ 2863 2849 2847 2844 ] final -164.88 input   59.99 | X-H torsion
[ 2875 2868 2869 2870 ] final  -90.81 input   94.70 | X-H torsion
[ 2889 2882 2883 2884 ] final  148.72 input -101.73 | X-H torsion
[ 4743 4738 4739 4740 ] final   -7.45 input   44.52 | X-H torsion
[  447  429  430  431 ] final  179.07 input   69.31 | X-H torsion
[  470  463  464  465 ] final  142.14 input   13.24 | X-H torsion
[  712  688  689  690 ] final    5.67 input   42.22 | X-H torsion
[ 2916 2901 2902 2903 ] final  165.49 input  112.69 | X-H torsion
[ 4310 4296 4297 4298 ] final   37.28 input   86.41 | X-H torsion
[ 4343 4324 4325 4326 ] final  -97.27 input   71.41 | X-H torsion
[ 4381 4362 4363 4364 ] final  -72.91 input   70.60 | X-H torsion
[ 4419 4400 4401 4402 ] final  151.68 input   92.71 | X-H torsion
[  790  779  780  781 ] final   69.23 input   42.63 | X-H torsion
[ 4847 4839 4840 4841 ] final -171.64 input   74.58 | X-H torsion
[ 2649 2634 2635 2636 ] final    2.88 input   83.10 | X-H torsion
[ 2946 2930 2931 2932 ] final   94.03 input  126.41 | X-H torsion
[ 4496 4485 4484 4483 ] final   99.39 input   60.01 | X-H torsion
[ 8535  691  690  689 ] final   23.89 input    0.00 | X-H torsion
[ 8537 1054 1053 1052 ] final  132.14 input    0.00 | X-H torsion
[ 8540 1089 1088 1087 ] final  129.35 input    0.00 | X-H torsion
[ 8545 2232 2231 2230 ] final   46.32 input    0.00 | X-H torsion
[ 8548 2716 2715 2714 ] final -158.94 input    0.00 | X-H torsion
[ 8551 2753 2752 2751 ] final  -14.07 input    0.00 | X-H torsion
[ 8558 2777 2776 2775 ] final   36.53 input    0.00 | X-H torsion
[ 8561 2814 2813 2812 ] final   91.42 input    0.00 | X-H torsion
[ 8564  466  465  464 ] final -164.54 input   -0.00 | X-H torsion
[ 8567  485  484  483 ] final    1.46 input    0.00 | X-H torsion
[ 8573  623  622  621 ] final  125.07 input    0.00 | X-H torsion
[ 8576 1109 1108 1107 ] final  -46.58 input   -0.00 | X-H torsion
[ 8579 1133 1132 1131 ] final -170.46 input    0.00 | X-H torsion
[ 8586 2637 2636 2635 ] final   63.10 input    0.00 | X-H torsion
[ 8588 4741 4740 4739 ] final  -40.96 input    0.00 | X-H torsion
[ 8591 4764 4763 4762 ] final   33.56 input    0.00 | X-H torsion
[ 8600 1021 1020 1019 ] final  -55.04 input    0.00 | X-H torsion
[ 8603 2846 2845 2844 ] final  -81.77 input   -0.00 | X-H torsion
[ 8609 4403 4402 4401 ] final  -60.69 input    0.00 | X-H torsion
[ 8612 4791 4790 4789 ] final  -12.89 input    0.00 | X-H torsion
[ 8615  432  431  430 ] final -137.16 input    0.00 | X-H torsion
[ 8618  655  654  653 ] final  -79.05 input    0.00 | X-H torsion
[ 8626 4270 4269 4268 ] final   50.26 input    0.00 | X-H torsion
[ 8628 2885 2884 2883 ] final   23.60 input    0.00 | X-H torsion
[ 8633 4299 4298 4297 ] final -150.78 input    0.00 | X-H torsion
[ 8636 4327 4326 4325 ] final -176.05 input    0.00 | X-H torsion
[ 8639 2196 2195 2194 ] final  174.10 input    0.00 | X-H torsion
[ 8641 4706 4705 4704 ] final   37.64 input    0.00 | X-H torsion
[ 8647  403  402  401 ] final  133.04 input    0.00 | X-H torsion
[ 8651 2871 2870 2869 ] final   67.33 input    0.00 | X-H torsion
[ 8653 2904 2903 2902 ] final  126.23 input    0.00 | X-H torsion
[ 8655 4663 4662 4661 ] final -103.17 input    0.00 | X-H torsion

> <Gold.Protein.ActiveResidues>
 GLU18   LEU19   GLY20   LYS21   GLY22   SER25   VAL26   VAL27   ARG28   ARG29  
 CYS30   GLU38   TYR39   ALA40   ALA41   LYS42   ILE43   ILE44   GLU60   CYS64  
 VAL73   ARG74   LEU75   LEU87   ILE88   PHE89   ASP90   LEU91   VAL92   THR93  
 GLY94   GLY95   GLU96   LEU97   GLU99   GLU139  ASN140  LEU141  LEU142  LEU143 
 LYS146  LYS153  LEU154  ALA155  ASP156  PHE157  GLY158  LEU159 

> <Gold.Protein.RotatedAtoms>
   -5.8376  -28.7952  -21.9883 H   0  0  0  0  0  0  0  0  0  0  0  0  # atno 447  bound_to 429 
   -6.1227  -25.7960  -23.9525 H   0  0  0  0  0  0  0  0  0  0  0  0  # atno 470  bound_to 463 
   -7.7629  -22.4858  -22.6261 H   0  0  0  0  0  0  0  0  0  0  0  0  # atno 504  bound_to 482 
   -9.4326  -20.1061  -21.6686 H   0  0  0  0  0  0  0  0  0  0  0  0  # atno 528  bound_to 521 
  -12.4931  -20.3509  -21.0245 H   0  0  0  0  0  0  0  0  0  0  0  0  # atno 612  bound_to 602 
  -12.1678  -22.2370  -19.1901 H   0  0  0  0  0  0  0  0  0  0  0  0  # atno 636  bound_to 620 
  -10.1741  -24.3610  -21.9562 H   0  0  0  0  0  0  0  0  0  0  0  0  # atno 668  bound_to 652 
  -10.6645  -28.8699  -22.9936 H   0  0  0  0  0  0  0  0  0  0  0  0  # atno 712  bound_to 688 
   -8.0296  -31.8841  -22.0333 H   0  0  0  0  0  0  0  0  0  0  0  0  # atno 760  bound_to 736 
  -11.0465  -34.3289  -24.0547 H   0  0  0  0  0  0  0  0  0  0  0  0  # atno 790  bound_to 779 
  -11.8445  -36.3994  -26.1827 H   0  0  0  0  0  0  0  0  0  0  0  0  # atno 1072 bound_to 1051
  -11.8746  -32.5544  -28.3732 H   0  0  0  0  0  0  0  0  0  0  0  0  # atno 1096 bound_to 1086
  -12.2034  -30.8195  -24.2674 H   0  0  0  0  0  0  0  0  0  0  0  0  # atno 1116 bound_to 1106
  -13.7739  -27.7298  -24.8196 H   0  0  0  0  0  0  0  0  0  0  0  0  # atno 1152 bound_to 1130
  -16.9239  -20.6816  -25.3143 H   0  0  0  0  0  0  0  0  0  0  0  0  # atno 1162 bound_to 1138
  -16.2579  -19.5149  -24.3436 H   0  0  0  0  0  0  0  0  0  0  0  0  # atno 1163 bound_to 1138
  -15.6371  -19.7896  -25.8555 H   0  0  0  0  0  0  0  0  0  0  0  0  # atno 1164 bound_to 1138
  -14.6098  -26.9116  -21.5372 H   0  0  0  0  0  0  0  0  0  0  0  0  # atno 1189 bound_to 1173
  -14.1917  -26.2533  -37.7487 H   0  0  0  0  0  0  0  0  0  0  0  0  # atno 2209 bound_to 2193
  -15.0510  -28.7560  -36.8259 H   0  0  0  0  0  0  0  0  0  0  0  0  # atno 2253 bound_to 2229
  -18.3021  -28.1447  -23.7957 H   0  0  0  0  0  0  0  0  0  0  0  0  # atno 2649 bound_to 2634
  -16.0182  -31.5085  -28.4625 H   0  0  0  0  0  0  0  0  0  0  0  0  # atno 2733 bound_to 2713
  -14.3456  -31.7475  -30.8162 H   0  0  0  0  0  0  0  0  0  0  0  0  # atno 2762 bound_to 2750
  -11.4969  -34.4015  -31.4853 H   0  0  0  0  0  0  0  0  0  0  0  0  # atno 2793 bound_to 2774
   -8.3878  -32.7462  -32.3218 H   0  0  0  0  0  0  0  0  0  0  0  0  # atno 2827 bound_to 2811
   -5.8525  -31.9877  -33.0569 H   0  0  0  0  0  0  0  0  0  0  0  0  # atno 2857 bound_to 2843
   -3.6631  -35.1309  -34.8313 H   0  0  0  0  0  0  0  0  0  0  0  0  # atno 2863 bound_to 2849
   -2.4679  -31.6030  -33.7575 H   0  0  0  0  0  0  0  0  0  0  0  0  # atno 2875 bound_to 2868
   -1.2643  -29.3182  -33.2807 H   0  0  0  0  0  0  0  0  0  0  0  0  # atno 2889 bound_to 2882
   -1.6850  -24.9527  -32.0425 H   0  0  0  0  0  0  0  0  0  0  0  0  # atno 2916 bound_to 2901
   -2.3288  -22.2359  -35.6993 H   0  0  0  0  0  0  0  0  0  0  0  0  # atno 2946 bound_to 2930
   -5.3916  -18.8216  -34.6250 H   0  0  0  0  0  0  0  0  0  0  0  0  # atno 4310 bound_to 4296
   -7.1154  -20.6939  -35.2073 H   0  0  0  0  0  0  0  0  0  0  0  0  # atno 4343 bound_to 4324
   -5.3641  -23.3597  -36.9206 H   0  0  0  0  0  0  0  0  0  0  0  0  # atno 4381 bound_to 4362
   -3.1601  -26.0668  -36.7956 H   0  0  0  0  0  0  0  0  0  0  0  0  # atno 4419 bound_to 4400
   -0.2473  -34.2224  -33.1753 H   0  0  0  0  0  0  0  0  0  0  0  0  # atno 4496 bound_to 4485
    0.0243  -34.2307  -31.5405 H   0  0  0  0  0  0  0  0  0  0  0  0  # atno 4497 bound_to 4485
    0.1901  -32.8241  -32.4003 H   0  0  0  0  0  0  0  0  0  0  0  0  # atno 4498 bound_to 4485
  -11.1277  -21.3508  -36.1003 H   0  0  0  0  0  0  0  0  0  0  0  0  # atno 4743 bound_to 4738
  -12.0132  -21.1920  -33.3071 H   0  0  0  0  0  0  0  0  0  0  0  0  # atno 4769 bound_to 4761
  -14.5058  -20.1334  -32.8794 H   0  0  0  0  0  0  0  0  0  0  0  0  # atno 4799 bound_to 4788
  -15.8684  -17.3910  -31.1429 H   0  0  0  0  0  0  0  0  0  0  0  0  # atno 4825 bound_to 4821
  -15.8106  -15.3548  -29.4946 H   0  0  0  0  0  0  0  0  0  0  0  0  # atno 4847 bound_to 4839
  -11.3156  -30.4184  -23.2603 LP  0  0  0  0  0  0  0  0  0  0  0  0  # atno 8535 bound_to 691 
  -11.0688  -32.1162  -23.4981 LP  0  0  0  0  0  0  0  0  0  0  0  0  # atno 8536 bound_to 691 
  -10.0681  -33.7525  -25.8085 LP  0  0  0  0  0  0  0  0  0  0  0  0  # atno 8537 bound_to 1054
  -11.3490  -34.7448  -25.1964 LP  0  0  0  0  0  0  0  0  0  0  0  0  # atno 8538 bound_to 1054
  -12.0171  -33.4338  -26.8578 LP  0  0  0  0  0  0  0  0  0  0  0  0  # atno 8539 bound_to 1086
  -14.6730  -30.6785  -26.9163 LP  0  0  0  0  0  0  0  0  0  0  0  0  # atno 8540 bound_to 1089
  -13.4717  -29.8054  -27.8077 LP  0  0  0  0  0  0  0  0  0  0  0  0  # atno 8541 bound_to 1089
  -12.9491  -30.6485  -25.8476 LP  0  0  0  0  0  0  0  0  0  0  0  0  # atno 8542 bound_to 1106
  -12.4626  -26.5443  -37.8225 LP  0  0  0  0  0  0  0  0  0  0  0  0  # atno 8543 bound_to 2193
  -14.6217  -29.3841  -35.2498 LP  0  0  0  0  0  0  0  0  0  0  0  0  # atno 8544 bound_to 2229
  -15.2198  -30.0137  -33.5908 LP  0  0  0  0  0  0  0  0  0  0  0  0  # atno 8545 bound_to 2232
  -16.4945  -30.8875  -32.8086 LP  0  0  0  0  0  0  0  0  0  0  0  0  # atno 8546 bound_to 2232
  -16.0419  -29.7663  -28.2528 LP  0  0  0  0  0  0  0  0  0  0  0  0  # atno 8547 bound_to 2713
  -13.0842  -32.8397  -29.8068 LP  0  0  0  0  0  0  0  0  0  0  0  0  # atno 8548 bound_to 2716
  -14.2392  -32.2178  -28.6759 LP  0  0  0  0  0  0  0  0  0  0  0  0  # atno 8549 bound_to 2716
  -14.9114  -31.4433  -32.4449 LP  0  0  0  0  0  0  0  0  0  0  0  0  # atno 8550 bound_to 2750
  -12.2828  -30.5253  -31.8288 LP  0  0  0  0  0  0  0  0  0  0  0  0  # atno 8551 bound_to 2753
  -10.8939  -31.0043  -30.9115 LP  0  0  0  0  0  0  0  0  0  0  0  0  # atno 8552 bound_to 2753
  -11.6451  -32.6837  -31.8098 LP  0  0  0  0  0  0  0  0  0  0  0  0  # atno 8557 bound_to 2774
  -10.0918  -33.8830  -33.6739 LP  0  0  0  0  0  0  0  0  0  0  0  0  # atno 8558 bound_to 2777
   -8.4428  -33.6755  -34.1615 LP  0  0  0  0  0  0  0  0  0  0  0  0  # atno 8559 bound_to 2777
   -8.7019  -31.0936  -31.8269 LP  0  0  0  0  0  0  0  0  0  0  0  0  # atno 8560 bound_to 2811
   -5.8136  -31.1193  -31.0458 LP  0  0  0  0  0  0  0  0  0  0  0  0  # atno 8561 bound_to 2814
   -5.4773  -29.6948  -31.9720 LP  0  0  0  0  0  0  0  0  0  0  0  0  # atno 8562 bound_to 2814
   -4.9986  -31.6893  -34.5581 LP  0  0  0  0  0  0  0  0  0  0  0  0  # atno 8563 bound_to 2843
   -8.2653  -23.6507  -20.6080 LP  0  0  0  0  0  0  0  0  0  0  0  0  # atno 8564 bound_to 466 
   -7.2181  -24.9180  -21.1532 LP  0  0  0  0  0  0  0  0  0  0  0  0  # atno 8565 bound_to 466 
   -6.1986  -21.8092  -22.2048 LP  0  0  0  0  0  0  0  0  0  0  0  0  # atno 8566 bound_to 482 
   -7.5011  -19.8391  -23.1176 LP  0  0  0  0  0  0  0  0  0  0  0  0  # atno 8567 bound_to 485 
   -8.8360  -18.7365  -23.0685 LP  0  0  0  0  0  0  0  0  0  0  0  0  # atno 8568 bound_to 485 
   -9.4837  -19.8288  -19.9332 LP  0  0  0  0  0  0  0  0  0  0  0  0  # atno 8569 bound_to 521 
  -13.7744  -19.5134  -21.5770 LP  0  0  0  0  0  0  0  0  0  0  0  0  # atno 8570 bound_to 602 
  -13.2818  -20.8634  -22.3526 LP  0  0  0  0  0  0  0  0  0  0  0  0  # atno 8571 bound_to 602 
  -13.1549  -23.5157  -19.8818 LP  0  0  0  0  0  0  0  0  0  0  0  0  # atno 8572 bound_to 620 
  -12.8612  -25.1557  -21.9871 LP  0  0  0  0  0  0  0  0  0  0  0  0  # atno 8573 bound_to 623 
  -13.0022  -25.6949  -20.3472 LP  0  0  0  0  0  0  0  0  0  0  0  0  # atno 8574 bound_to 623 
  -10.2850  -25.5276  -20.6552 LP  0  0  0  0  0  0  0  0  0  0  0  0  # atno 8575 bound_to 652 
  -12.8440  -28.9176  -22.1174 LP  0  0  0  0  0  0  0  0  0  0  0  0  # atno 8576 bound_to 1109
  -12.2110  -27.6353  -23.0947 LP  0  0  0  0  0  0  0  0  0  0  0  0  # atno 8577 bound_to 1109
  -15.2921  -28.2223  -24.0969 LP  0  0  0  0  0  0  0  0  0  0  0  0  # atno 8578 bound_to 1130
  -17.5058  -26.5240  -21.8746 LP  0  0  0  0  0  0  0  0  0  0  0  0  # atno 8579 bound_to 1133
  -17.1579  -26.8639  -23.5370 LP  0  0  0  0  0  0  0  0  0  0  0  0  # atno 8580 bound_to 1133
  -15.1022  -25.2456  -21.7825 LP  0  0  0  0  0  0  0  0  0  0  0  0  # atno 8581 bound_to 1173
  -16.3999  -28.3933  -25.0314 LP  0  0  0  0  0  0  0  0  0  0  0  0  # atno 8586 bound_to 2637
  -16.0709  -28.4120  -26.7318 LP  0  0  0  0  0  0  0  0  0  0  0  0  # atno 8587 bound_to 2637
  -10.6401  -20.1112  -34.5314 LP  0  0  0  0  0  0  0  0  0  0  0  0  # atno 8588 bound_to 4741
  -12.1673  -19.4113  -34.1099 LP  0  0  0  0  0  0  0  0  0  0  0  0  # atno 8589 bound_to 4741
  -12.9423  -22.3936  -32.4204 LP  0  0  0  0  0  0  0  0  0  0  0  0  # atno 8590 bound_to 4761
  -12.3727  -18.1869  -32.8124 LP  0  0  0  0  0  0  0  0  0  0  0  0  # atno 8591 bound_to 4764
  -13.8548  -17.4098  -32.3658 LP  0  0  0  0  0  0  0  0  0  0  0  0  # atno 8592 bound_to 4764
  -14.8808  -19.7984  -31.1933 LP  0  0  0  0  0  0  0  0  0  0  0  0  # atno 8597 bound_to 4788
  -15.9726  -18.9562  -30.3591 LP  0  0  0  0  0  0  0  0  0  0  0  0  # atno 8598 bound_to 4821
   -9.0337  -31.1748  -23.2804 LP  0  0  0  0  0  0  0  0  0  0  0  0  # atno 8599 bound_to 736 
  -11.1893  -37.5359  -29.8598 LP  0  0  0  0  0  0  0  0  0  0  0  0  # atno 8600 bound_to 1021
  -12.8163  -37.0395  -29.5335 LP  0  0  0  0  0  0  0  0  0  0  0  0  # atno 8601 bound_to 1021
  -11.4869  -36.8666  -27.8372 LP  0  0  0  0  0  0  0  0  0  0  0  0  # atno 8602 bound_to 1051
   -1.2766  -31.4760  -31.9818 LP  0  0  0  0  0  0  0  0  0  0  0  0  # atno 8603 bound_to 2846
   -0.8064  -32.6275  -33.1871 LP  0  0  0  0  0  0  0  0  0  0  0  0  # atno 8604 bound_to 2846
   -2.6268  -33.8827  -34.9584 LP  0  0  0  0  0  0  0  0  0  0  0  0  # atno 8605 bound_to 2849
   -4.2358  -33.6261  -35.0674 LP  0  0  0  0  0  0  0  0  0  0  0  0  # atno 8606 bound_to 2849
   -3.5003  -30.6792  -34.8253 LP  0  0  0  0  0  0  0  0  0  0  0  0  # atno 8607 bound_to 2868
   -2.5097  -28.4668  -34.1700 LP  0  0  0  0  0  0  0  0  0  0  0  0  # atno 8608 bound_to 2882
   -3.0460  -29.6327  -36.0429 LP  0  0  0  0  0  0  0  0  0  0  0  0  # atno 8609 bound_to 4403
   -4.7747  -29.7254  -36.0971 LP  0  0  0  0  0  0  0  0  0  0  0  0  # atno 8610 bound_to 4403
  -10.7094  -23.0376  -36.3486 LP  0  0  0  0  0  0  0  0  0  0  0  0  # atno 8611 bound_to 4738
  -18.4200  -17.6994  -32.4788 LP  0  0  0  0  0  0  0  0  0  0  0  0  # atno 8612 bound_to 4791
  -18.5241  -17.4569  -30.7670 LP  0  0  0  0  0  0  0  0  0  0  0  0  # atno 8613 bound_to 4791
   -6.0252  -27.0927  -21.6101 LP  0  0  0  0  0  0  0  0  0  0  0  0  # atno 8614 bound_to 429 
   -3.9164  -24.7044  -24.4459 LP  0  0  0  0  0  0  0  0  0  0  0  0  # atno 8615 bound_to 432 
   -4.3485  -25.9818  -25.5330 LP  0  0  0  0  0  0  0  0  0  0  0  0  # atno 8616 bound_to 432 
   -5.9774  -25.6948  -22.2070 LP  0  0  0  0  0  0  0  0  0  0  0  0  # atno 8617 bound_to 463 
   -7.6169  -27.1656  -22.4253 LP  0  0  0  0  0  0  0  0  0  0  0  0  # atno 8618 bound_to 655 
   -8.1658  -27.2932  -20.7874 LP  0  0  0  0  0  0  0  0  0  0  0  0  # atno 8619 bound_to 655 
   -9.9360  -27.8991  -21.7305 LP  0  0  0  0  0  0  0  0  0  0  0  0  # atno 8620 bound_to 688 
   -0.8743  -25.4914  -33.4966 LP  0  0  0  0  0  0  0  0  0  0  0  0  # atno 8623 bound_to 2901
   -4.8950  -20.6239  -31.3713 LP  0  0  0  0  0  0  0  0  0  0  0  0  # atno 8626 bound_to 4270
   -5.4433  -21.4020  -32.8183 LP  0  0  0  0  0  0  0  0  0  0  0  0  # atno 8627 bound_to 4270
   -2.7020  -26.8886  -34.9674 LP  0  0  0  0  0  0  0  0  0  0  0  0  # atno 8628 bound_to 2885
   -2.0061  -25.3641  -35.4051 LP  0  0  0  0  0  0  0  0  0  0  0  0  # atno 8629 bound_to 2885
   -5.5111  -18.8286  -32.8715 LP  0  0  0  0  0  0  0  0  0  0  0  0  # atno 8632 bound_to 4296
   -8.5353  -21.8846  -35.7592 LP  0  0  0  0  0  0  0  0  0  0  0  0  # atno 8633 bound_to 4299
   -9.3448  -20.4925  -35.1214 LP  0  0  0  0  0  0  0  0  0  0  0  0  # atno 8634 bound_to 4299
   -5.5700  -20.0095  -35.6723 LP  0  0  0  0  0  0  0  0  0  0  0  0  # atno 8635 bound_to 4324
   -3.6078  -23.3766  -35.7804 LP  0  0  0  0  0  0  0  0  0  0  0  0  # atno 8636 bound_to 4327
   -3.8826  -21.6780  -35.9782 LP  0  0  0  0  0  0  0  0  0  0  0  0  # atno 8637 bound_to 4327
   -6.9071  -23.9229  -36.3111 LP  0  0  0  0  0  0  0  0  0  0  0  0  # atno 8638 bound_to 4362
  -16.7753  -27.2355  -35.8794 LP  0  0  0  0  0  0  0  0  0  0  0  0  # atno 8639 bound_to 2196
  -15.4874  -26.0774  -35.8734 LP  0  0  0  0  0  0  0  0  0  0  0  0  # atno 8640 bound_to 2196
  -12.1176  -24.7052  -37.4763 LP  0  0  0  0  0  0  0  0  0  0  0  0  # atno 8641 bound_to 4706
  -13.0894  -23.8764  -36.3065 LP  0  0  0  0  0  0  0  0  0  0  0  0  # atno 8642 bound_to 4706
   -3.4844  -29.1429  -22.1728 LP  0  0  0  0  0  0  0  0  0  0  0  0  # atno 8647 bound_to 403 
   -3.1411  -28.3404  -20.6767 LP  0  0  0  0  0  0  0  0  0  0  0  0  # atno 8648 bound_to 403 
    0.2032  -28.0935  -35.6592 LP  0  0  0  0  0  0  0  0  0  0  0  0  # atno 8651 bound_to 2871
    0.8671  -28.4466  -34.0989 LP  0  0  0  0  0  0  0  0  0  0  0  0  # atno 8652 bound_to 2871
    0.6630  -24.2130  -35.6332 LP  0  0  0  0  0  0  0  0  0  0  0  0  # atno 8653 bound_to 2904
    0.9204  -23.2182  -34.2388 LP  0  0  0  0  0  0  0  0  0  0  0  0  # atno 8654 bound_to 2904
   -8.9674  -24.5119  -36.5178 LP  0  0  0  0  0  0  0  0  0  0  0  0  # atno 8655 bound_to 4663
   -7.6817  -24.0098  -37.5641 LP  0  0  0  0  0  0  0  0  0  0  0  0  # atno 8656 bound_to 4663
   -4.6309  -26.9912  -36.5536 LP  0  0  0  0  0  0  0  0  0  0  0  0  # atno 8657 bound_to 4400

> <Gold.Score>
     Fitness  S(hb_ext) S(vdw_ext)  S(hb_int)    S(int)      intcor
     29.42       1.00      21.07       0.00      -0.56      -0.76

> <Gold.Goldscore.Fitness>
29.4205

> <Gold.Goldscore.Internal.Vdw>
-0.6919

> <Gold.Goldscore.Internal.Torsion>
-0.6255

> <Gold.Goldscore.External.Vdw>
21.0735

> <Gold.Goldscore.Internal.HBond>
0.0000

> <Gold.Goldscore.External.HBond>
1.0034

> <Gold.Goldscore.Internal.Correction>
-0.7585

> <Gold.Goldscore.Hbonds>
donor molecule, donor type, donor heavy atom, donor atom, acceptor molecule, acceptor atom, score
      L1  H     8    22       P1   432  0.50

> <Gold.Goldscore.Internal.Vdw.Weighted>
-0.6919

> <Gold.Goldscore.Internal.Torsion.Weighted>
-0.6255

> <Gold.Goldscore.External.Vdw.Weighted>
28.9760

> <Gold.Goldscore.Internal.HBond.Weighted>
0.0000

> <Gold.Goldscore.External.HBond.Weighted>
1.0034

> <Gold.Goldscore.Internal.Correction.Weighted>
-0.7585

> <Gold.Rescore>
     Score     S(PLP)   S(hbond)     S(cho)   S(metal)  DE(clash)   DE(tors)     intcor
     22.09     -21.36       0.99       0.00       0.00       0.00       1.12       ----

> <Gold.PLP.Fitness>
22.0920

> <Gold.PLP.PLP>
-21.3561

> <Gold.PLP.part.hbond>
-1.0000

> <Gold.PLP.part.metal>
0.0000

> <Gold.PLP.part.buried>
2.9565

> <Gold.PLP.part.nonpolar>
-25.2908

> <Gold.PLP.part.repulsive>
0.4068

> <Gold.PLP.ligand.clash>
0.0000

> <Gold.PLP.ligand.torsion>
1.1200

> <Gold.PLP.Chemscore.Hbond>
0.9920

> <Gold.PLP.Chemscore.CHOScore>
0.0000

> <Gold.PLP.Chemscore.Metal>
0.0000

> <Gold.Chemscore.Hbonds>
donor molecule, donor type, donor heavy atom, donor atom, acceptor molecule, acceptor atom, score
      L1  H     8    22       P1   432  0.19

> <Gold.PLP.Chemscore.Internal.Correction>
   9.000000E+99

