#       Name:                CT1002167954
#       Creating user name   hitesit
#       Creation time:       Sun Apr 16 02:22:14 2023


#       File generated by GOLD software.
#

@<TRIPOS>MOLECULE
CT1002167954|ligand_prepared|mol2|1|dock1
    29    30     1
SMALL
NO_CHARGES


@<TRIPOS>ATOM
      1 C1          -7.2941 -23.3416 -28.3972 C.3            1 RES1               0.0000
      2 C2          -7.8441 -24.7033 -28.8685 C.ar           1 RES1               0.0000
      3 C3          -6.2679 -22.9097 -29.4406 C.2            1 RES1               0.0000
      4 C4          -8.4968 -22.4113 -28.2853 C.2            1 RES1               0.0000
      5 C5          -6.5993 -23.3925 -27.0166 C.3            1 RES1               0.0000
      6 C6          -7.3212 -25.8910 -28.3660 C.ar           1 RES1               0.0000
      7 C7          -8.8741 -24.7874 -29.8016 C.ar           1 RES1               0.0000
      8 N8          -6.6183 -21.9047 -30.2933 N.am           1 RES1               0.0000
      9 O9          -5.1827 -23.4691 -29.5393 O.2            1 RES1               0.0000
     10 N10         -8.5640 -21.3428 -29.1406 N.am           1 RES1               0.0000
     11 O11         -9.3953 -22.6033 -27.4753 O.2            1 RES1               0.0000
     12 C12         -6.3080 -22.0219 -26.4259 C.3            1 RES1               0.0000
     13 C13         -7.8122 -27.1185 -28.7791 C.ar           1 RES1               0.0000
     14 C14         -9.3635 -26.0160 -30.2135 C.ar           1 RES1               0.0000
     15 C15         -7.6947 -21.0648 -30.1601 C.2            1 RES1               0.0000
     16 C16         -8.8338 -27.1819 -29.7026 C.ar           1 RES1               0.0000
     17 O17         -7.8518 -20.1153 -30.9223 O.2            1 RES1               0.0000
     18 H18         -7.2386 -23.9486 -26.3198 H              1 RES1               0.0000
     19 H19         -5.6550 -23.9418 -27.1165 H              1 RES1               0.0000
     20 H20         -6.5153 -25.8610 -27.6404 H              1 RES1               0.0000
     21 H21         -9.3054 -23.8833 -30.2178 H              1 RES1               0.0000
     22 H22         -6.0253 -21.7648 -31.1051 H              1 RES1               0.0000
     23 H23         -9.3331 -20.6946 -29.0047 H              1 RES1               0.0000
     24 H24         -5.8205 -22.1148 -25.4577 H              1 RES1               0.0000
     25 H25         -5.6538 -21.4506 -27.0812 H              1 RES1               0.0000
     26 H26         -7.2280 -21.4573 -26.2893 H              1 RES1               0.0000
     27 H27         -7.3910 -28.0331 -28.3750 H              1 RES1               0.0000
     28 H28        -10.1672 -26.0611 -30.9410 H              1 RES1               0.0000
     29 H29         -9.2185 -28.1435 -30.0257 H              1 RES1               0.0000
@<TRIPOS>BOND
    1    1    2 1     
    2    1    3 1     
    3    1    4 1     
    4    1    5 1     
    5    2    6 ar    
    6    2    7 ar    
    7    3    8 1     
    8    3    9 2     
    9    4   10 1     
   10    4   11 2     
   11    5   12 1     
   12    5   18 1     
   13    5   19 1     
   14    6   13 ar    
   15    6   20 1     
   16    7   14 ar    
   17    7   21 1     
   18    8   15 1     
   19    8   22 1     
   20   10   15 1     
   21   10   23 1     
   22   12   24 1     
   23   12   25 1     
   24   12   26 1     
   25   13   16 ar    
   26   13   27 1     
   27   14   16 ar    
   28   14   28 1     
   29   15   17 2     
   30   16   29 1     
@<TRIPOS>SUBSTRUCTURE
      1 RES1           1
@<TRIPOS>SET
DONOR_HYDROGENS      STATIC     ATOMS    <user>   **** ""
2 22 23
ATOM$RED        STATIC     ATOMS    COLORGROUP SYSTEM
2 22 23
@<TRIPOS>COMMENT
> <Gold.Version>
2022.3.0

> <Gold.Id.Protein>
unknown|7kl0_clean|pdb

> <Gold.Protein.RotatedTorsions>
[ 1096 1086 1087 1088 ] final -131.98 input   77.66 | X-H torsion
[ 1116 1106 1107 1108 ] final   64.41 input   75.39 | X-H torsion
[ 2209 2193 2194 2195 ] final  -98.06 input  128.07 | X-H torsion
[ 2253 2229 2230 2231 ] final   46.86 input   94.48 | X-H torsion
[ 2733 2713 2714 2715 ] final  -37.88 input   74.45 | X-H torsion
[ 2762 2750 2751 2752 ] final    1.76 input  128.15 | X-H torsion
[ 2793 2774 2775 2776 ] final   32.37 input  106.68 | X-H torsion
[ 2827 2811 2812 2813 ] final   49.52 input   64.81 | X-H torsion
[ 2857 2843 2844 2845 ] final  137.86 input   70.34 | X-H torsion
[  504  482  483  484 ] final  153.62 input   40.33 | X-H torsion
[  528  521  522  523 ] final -176.51 input   38.54 | X-H torsion
[  612  602  601  598 ] final  -87.52 input   59.99 | X-H torsion
[  636  620  621  622 ] final   15.39 input   33.60 | X-H torsion
[  668  652  653  654 ] final  -70.41 input   67.24 | X-H torsion
[ 1152 1130 1131 1132 ] final -133.73 input  101.11 | X-H torsion
[ 1162 1138 1137 1136 ] final   92.38 input   59.97 | X-H torsion
[ 1189 1173 1174 1175 ] final   -9.31 input   74.99 | X-H torsion
[ 4769 4761 4762 4763 ] final   11.91 input -116.16 | X-H torsion
[ 4799 4788 4789 4790 ] final  -14.99 input   84.75 | X-H torsion
[ 4825 4821 4822 4823 ] final  -93.41 input  114.67 | X-H torsion
[  760  736  737  738 ] final   28.69 input  123.93 | X-H torsion
[ 1072 1051 1052 1053 ] final   55.44 input   37.12 | X-H torsion
[ 2863 2849 2847 2844 ] final  154.29 input   59.99 | X-H torsion
[ 2875 2868 2869 2870 ] final  -88.08 input   94.70 | X-H torsion
[ 2889 2882 2883 2884 ] final   -4.67 input -101.73 | X-H torsion
[ 4743 4738 4739 4740 ] final  179.54 input   44.52 | X-H torsion
[  447  429  430  431 ] final -159.85 input   69.31 | X-H torsion
[  470  463  464  465 ] final  120.22 input   13.24 | X-H torsion
[  712  688  689  690 ] final  128.02 input   42.22 | X-H torsion
[ 2916 2901 2902 2903 ] final  -20.85 input  112.69 | X-H torsion
[ 4310 4296 4297 4298 ] final -110.70 input   86.41 | X-H torsion
[ 4343 4324 4325 4326 ] final  102.24 input   71.41 | X-H torsion
[ 4381 4362 4363 4364 ] final  145.06 input   70.60 | X-H torsion
[ 4419 4400 4401 4402 ] final   49.09 input   92.71 | X-H torsion
[  790  779  780  781 ] final   46.93 input   42.63 | X-H torsion
[ 4847 4839 4840 4841 ] final -113.89 input   74.58 | X-H torsion
[ 2649 2634 2635 2636 ] final  -18.28 input   83.10 | X-H torsion
[ 2946 2930 2931 2932 ] final   88.42 input  126.41 | X-H torsion
[ 4496 4485 4484 4483 ] final  161.15 input   60.01 | X-H torsion
[ 8535  691  690  689 ] final  -33.95 input    0.00 | X-H torsion
[ 8537 1054 1053 1052 ] final -105.59 input    0.00 | X-H torsion
[ 8540 1089 1088 1087 ] final -105.50 input    0.00 | X-H torsion
[ 8545 2232 2231 2230 ] final  -62.10 input    0.00 | X-H torsion
[ 8548 2716 2715 2714 ] final  -39.60 input    0.00 | X-H torsion
[ 8551 2753 2752 2751 ] final  102.37 input    0.00 | X-H torsion
[ 8558 2777 2776 2775 ] final   37.76 input    0.00 | X-H torsion
[ 8561 2814 2813 2812 ] final -153.37 input    0.00 | X-H torsion
[ 8564  466  465  464 ] final   79.89 input   -0.00 | X-H torsion
[ 8567  485  484  483 ] final -118.27 input    0.00 | X-H torsion
[ 8573  623  622  621 ] final   57.62 input    0.00 | X-H torsion
[ 8576 1109 1108 1107 ] final  -64.81 input   -0.00 | X-H torsion
[ 8579 1133 1132 1131 ] final  158.81 input    0.00 | X-H torsion
[ 8586 2637 2636 2635 ] final   47.76 input    0.00 | X-H torsion
[ 8588 4741 4740 4739 ] final -163.32 input    0.00 | X-H torsion
[ 8591 4764 4763 4762 ] final  -88.72 input    0.00 | X-H torsion
[ 8600 1021 1020 1019 ] final   75.71 input    0.00 | X-H torsion
[ 8603 2846 2845 2844 ] final   44.90 input   -0.00 | X-H torsion
[ 8609 4403 4402 4401 ] final  -66.33 input    0.00 | X-H torsion
[ 8612 4791 4790 4789 ] final   96.74 input    0.00 | X-H torsion
[ 8615  432  431  430 ] final  -33.95 input    0.00 | X-H torsion
[ 8618  655  654  653 ] final -123.75 input    0.00 | X-H torsion
[ 8626 4270 4269 4268 ] final  -74.75 input    0.00 | X-H torsion
[ 8628 2885 2884 2883 ] final -142.04 input    0.00 | X-H torsion
[ 8633 4299 4298 4297 ] final -115.45 input    0.00 | X-H torsion
[ 8636 4327 4326 4325 ] final   61.67 input    0.00 | X-H torsion
[ 8639 2196 2195 2194 ] final  -63.65 input    0.00 | X-H torsion
[ 8641 4706 4705 4704 ] final   92.38 input    0.00 | X-H torsion
[ 8647  403  402  401 ] final    4.22 input    0.00 | X-H torsion
[ 8651 2871 2870 2869 ] final   38.06 input    0.00 | X-H torsion
[ 8653 2904 2903 2902 ] final -150.71 input    0.00 | X-H torsion
[ 8655 4663 4662 4661 ] final   66.37 input    0.00 | X-H torsion

> <Gold.Protein.ActiveResidues>
 GLU18   LEU19   GLY20   LYS21   GLY22   SER25   VAL26   VAL27   ARG28   ARG29  
 CYS30   GLU38   TYR39   ALA40   ALA41   LYS42   ILE43   ILE44   GLU60   CYS64  
 VAL73   ARG74   LEU75   LEU87   ILE88   PHE89   ASP90   LEU91   VAL92   THR93  
 GLY94   GLY95   GLU96   LEU97   GLU99   GLU139  ASN140  LEU141  LEU142  LEU143 
 LYS146  LYS153  LEU154  ALA155  ASP156  PHE157  GLY158  LEU159 

> <Gold.Protein.RotatedAtoms>
   -5.5428  -28.7293  -21.8602 H   0  0  0  0  0  0  0  0  0  0  0  0  # atno 447  bound_to 429 
   -6.4500  -25.8194  -23.8587 H   0  0  0  0  0  0  0  0  0  0  0  0  # atno 470  bound_to 463 
   -6.3196  -22.3610  -21.8192 H   0  0  0  0  0  0  0  0  0  0  0  0  # atno 504  bound_to 482 
   -9.3794  -20.0703  -21.6704 H   0  0  0  0  0  0  0  0  0  0  0  0  # atno 528  bound_to 521 
  -13.6395  -19.4692  -21.3880 H   0  0  0  0  0  0  0  0  0  0  0  0  # atno 612  bound_to 602 
  -13.0950  -23.5061  -20.0618 H   0  0  0  0  0  0  0  0  0  0  0  0  # atno 636  bound_to 620 
  -10.6993  -25.4523  -20.7241 H   0  0  0  0  0  0  0  0  0  0  0  0  # atno 668  bound_to 652 
  -10.6683  -28.2795  -21.5468 H   0  0  0  0  0  0  0  0  0  0  0  0  # atno 712  bound_to 688 
   -8.7285  -31.8642  -21.8664 H   0  0  0  0  0  0  0  0  0  0  0  0  # atno 760  bound_to 736 
  -10.8764  -34.6016  -24.1814 H   0  0  0  0  0  0  0  0  0  0  0  0  # atno 790  bound_to 779 
  -11.8631  -36.4082  -26.1845 H   0  0  0  0  0  0  0  0  0  0  0  0  # atno 1072 bound_to 1051
  -11.2973  -33.4030  -27.1057 H   0  0  0  0  0  0  0  0  0  0  0  0  # atno 1096 bound_to 1086
  -12.1457  -30.6768  -24.2942 H   0  0  0  0  0  0  0  0  0  0  0  0  # atno 1116 bound_to 1106
  -13.6610  -27.8794  -24.4801 H   0  0  0  0  0  0  0  0  0  0  0  0  # atno 1152 bound_to 1130
  -16.8432  -20.0960  -24.4095 H   0  0  0  0  0  0  0  0  0  0  0  0  # atno 1162 bound_to 1138
  -15.5743  -19.3412  -25.1627 H   0  0  0  0  0  0  0  0  0  0  0  0  # atno 1163 bound_to 1138
  -16.4013  -20.5485  -25.9405 H   0  0  0  0  0  0  0  0  0  0  0  0  # atno 1164 bound_to 1138
  -15.0078  -25.1737  -21.6750 H   0  0  0  0  0  0  0  0  0  0  0  0  # atno 1189 bound_to 1173
  -13.0798  -27.1241  -38.2721 H   0  0  0  0  0  0  0  0  0  0  0  0  # atno 2209 bound_to 2193
  -14.5773  -29.6451  -35.3917 H   0  0  0  0  0  0  0  0  0  0  0  0  # atno 2253 bound_to 2229
  -18.5589  -28.3463  -23.7829 H   0  0  0  0  0  0  0  0  0  0  0  0  # atno 2649 bound_to 2634
  -16.1210  -31.4983  -28.5016 H   0  0  0  0  0  0  0  0  0  0  0  0  # atno 2733 bound_to 2713
  -13.9896  -31.1512  -31.2160 H   0  0  0  0  0  0  0  0  0  0  0  0  # atno 2762 bound_to 2750
  -11.3284  -33.7719  -32.4785 H   0  0  0  0  0  0  0  0  0  0  0  0  # atno 2793 bound_to 2774
   -8.1536  -31.3101  -31.5242 H   0  0  0  0  0  0  0  0  0  0  0  0  # atno 2827 bound_to 2811
   -5.6852  -32.6857  -33.8927 H   0  0  0  0  0  0  0  0  0  0  0  0  # atno 2857 bound_to 2843
   -3.0225  -35.0042  -34.8195 H   0  0  0  0  0  0  0  0  0  0  0  0  # atno 2863 bound_to 2849
   -2.4704  -31.5716  -33.7295 H   0  0  0  0  0  0  0  0  0  0  0  0  # atno 2875 bound_to 2868
   -2.1925  -28.3809  -34.4066 H   0  0  0  0  0  0  0  0  0  0  0  0  # atno 2889 bound_to 2882
   -0.9527  -25.5185  -33.5574 H   0  0  0  0  0  0  0  0  0  0  0  0  # atno 2916 bound_to 2901
   -2.2775  -22.1862  -35.6492 H   0  0  0  0  0  0  0  0  0  0  0  0  # atno 2946 bound_to 2930
   -5.4013  -19.2993  -32.9550 H   0  0  0  0  0  0  0  0  0  0  0  0  # atno 4310 bound_to 4296
   -5.7202  -19.8491  -35.8783 H   0  0  0  0  0  0  0  0  0  0  0  0  # atno 4343 bound_to 4324
   -6.6623  -23.6413  -35.8780 H   0  0  0  0  0  0  0  0  0  0  0  0  # atno 4381 bound_to 4362
   -3.6703  -27.1284  -36.0406 H   0  0  0  0  0  0  0  0  0  0  0  0  # atno 4419 bound_to 4400
   -0.2069  -34.6938  -32.3149 H   0  0  0  0  0  0  0  0  0  0  0  0  # atno 4496 bound_to 4485
    0.2280  -33.2709  -31.5851 H   0  0  0  0  0  0  0  0  0  0  0  0  # atno 4497 bound_to 4485
   -0.0540  -33.3119  -33.2172 H   0  0  0  0  0  0  0  0  0  0  0  0  # atno 4498 bound_to 4485
  -10.8172  -23.1023  -36.3488 H   0  0  0  0  0  0  0  0  0  0  0  0  # atno 4743 bound_to 4738
  -12.8480  -21.2575  -33.4732 H   0  0  0  0  0  0  0  0  0  0  0  0  # atno 4769 bound_to 4761
  -14.7426  -19.5189  -31.2185 H   0  0  0  0  0  0  0  0  0  0  0  0  # atno 4799 bound_to 4788
  -16.7663  -18.4235  -30.9293 H   0  0  0  0  0  0  0  0  0  0  0  0  # atno 4825 bound_to 4821
  -16.6622  -15.5175  -29.5149 H   0  0  0  0  0  0  0  0  0  0  0  0  # atno 4847 bound_to 4839
  -11.5527  -30.9504  -22.6583 LP  0  0  0  0  0  0  0  0  0  0  0  0  # atno 8535 bound_to 691 
  -10.8318  -31.5842  -24.1000 LP  0  0  0  0  0  0  0  0  0  0  0  0  # atno 8536 bound_to 691 
  -11.3139  -33.9423  -24.9643 LP  0  0  0  0  0  0  0  0  0  0  0  0  # atno 8537 bound_to 1054
  -10.1032  -34.5551  -26.0406 LP  0  0  0  0  0  0  0  0  0  0  0  0  # atno 8538 bound_to 1054
  -12.5617  -32.6331  -28.0537 LP  0  0  0  0  0  0  0  0  0  0  0  0  # atno 8539 bound_to 1086
  -13.8716  -29.4079  -27.2434 LP  0  0  0  0  0  0  0  0  0  0  0  0  # atno 8540 bound_to 1089
  -14.2730  -31.0760  -27.4806 LP  0  0  0  0  0  0  0  0  0  0  0  0  # atno 8541 bound_to 1089
  -13.0039  -30.7841  -25.8221 LP  0  0  0  0  0  0  0  0  0  0  0  0  # atno 8542 bound_to 1106
  -13.5217  -25.7149  -37.3240 LP  0  0  0  0  0  0  0  0  0  0  0  0  # atno 8543 bound_to 2193
  -15.0802  -28.5237  -36.6377 LP  0  0  0  0  0  0  0  0  0  0  0  0  # atno 8544 bound_to 2229
  -15.9569  -31.2098  -33.6043 LP  0  0  0  0  0  0  0  0  0  0  0  0  # atno 8545 bound_to 2232
  -15.7574  -29.6915  -32.7950 LP  0  0  0  0  0  0  0  0  0  0  0  0  # atno 8546 bound_to 2232
  -15.9438  -29.7760  -28.2155 LP  0  0  0  0  0  0  0  0  0  0  0  0  # atno 8547 bound_to 2713
  -13.4933  -31.7870  -28.8272 LP  0  0  0  0  0  0  0  0  0  0  0  0  # atno 8548 bound_to 2716
  -13.8301  -33.2705  -29.6554 LP  0  0  0  0  0  0  0  0  0  0  0  0  # atno 8549 bound_to 2716
  -15.2551  -32.0191  -32.0588 LP  0  0  0  0  0  0  0  0  0  0  0  0  # atno 8550 bound_to 2750
  -11.7186  -30.9266  -30.5294 LP  0  0  0  0  0  0  0  0  0  0  0  0  # atno 8551 bound_to 2753
  -11.4581  -30.6030  -32.2109 LP  0  0  0  0  0  0  0  0  0  0  0  0  # atno 8552 bound_to 2753
  -11.8058  -33.2845  -30.8622 LP  0  0  0  0  0  0  0  0  0  0  0  0  # atno 8557 bound_to 2774
  -10.0962  -33.8672  -33.6828 LP  0  0  0  0  0  0  0  0  0  0  0  0  # atno 8558 bound_to 2777
   -8.4384  -33.6912  -34.1525 LP  0  0  0  0  0  0  0  0  0  0  0  0  # atno 8559 bound_to 2777
   -8.9261  -32.4682  -32.5903 LP  0  0  0  0  0  0  0  0  0  0  0  0  # atno 8560 bound_to 2811
   -4.8162  -30.3013  -31.7350 LP  0  0  0  0  0  0  0  0  0  0  0  0  # atno 8561 bound_to 2814
   -6.4747  -30.5128  -31.2828 LP  0  0  0  0  0  0  0  0  0  0  0  0  # atno 8562 bound_to 2814
   -5.1591  -31.0194  -33.7560 LP  0  0  0  0  0  0  0  0  0  0  0  0  # atno 8563 bound_to 2843
   -6.9756  -24.3345  -20.4799 LP  0  0  0  0  0  0  0  0  0  0  0  0  # atno 8564 bound_to 466 
   -8.5078  -24.2343  -21.2813 LP  0  0  0  0  0  0  0  0  0  0  0  0  # atno 8565 bound_to 466 
   -7.5708  -21.9279  -22.9720 LP  0  0  0  0  0  0  0  0  0  0  0  0  # atno 8566 bound_to 482 
   -8.0764  -18.5187  -22.7057 LP  0  0  0  0  0  0  0  0  0  0  0  0  # atno 8567 bound_to 485 
   -8.2607  -20.0568  -23.4804 LP  0  0  0  0  0  0  0  0  0  0  0  0  # atno 8568 bound_to 485 
   -9.5339  -19.8624  -19.9315 LP  0  0  0  0  0  0  0  0  0  0  0  0  # atno 8569 bound_to 521 
  -13.4641  -20.7232  -22.4104 LP  0  0  0  0  0  0  0  0  0  0  0  0  # atno 8570 bound_to 602 
  -12.4379  -20.5414  -21.1532 LP  0  0  0  0  0  0  0  0  0  0  0  0  # atno 8571 bound_to 602 
  -12.2789  -22.3167  -19.0583 LP  0  0  0  0  0  0  0  0  0  0  0  0  # atno 8572 bound_to 620 
  -13.1570  -24.5947  -21.2642 LP  0  0  0  0  0  0  0  0  0  0  0  0  # atno 8573 bound_to 623 
  -12.7064  -26.2558  -21.0701 LP  0  0  0  0  0  0  0  0  0  0  0  0  # atno 8574 bound_to 623 
   -9.7776  -24.4732  -21.8455 LP  0  0  0  0  0  0  0  0  0  0  0  0  # atno 8575 bound_to 652 
  -12.9799  -28.7070  -22.0061 LP  0  0  0  0  0  0  0  0  0  0  0  0  # atno 8576 bound_to 1109
  -12.0750  -27.8459  -23.2060 LP  0  0  0  0  0  0  0  0  0  0  0  0  # atno 8577 bound_to 1109
  -15.4008  -28.0783  -24.4237 LP  0  0  0  0  0  0  0  0  0  0  0  0  # atno 8578 bound_to 1130
  -17.4033  -26.9713  -21.8885 LP  0  0  0  0  0  0  0  0  0  0  0  0  # atno 8579 bound_to 1133
  -17.2603  -26.4166  -23.5231 LP  0  0  0  0  0  0  0  0  0  0  0  0  # atno 8580 bound_to 1133
  -14.7223  -26.9046  -21.6511 LP  0  0  0  0  0  0  0  0  0  0  0  0  # atno 8581 bound_to 1173
  -16.4351  -28.1685  -25.0721 LP  0  0  0  0  0  0  0  0  0  0  0  0  # atno 8586 bound_to 2637
  -16.0356  -28.6368  -26.6911 LP  0  0  0  0  0  0  0  0  0  0  0  0  # atno 8587 bound_to 2637
  -11.5453  -19.3850  -33.5536 LP  0  0  0  0  0  0  0  0  0  0  0  0  # atno 8588 bound_to 4741
  -11.2621  -20.1375  -35.0877 LP  0  0  0  0  0  0  0  0  0  0  0  0  # atno 8589 bound_to 4741
  -12.1575  -22.3320  -32.2642 LP  0  0  0  0  0  0  0  0  0  0  0  0  # atno 8590 bound_to 4761
  -13.2527  -17.4910  -31.7915 LP  0  0  0  0  0  0  0  0  0  0  0  0  # atno 8591 bound_to 4764
  -12.9748  -18.1058  -33.3867 LP  0  0  0  0  0  0  0  0  0  0  0  0  # atno 8592 bound_to 4764
  -14.6584  -20.3755  -32.7531 LP  0  0  0  0  0  0  0  0  0  0  0  0  # atno 8597 bound_to 4788
  -15.1130  -17.9677  -30.5637 LP  0  0  0  0  0  0  0  0  0  0  0  0  # atno 8598 bound_to 4821
   -8.3594  -31.1940  -23.4415 LP  0  0  0  0  0  0  0  0  0  0  0  0  # atno 8599 bound_to 736 
  -12.7159  -37.7541  -29.5415 LP  0  0  0  0  0  0  0  0  0  0  0  0  # atno 8600 bound_to 1021
  -11.2898  -36.8212  -29.8518 LP  0  0  0  0  0  0  0  0  0  0  0  0  # atno 8601 bound_to 1021
  -11.4692  -36.8582  -27.8354 LP  0  0  0  0  0  0  0  0  0  0  0  0  # atno 8602 bound_to 1051
   -1.2211  -32.8989  -32.5885 LP  0  0  0  0  0  0  0  0  0  0  0  0  # atno 8603 bound_to 2846
   -0.8619  -31.2046  -32.5804 LP  0  0  0  0  0  0  0  0  0  0  0  0  # atno 8604 bound_to 2846
   -3.0573  -33.3931  -35.0456 LP  0  0  0  0  0  0  0  0  0  0  0  0  # atno 8605 bound_to 2849
   -4.4505  -34.2433  -34.9921 LP  0  0  0  0  0  0  0  0  0  0  0  0  # atno 8606 bound_to 2849
   -3.4978  -30.7097  -34.8524 LP  0  0  0  0  0  0  0  0  0  0  0  0  # atno 8607 bound_to 2868
   -1.6139  -29.3715  -33.0834 LP  0  0  0  0  0  0  0  0  0  0  0  0  # atno 8608 bound_to 2882
   -3.0451  -29.7143  -36.0672 LP  0  0  0  0  0  0  0  0  0  0  0  0  # atno 8609 bound_to 4403
   -4.7757  -29.6438  -36.0727 LP  0  0  0  0  0  0  0  0  0  0  0  0  # atno 8610 bound_to 4403
  -11.0046  -21.3728  -36.1124 LP  0  0  0  0  0  0  0  0  0  0  0  0  # atno 8611 bound_to 4738
  -18.7540  -18.3035  -31.2429 LP  0  0  0  0  0  0  0  0  0  0  0  0  # atno 8612 bound_to 4791
  -18.1901  -16.8529  -32.0030 LP  0  0  0  0  0  0  0  0  0  0  0  0  # atno 8613 bound_to 4791
   -6.3067  -27.1556  -21.7325 LP  0  0  0  0  0  0  0  0  0  0  0  0  # atno 8614 bound_to 429 
   -3.5626  -25.9667  -24.7987 LP  0  0  0  0  0  0  0  0  0  0  0  0  # atno 8615 bound_to 432 
   -4.7023  -24.7195  -25.1802 LP  0  0  0  0  0  0  0  0  0  0  0  0  # atno 8616 bound_to 432 
   -5.6650  -25.6725  -22.2965 LP  0  0  0  0  0  0  0  0  0  0  0  0  # atno 8617 bound_to 463 
   -7.5693  -27.7798  -22.1923 LP  0  0  0  0  0  0  0  0  0  0  0  0  # atno 8618 bound_to 655 
   -8.2135  -26.6790  -21.0204 LP  0  0  0  0  0  0  0  0  0  0  0  0  # atno 8619 bound_to 655 
   -9.9324  -28.4683  -23.1252 LP  0  0  0  0  0  0  0  0  0  0  0  0  # atno 8620 bound_to 688 
   -1.5834  -24.9436  -32.0298 LP  0  0  0  0  0  0  0  0  0  0  0  0  # atno 8623 bound_to 2901
   -4.6580  -21.4131  -32.6680 LP  0  0  0  0  0  0  0  0  0  0  0  0  # atno 8626 bound_to 4270
   -5.6803  -20.6127  -31.5216 LP  0  0  0  0  0  0  0  0  0  0  0  0  # atno 8627 bound_to 4270
   -1.8381  -25.4880  -35.4623 LP  0  0  0  0  0  0  0  0  0  0  0  0  # atno 8628 bound_to 2885
   -2.8701  -26.7647  -34.9102 LP  0  0  0  0  0  0  0  0  0  0  0  0  # atno 8629 bound_to 2885
   -5.5019  -18.3776  -34.4481 LP  0  0  0  0  0  0  0  0  0  0  0  0  # atno 8632 bound_to 4296
   -8.6118  -21.9659  -35.2455 LP  0  0  0  0  0  0  0  0  0  0  0  0  # atno 8633 bound_to 4299
   -9.2683  -20.4112  -35.6351 LP  0  0  0  0  0  0  0  0  0  0  0  0  # atno 8634 bound_to 4299
   -6.9077  -20.8194  -35.0290 LP  0  0  0  0  0  0  0  0  0  0  0  0  # atno 8635 bound_to 4324
   -4.0622  -22.0329  -35.2428 LP  0  0  0  0  0  0  0  0  0  0  0  0  # atno 8636 bound_to 4327
   -3.4282  -23.0217  -36.5158 LP  0  0  0  0  0  0  0  0  0  0  0  0  # atno 8637 bound_to 4327
   -5.6584  -23.6520  -37.3138 LP  0  0  0  0  0  0  0  0  0  0  0  0  # atno 8638 bound_to 4362
  -15.7509  -26.3923  -35.1447 LP  0  0  0  0  0  0  0  0  0  0  0  0  # atno 8639 bound_to 2196
  -16.5119  -26.9206  -36.6081 LP  0  0  0  0  0  0  0  0  0  0  0  0  # atno 8640 bound_to 2196
  -11.9650  -24.8463  -36.7077 LP  0  0  0  0  0  0  0  0  0  0  0  0  # atno 8641 bound_to 4706
  -13.2419  -23.7353  -37.0751 LP  0  0  0  0  0  0  0  0  0  0  0  0  # atno 8642 bound_to 4706
   -3.3154  -29.0659  -20.6217 LP  0  0  0  0  0  0  0  0  0  0  0  0  # atno 8647 bound_to 403 
   -3.3102  -28.4174  -22.2278 LP  0  0  0  0  0  0  0  0  0  0  0  0  # atno 8648 bound_to 403 
    0.3812  -28.4909  -35.7022 LP  0  0  0  0  0  0  0  0  0  0  0  0  # atno 8651 bound_to 2871
    0.6890  -28.0493  -34.0559 LP  0  0  0  0  0  0  0  0  0  0  0  0  # atno 8652 bound_to 2871
    0.9439  -23.1043  -35.5303 LP  0  0  0  0  0  0  0  0  0  0  0  0  # atno 8653 bound_to 2904
    0.6396  -24.3269  -34.3418 LP  0  0  0  0  0  0  0  0  0  0  0  0  # atno 8654 bound_to 2904
   -7.6393  -24.1619  -37.5612 LP  0  0  0  0  0  0  0  0  0  0  0  0  # atno 8655 bound_to 4663
   -9.0098  -24.3598  -36.5207 LP  0  0  0  0  0  0  0  0  0  0  0  0  # atno 8656 bound_to 4663
   -4.1431  -25.9761  -37.2755 LP  0  0  0  0  0  0  0  0  0  0  0  0  # atno 8657 bound_to 4400

> <Gold.Score>
     Fitness  S(hb_ext) S(vdw_ext)  S(hb_int)    S(int)      intcor
     27.74       5.54      16.52       0.00      -0.51      -0.79

> <Gold.Goldscore.Fitness>
27.7401

> <Gold.Goldscore.Internal.Vdw>
-0.7262

> <Gold.Goldscore.Internal.Torsion>
-0.5736

> <Gold.Goldscore.External.Vdw>
16.5204

> <Gold.Goldscore.Internal.HBond>
0.0000

> <Gold.Goldscore.External.HBond>
5.5383

> <Gold.Goldscore.Internal.Correction>
-0.7860

> <Gold.Goldscore.Hbonds>
donor molecule, donor type, donor heavy atom, donor atom, acceptor molecule, acceptor atom, score
      P1  H   481   498       L1     9  0.01
      L1  H     8    22       P1  4270  0.46
      L1  H    10    23       P1  4768  0.75

> <Gold.Goldscore.Internal.Vdw.Weighted>
-0.7262

> <Gold.Goldscore.Internal.Torsion.Weighted>
-0.5736

> <Gold.Goldscore.External.Vdw.Weighted>
22.7156

> <Gold.Goldscore.Internal.HBond.Weighted>
0.0000

> <Gold.Goldscore.External.HBond.Weighted>
5.5383

> <Gold.Goldscore.Internal.Correction.Weighted>
-0.7860

> <Gold.Rescore>
     Score     S(PLP)   S(hbond)     S(cho)   S(metal)  DE(clash)   DE(tors)     intcor
     20.20     -17.66       1.28       0.00       0.00       0.00       0.65       ----

> <Gold.PLP.Fitness>
20.2025

> <Gold.PLP.PLP>
-17.6578

> <Gold.PLP.part.hbond>
-1.1927

> <Gold.PLP.part.metal>
0.0000

> <Gold.PLP.part.buried>
-3.3214

> <Gold.PLP.part.nonpolar>
-19.2234

> <Gold.PLP.part.repulsive>
6.6717

> <Gold.PLP.ligand.clash>
0.0000

> <Gold.PLP.ligand.torsion>
0.6533

> <Gold.PLP.Chemscore.Hbond>
1.2838

> <Gold.PLP.Chemscore.CHOScore>
0.0000

> <Gold.PLP.Chemscore.Metal>
0.0000

> <Gold.Chemscore.Hbonds>
donor molecule, donor type, donor heavy atom, donor atom, acceptor molecule, acceptor atom, score
      L1  H     8    22       P1  4270  1.00
      L1  H    10    23       P1  4768  0.23

> <Gold.PLP.Chemscore.Internal.Correction>
   9.000000E+99

