#       Name:                CT1002167954
#       Creating user name   hitesit
#       Creation time:       Sun Apr 16 02:21:26 2023


#       File generated by GOLD software.
#

@<TRIPOS>MOLECULE
CT1002167954|ligand_prepared|mol2|1|dock7
    29    30     1
SMALL
NO_CHARGES


@<TRIPOS>ATOM
      1 C1          13.4589  23.3960  16.7614 C.3            1 RES1               0.0000
      2 C2          12.2033  23.0763  17.5981 C.ar           1 RES1               0.0000
      3 C3          13.2669  22.6996  15.4174 C.2            1 RES1               0.0000
      4 C4          13.5346  24.9160  16.6693 C.2            1 RES1               0.0000
      5 C5          14.7764  22.8894  17.3933 C.3            1 RES1               0.0000
      6 C6          10.9342  23.1667  17.0342 C.ar           1 RES1               0.0000
      7 C7          12.2981  22.6879  18.9318 C.ar           1 RES1               0.0000
      8 N8          12.9664  23.4788  14.3393 N.am           1 RES1               0.0000
      9 O9          13.3390  21.4813  15.3129 O.2            1 RES1               0.0000
     10 N10         13.3747  25.4933  15.4369 N.am           1 RES1               0.0000
     11 O11         13.7147  25.6199  17.6554 O.2            1 RES1               0.0000
     12 C12         15.9759  22.9767  16.4629 C.3            1 RES1               0.0000
     13 C13          9.8010  22.8765  17.7759 C.ar           1 RES1               0.0000
     14 C14         11.1636  22.3983  19.6717 C.ar           1 RES1               0.0000
     15 C15         13.0634  24.8455  14.2726 C.2            1 RES1               0.0000
     16 C16          9.9149  22.4917  19.0948 C.ar           1 RES1               0.0000
     17 O17         12.8814  25.4397  13.2138 O.2            1 RES1               0.0000
     18 H18         14.9851  23.4788  18.2947 H              1 RES1               0.0000
     19 H19         14.6423  21.8446  17.6995 H              1 RES1               0.0000
     20 H20         10.8247  23.4703  15.9984 H              1 RES1               0.0000
     21 H21         13.2701  22.6087  19.4068 H              1 RES1               0.0000
     22 H22         12.6392  23.0012  13.5055 H              1 RES1               0.0000
     23 H23         13.4993  26.4992  15.3824 H              1 RES1               0.0000
     24 H24         16.8736  22.6089  16.9554 H              1 RES1               0.0000
     25 H25         15.8131  22.3815  15.5667 H              1 RES1               0.0000
     26 H26         16.1538  24.0060  16.1585 H              1 RES1               0.0000
     27 H27          8.8205  22.9528  17.3176 H              1 RES1               0.0000
     28 H28         11.2579  22.0965  20.7096 H              1 RES1               0.0000
     29 H29          9.0271  22.2640  19.6755 H              1 RES1               0.0000
@<TRIPOS>BOND
    1    1    2 1     
    2    1    3 1     
    3    1    4 1     
    4    1    5 1     
    5    2    6 ar    
    6    2    7 ar    
    7    3    8 1     
    8    3    9 2     
    9    4   10 1     
   10    4   11 2     
   11    5   12 1     
   12    5   18 1     
   13    5   19 1     
   14    6   13 ar    
   15    6   20 1     
   16    7   14 ar    
   17    7   21 1     
   18    8   15 1     
   19    8   22 1     
   20   10   15 1     
   21   10   23 1     
   22   12   24 1     
   23   12   25 1     
   24   12   26 1     
   25   13   16 ar    
   26   13   27 1     
   27   14   16 ar    
   28   14   28 1     
   29   15   17 2     
   30   16   29 1     
@<TRIPOS>SUBSTRUCTURE
      1 RES1           1
@<TRIPOS>SET
DONOR_HYDROGENS      STATIC     ATOMS    <user>   **** ""
2 22 23
ATOM$RED        STATIC     ATOMS    COLORGROUP SYSTEM
2 22 23
@<TRIPOS>COMMENT
> <Gold.Version>
2022.3.0

> <Gold.Id.Protein>
unknown|2h24_cavity_clean|pdb

> <Gold.Protein.RotatedTorsions>
[  863  854  853  851 ] final -170.62 input   59.98 | X-H torsion

> <Gold.Protein.ActiveResidues>
 LEU19   MET22   LEU23   LEU26   ARG27   PHE30   VAL33   PHE37   LEU46   LEU47  
 LEU48   LYS49   GLU50   LEU52   LEU53   PHE56   GLY61   CYS62   LEU65   MET68  
 ILE69   TYR72   VAL76   MET77   ALA80   ILE87   VAL91   LEU94   LEU98   LEU101 
 LEU105  PHE111  LEU112 

> <Gold.Protein.RotatedAtoms>
   13.4424   20.0851   20.2147 H   0  0  0  0  0  0  0  0  0  0  0  0  # atno 863  bound_to 854 
   12.6062   18.8923   20.9395 LP  0  0  0  0  0  0  0  0  0  0  0  0  # atno 2322 bound_to 854 
   12.1697   20.4503   21.1604 LP  0  0  0  0  0  0  0  0  0  0  0  0  # atno 2323 bound_to 854 

> <Gold.Score>
     Fitness  S(hb_ext) S(vdw_ext)  S(hb_int)    S(int)      intcor
     31.61       0.00      23.11       0.00      -0.16      -0.76

> <Gold.Goldscore.Fitness>
31.6112

> <Gold.Goldscore.Internal.Vdw>
-0.3787

> <Gold.Goldscore.Internal.Torsion>
-0.5437

> <Gold.Goldscore.External.Vdw>
23.1091

> <Gold.Goldscore.Internal.HBond>
0.0000

> <Gold.Goldscore.External.HBond>
0.0000

> <Gold.Goldscore.Internal.Correction>
-0.7585

> <Gold.Goldscore.Internal.Vdw.Weighted>
-0.3787

> <Gold.Goldscore.Internal.Torsion.Weighted>
-0.5437

> <Gold.Goldscore.External.Vdw.Weighted>
31.7750

> <Gold.Goldscore.Internal.HBond.Weighted>
0.0000

> <Gold.Goldscore.External.HBond.Weighted>
0.0000

> <Gold.Goldscore.Internal.Correction.Weighted>
-0.7585

> <Gold.Rescore>
     Score     S(PLP)   S(hbond)     S(cho)   S(metal)  DE(clash)   DE(tors)     intcor
     35.23     -35.40       0.00       0.00       0.00       0.00       0.09       ----

> <Gold.PLP.Fitness>
35.2277

> <Gold.PLP.PLP>
-35.4032

> <Gold.PLP.part.hbond>
0.0000

> <Gold.PLP.part.metal>
0.0000

> <Gold.PLP.part.buried>
-2.9986

> <Gold.PLP.part.nonpolar>
-32.3919

> <Gold.PLP.part.repulsive>
0.1062

> <Gold.PLP.ligand.clash>
0.0000

> <Gold.PLP.ligand.torsion>
0.0878

> <Gold.PLP.Chemscore.Hbond>
0.0000

> <Gold.PLP.Chemscore.CHOScore>
0.0000

> <Gold.PLP.Chemscore.Metal>
0.0000

> <Gold.PLP.Chemscore.Internal.Correction>
   9.000000E+99

