#       Name:                CT1002167954
#       Creating user name   hitesit
#       Creation time:       Sun Apr 16 02:21:25 2023


#       File generated by GOLD software.
#

@<TRIPOS>MOLECULE
CT1002167954|ligand_prepared|mol2|1|dock6
    29    30     1
SMALL
NO_CHARGES


@<TRIPOS>ATOM
      1 C1           9.9725  23.8283  19.8164 C.3            1 RES1               0.0000
      2 C2           9.0394  22.8003  20.4880 C.ar           1 RES1               0.0000
      3 C3          11.3973  23.3494  20.0790 C.2            1 RES1               0.0000
      4 C4           9.5870  23.8548  18.3415 C.2            1 RES1               0.0000
      5 C5           9.8261  25.2632  20.3743 C.3            1 RES1               0.0000
      6 C6           8.8463  22.8128  21.8662 C.ar           1 RES1               0.0000
      7 C7           8.3639  21.8368  19.7437 C.ar           1 RES1               0.0000
      8 N8          12.0814  22.7992  19.0353 N.am           1 RES1               0.0000
      9 O9          11.8989  23.4171  21.1943 O.2            1 RES1               0.0000
     10 N10         10.5076  23.4101  17.4291 N.am           1 RES1               0.0000
     11 O11          8.4881  24.2411  17.9626 O.2            1 RES1               0.0000
     12 C12         10.5155  26.3229  19.5294 C.3            1 RES1               0.0000
     13 C13          8.0061  21.8973  22.4778 C.ar           1 RES1               0.0000
     14 C14          7.5243  20.9220  20.3574 C.ar           1 RES1               0.0000
     15 C15         11.7258  22.8548  17.7116 C.2            1 RES1               0.0000
     16 C16          7.3443  20.9516  21.7240 C.ar           1 RES1               0.0000
     17 O17         12.4759  22.4277  16.8386 O.2            1 RES1               0.0000
     18 H18          8.7589  25.5072  20.4452 H              1 RES1               0.0000
     19 H19         10.2447  25.2924  21.3879 H              1 RES1               0.0000
     20 H20          9.3606  23.5481  22.4761 H              1 RES1               0.0000
     21 H21          8.4912  21.7940  18.6674 H              1 RES1               0.0000
     22 H22         12.9363  22.3002  19.2598 H              1 RES1               0.0000
     23 H23         10.2621  23.5017  16.4485 H              1 RES1               0.0000
     24 H24         10.3818  27.3108  19.9653 H              1 RES1               0.0000
     25 H25         11.5831  26.1254  19.4586 H              1 RES1               0.0000
     26 H26         10.1062  26.3390  18.5214 H              1 RES1               0.0000
     27 H27          7.8689  21.9239  23.5538 H              1 RES1               0.0000
     28 H28          7.0059  20.1791  19.7603 H              1 RES1               0.0000
     29 H29          6.6858  20.2347  22.2033 H              1 RES1               0.0000
@<TRIPOS>BOND
    1    1    2 1     
    2    1    3 1     
    3    1    4 1     
    4    1    5 1     
    5    2    6 ar    
    6    2    7 ar    
    7    3    8 1     
    8    3    9 2     
    9    4   10 1     
   10    4   11 2     
   11    5   12 1     
   12    5   18 1     
   13    5   19 1     
   14    6   13 ar    
   15    6   20 1     
   16    7   14 ar    
   17    7   21 1     
   18    8   15 1     
   19    8   22 1     
   20   10   15 1     
   21   10   23 1     
   22   12   24 1     
   23   12   25 1     
   24   12   26 1     
   25   13   16 ar    
   26   13   27 1     
   27   14   16 ar    
   28   14   28 1     
   29   15   17 2     
   30   16   29 1     
@<TRIPOS>SUBSTRUCTURE
      1 RES1           1
@<TRIPOS>SET
DONOR_HYDROGENS      STATIC     ATOMS    <user>   **** ""
2 22 23
ATOM$RED        STATIC     ATOMS    COLORGROUP SYSTEM
2 22 23
@<TRIPOS>COMMENT
> <Gold.Version>
2022.3.0

> <Gold.Id.Protein>
unknown|2h24_cavity_clean|pdb

> <Gold.Protein.RotatedTorsions>
[  863  854  853  851 ] final  -94.88 input   59.98 | X-H torsion

> <Gold.Protein.ActiveResidues>
 LEU19   MET22   LEU23   LEU26   ARG27   PHE30   VAL33   PHE37   LEU46   LEU47  
 LEU48   LYS49   GLU50   LEU52   LEU53   PHE56   GLY61   CYS62   LEU65   MET68  
 ILE69   TYR72   VAL76   MET77   ALA80   ILE87   VAL91   LEU94   LEU98   LEU101 
 LEU105  PHE111  LEU112 

> <Gold.Protein.RotatedAtoms>
   12.6707   20.7431   20.7552 H   0  0  0  0  0  0  0  0  0  0  0  0  # atno 863  bound_to 854 
   13.4240   19.3808   20.2818 LP  0  0  0  0  0  0  0  0  0  0  0  0  # atno 2322 bound_to 854 
   12.1293   19.2989   21.2736 LP  0  0  0  0  0  0  0  0  0  0  0  0  # atno 2323 bound_to 854 

> <Gold.Score>
     Fitness  S(hb_ext) S(vdw_ext)  S(hb_int)    S(int)      intcor
     32.89       0.08      24.70       0.00      -1.15      -0.76

> <Gold.Goldscore.Fitness>
32.8852

> <Gold.Goldscore.Internal.Vdw>
-1.3193

> <Gold.Goldscore.Internal.Torsion>
-0.5969

> <Gold.Goldscore.External.Vdw>
24.6988

> <Gold.Goldscore.Internal.HBond>
0.0000

> <Gold.Goldscore.External.HBond>
0.0756

> <Gold.Goldscore.Internal.Correction>
-0.7650

> <Gold.Goldscore.Hbonds>
donor molecule, donor type, donor heavy atom, donor atom, acceptor molecule, acceptor atom, score
      P1  H   854   863       L1     9  0.04

> <Gold.Goldscore.Internal.Vdw.Weighted>
-1.3193

> <Gold.Goldscore.Internal.Torsion.Weighted>
-0.5969

> <Gold.Goldscore.External.Vdw.Weighted>
33.9609

> <Gold.Goldscore.Internal.HBond.Weighted>
0.0000

> <Gold.Goldscore.External.HBond.Weighted>
0.0756

> <Gold.Goldscore.Internal.Correction.Weighted>
-0.7650

> <Gold.Rescore>
     Score     S(PLP)   S(hbond)     S(cho)   S(metal)  DE(clash)   DE(tors)     intcor
     34.32     -33.21       1.00       0.00       0.00       0.93       0.48       ----

> <Gold.PLP.Fitness>
34.3201

> <Gold.PLP.PLP>
-33.2062

> <Gold.PLP.part.hbond>
-1.0000

> <Gold.PLP.part.metal>
0.0000

> <Gold.PLP.part.buried>
-2.3089

> <Gold.PLP.part.nonpolar>
-31.1726

> <Gold.PLP.part.repulsive>
0.0000

> <Gold.PLP.ligand.clash>
0.9349

> <Gold.PLP.ligand.torsion>
0.4756

> <Gold.PLP.Chemscore.Hbond>
1.0000

> <Gold.PLP.Chemscore.CHOScore>
0.0000

> <Gold.PLP.Chemscore.Metal>
0.0000

> <Gold.PLP.Chemscore.Internal.Correction>
   9.000000E+99

