#       Name:                CT1002167954
#       Creating user name   hitesit
#       Creation time:       Sun Apr 16 02:23:34 2023


#       File generated by GOLD software.
#

@<TRIPOS>MOLECULE
CT1002167954|ligand_prepared|mol2|1|dock10
    29    30     1
SMALL
NO_CHARGES


@<TRIPOS>ATOM
      1 C1         133.7685 153.8465 147.9234 C.3            1 RES1               0.0000
      2 C2         132.5555 153.0834 148.4936 C.ar           1 RES1               0.0000
      3 C3         133.4073 154.2133 146.4870 C.2            1 RES1               0.0000
      4 C4         133.9844 155.0481 148.8368 C.2            1 RES1               0.0000
      5 C5         135.0749 153.0192 147.9055 C.3            1 RES1               0.0000
      6 C6         131.2707 153.6049 148.3750 C.ar           1 RES1               0.0000
      7 C7         132.7049 151.8579 149.1374 C.ar           1 RES1               0.0000
      8 N8         133.1023 155.5165 146.2253 N.am           1 RES1               0.0000
      9 O9         133.3524 153.3647 145.6054 O.2            1 RES1               0.0000
     10 N10        133.7874 156.2980 148.3108 N.am           1 RES1               0.0000
     11 O11        134.3071 154.9231 150.0118 O.2            1 RES1               0.0000
     12 C12        136.2473 153.7385 147.2571 C.3            1 RES1               0.0000
     13 C13        130.1746 152.9245 148.8790 C.ar           1 RES1               0.0000
     14 C14        131.6074 151.1793 149.6408 C.ar           1 RES1               0.0000
     15 C15        133.3264 156.5855 147.0551 C.2            1 RES1               0.0000
     16 C16        130.3421 151.7112 149.5118 C.ar           1 RES1               0.0000
     17 O17        133.1225 157.7342 146.6727 O.2            1 RES1               0.0000
     18 H18        135.3448 152.7630 148.9374 H              1 RES1               0.0000
     19 H19        134.8924 152.0826 147.3642 H              1 RES1               0.0000
     20 H20        131.1196 154.5596 147.8823 H              1 RES1               0.0000
     21 H21        133.6911 151.4208 149.2514 H              1 RES1               0.0000
     22 H22        132.6673 155.7145 145.3298 H              1 RES1               0.0000
     23 H23        134.0048 157.0872 148.9110 H              1 RES1               0.0000
     24 H24        137.1382 153.1142 147.2709 H              1 RES1               0.0000
     25 H25        136.0230 153.9862 146.2217 H              1 RES1               0.0000
     26 H26        136.4728 154.6625 147.7855 H              1 RES1               0.0000
     27 H27        129.1810 153.3481 148.7760 H              1 RES1               0.0000
     28 H28        131.7440 150.2250 150.1387 H              1 RES1               0.0000
     29 H29        129.4832 151.1783 149.9061 H              1 RES1               0.0000
@<TRIPOS>BOND
    1    1    2 1     
    2    1    3 1     
    3    1    4 1     
    4    1    5 1     
    5    2    6 ar    
    6    2    7 ar    
    7    3    8 1     
    8    3    9 2     
    9    4   10 1     
   10    4   11 2     
   11    5   12 1     
   12    5   18 1     
   13    5   19 1     
   14    6   13 ar    
   15    6   20 1     
   16    7   14 ar    
   17    7   21 1     
   18    8   15 1     
   19    8   22 1     
   20   10   15 1     
   21   10   23 1     
   22   12   24 1     
   23   12   25 1     
   24   12   26 1     
   25   13   16 ar    
   26   13   27 1     
   27   14   16 ar    
   28   14   28 1     
   29   15   17 2     
   30   16   29 1     
@<TRIPOS>SUBSTRUCTURE
      1 RES1           1
@<TRIPOS>SET
DONOR_HYDROGENS      STATIC     ATOMS    <user>   **** ""
2 22 23
ATOM$RED        STATIC     ATOMS    COLORGROUP SYSTEM
2 22 23
@<TRIPOS>COMMENT
> <Gold.Version>
2022.3.0

> <Gold.Id.Protein>
unknown|7xmr_cavity_clean|pdb

> <Gold.Protein.RotatedTorsions>
[ 12006 11997 11998 11999 ] final  141.94 input  108.66 | X-H torsion
[ 12016 12005 12004 12003 ] final -169.64 input   59.98 | X-H torsion
[ 1008 1003 1002 1001 ] final  -86.40 input   59.97 | X-H torsion
[ 12074 12063 12062 12061 ] final  142.67 input   60.02 | X-H torsion
[ 3571 3566 3564 3561 ] final -177.00 input   59.98 | X-H torsion
[ 10750 10743 10741 10738 ] final   72.33 input   60.00 | X-H torsion
[ 12029 12024 12023 12020 ] final  118.88 input   59.99 | X-H torsion
[ 11960 11951 11952 11953 ] final  -40.45 input   62.39 | X-H torsion

> <Gold.Protein.ActiveResidues>
 LYS192  PHE336  ASP337  THR340  ASP341  ILE344  THR163  MET164  ALA165  VAL166 
 TRP167  GLY168  LYS246  LYS249  SER250  LYS253  VAL254 

> <Gold.Protein.RotatedAtoms>
  145.1890  165.1026  124.5183 H   0  0  0  0  0  0  0  0  0  0  0  0  # atno 1008 bound_to 1003
  143.7091  164.7918  125.1976 H   0  0  0  0  0  0  0  0  0  0  0  0  # atno 1009 bound_to 1003
  144.7002  163.5372  124.7580 H   0  0  0  0  0  0  0  0  0  0  0  0  # atno 1010 bound_to 1003
  140.3123  161.7658  127.9459 H   0  0  0  0  0  0  0  0  0  0  0  0  # atno 3571 bound_to 3566
  135.7708  132.4294  123.7001 H   0  0  0  0  0  0  0  0  0  0  0  0  # atno 10750 bound_to 10743
  140.4482  163.8831  144.2320 H   0  0  0  0  0  0  0  0  0  0  0  0  # atno 11960 bound_to 11951
  140.2911  159.0996  147.7494 H   0  0  0  0  0  0  0  0  0  0  0  0  # atno 12006 bound_to 11997
  135.4421  160.2839  150.7342 H   0  0  0  0  0  0  0  0  0  0  0  0  # atno 12016 bound_to 12005
  134.6921  160.2034  149.2579 H   0  0  0  0  0  0  0  0  0  0  0  0  # atno 12017 bound_to 12005
  134.7993  158.8501  150.2081 H   0  0  0  0  0  0  0  0  0  0  0  0  # atno 12018 bound_to 12005
  140.6073  156.7802  141.3432 H   0  0  0  0  0  0  0  0  0  0  0  0  # atno 12029 bound_to 12024
  134.1996  149.0313  144.9504 H   0  0  0  0  0  0  0  0  0  0  0  0  # atno 12074 bound_to 12063
  134.1819  149.7317  146.4523 H   0  0  0  0  0  0  0  0  0  0  0  0  # atno 12075 bound_to 12063
  134.6171  150.6258  145.1258 H   0  0  0  0  0  0  0  0  0  0  0  0  # atno 12076 bound_to 12063
  138.8051  162.3142  128.2227 LP  0  0  0  0  0  0  0  0  0  0  0  0  # atno 13008 bound_to 3566
  139.0329  160.8152  127.6162 LP  0  0  0  0  0  0  0  0  0  0  0  0  # atno 13009 bound_to 3566
  136.1146  134.0195  123.6549 LP  0  0  0  0  0  0  0  0  0  0  0  0  # atno 13012 bound_to 10743
  134.9561  133.4600  124.6607 LP  0  0  0  0  0  0  0  0  0  0  0  0  # atno 13013 bound_to 10743
  141.3400  156.8110  142.7957 LP  0  0  0  0  0  0  0  0  0  0  0  0  # atno 13022 bound_to 12024
  140.5139  158.1165  142.2668 LP  0  0  0  0  0  0  0  0  0  0  0  0  # atno 13023 bound_to 12024

> <Gold.Score>
     Fitness  S(hb_ext) S(vdw_ext)  S(hb_int)    S(int)      intcor
     19.86       0.00      14.57       0.00      -0.17      -0.76

> <Gold.Goldscore.Fitness>
19.8571

> <Gold.Goldscore.Internal.Vdw>
-0.5465

> <Gold.Goldscore.Internal.Torsion>
-0.3930

> <Gold.Goldscore.External.Vdw>
14.5684

> <Gold.Goldscore.Internal.HBond>
0.0000

> <Gold.Goldscore.External.HBond>
0.0000

> <Gold.Goldscore.Internal.Correction>
-0.7650

> <Gold.Goldscore.Internal.Vdw.Weighted>
-0.5465

> <Gold.Goldscore.Internal.Torsion.Weighted>
-0.3930

> <Gold.Goldscore.External.Vdw.Weighted>
20.0316

> <Gold.Goldscore.Internal.HBond.Weighted>
0.0000

> <Gold.Goldscore.External.HBond.Weighted>
0.0000

> <Gold.Goldscore.Internal.Correction.Weighted>
-0.7650

> <Gold.Rescore>
     Score     S(PLP)   S(hbond)     S(cho)   S(metal)  DE(clash)   DE(tors)     intcor
     30.91     -28.62       0.91       0.00       0.00       0.00       0.22       ----

> <Gold.PLP.Fitness>
30.9051

> <Gold.PLP.PLP>
-28.6206

> <Gold.PLP.part.hbond>
-0.9843

> <Gold.PLP.part.metal>
0.0000

> <Gold.PLP.part.buried>
1.3986

> <Gold.PLP.part.nonpolar>
-29.3644

> <Gold.PLP.part.repulsive>
0.1467

> <Gold.PLP.ligand.clash>
0.0000

> <Gold.PLP.ligand.torsion>
0.2227

> <Gold.PLP.Chemscore.Hbond>
0.9100

> <Gold.PLP.Chemscore.CHOScore>
0.0000

> <Gold.PLP.Chemscore.Metal>
0.0000

> <Gold.PLP.Chemscore.Internal.Correction>
   9.000000E+99

