#       Name:                CT1002167954
#       Creating user name   hitesit
#       Creation time:       Sun Apr 16 02:23:27 2023


#       File generated by GOLD software.
#

@<TRIPOS>MOLECULE
CT1002167954|ligand_prepared|mol2|1|dock1
    29    30     1
SMALL
NO_CHARGES


@<TRIPOS>ATOM
      1 C1         133.3791 154.3585 148.1563 C.3            1 RES1               0.0000
      2 C2         134.8881 154.0400 148.1419 C.ar           1 RES1               0.0000
      3 C3         133.2207 155.7141 147.4739 C.2            1 RES1               0.0000
      4 C4         132.6936 153.2098 147.4247 C.2            1 RES1               0.0000
      5 C5         132.7733 154.4497 149.5763 C.3            1 RES1               0.0000
      6 C6         135.5885 153.8730 149.3328 C.ar           1 RES1               0.0000
      7 C7         135.5916 153.9079 146.9476 C.ar           1 RES1               0.0000
      8 N8         132.6993 155.7300 146.2138 N.am           1 RES1               0.0000
      9 O9         133.5846 156.7496 148.0176 O.2            1 RES1               0.0000
     10 N10        132.0683 153.4870 146.2373 N.am           1 RES1               0.0000
     11 O11        132.7037 152.0640 147.8574 O.2            1 RES1               0.0000
     12 C12        131.2789 154.7305 149.5885 C.3            1 RES1               0.0000
     13 C13        136.9425 153.5815 149.3300 C.ar           1 RES1               0.0000
     14 C14        136.9457 153.6165 146.9471 C.ar           1 RES1               0.0000
     15 C15        132.0664 154.6890 145.5834 C.2            1 RES1               0.0000
     16 C16        137.6219 153.4526 148.1373 C.ar           1 RES1               0.0000
     17 O17        131.5278 154.8466 144.4916 O.2            1 RES1               0.0000
     18 H18        132.9593 153.5044 150.1008 H              1 RES1               0.0000
     19 H19        133.2867 155.2464 150.1287 H              1 RES1               0.0000
     20 H20        135.0712 153.9731 150.2812 H              1 RES1               0.0000
     21 H21        135.0805 154.0336 145.9992 H              1 RES1               0.0000
     22 H22        132.7882 156.5960 145.6919 H              1 RES1               0.0000
     23 H23        131.5566 152.7269 145.8004 H              1 RES1               0.0000
     24 H24        130.9049 154.7845 150.6087 H              1 RES1               0.0000
     25 H25        131.0601 155.6761 149.0968 H              1 RES1               0.0000
     26 H26        130.7346 153.9445 149.0691 H              1 RES1               0.0000
     27 H27        137.4703 153.4548 150.2694 H              1 RES1               0.0000
     28 H28        137.4765 153.5166 146.0061 H              1 RES1               0.0000
     29 H29        138.6825 153.2238 148.1354 H              1 RES1               0.0000
@<TRIPOS>BOND
    1    1    2 1     
    2    1    3 1     
    3    1    4 1     
    4    1    5 1     
    5    2    6 ar    
    6    2    7 ar    
    7    3    8 1     
    8    3    9 2     
    9    4   10 1     
   10    4   11 2     
   11    5   12 1     
   12    5   18 1     
   13    5   19 1     
   14    6   13 ar    
   15    6   20 1     
   16    7   14 ar    
   17    7   21 1     
   18    8   15 1     
   19    8   22 1     
   20   10   15 1     
   21   10   23 1     
   22   12   24 1     
   23   12   25 1     
   24   12   26 1     
   25   13   16 ar    
   26   13   27 1     
   27   14   16 ar    
   28   14   28 1     
   29   15   17 2     
   30   16   29 1     
@<TRIPOS>SUBSTRUCTURE
      1 RES1           1
@<TRIPOS>SET
DONOR_HYDROGENS      STATIC     ATOMS    <user>   **** ""
2 22 23
ATOM$RED        STATIC     ATOMS    COLORGROUP SYSTEM
2 22 23
@<TRIPOS>COMMENT
> <Gold.Version>
2022.3.0

> <Gold.Id.Protein>
unknown|7xmr_cavity_clean|pdb

> <Gold.Protein.RotatedTorsions>
[ 12006 11997 11998 11999 ] final  169.01 input  108.66 | X-H torsion
[ 12016 12005 12004 12003 ] final -153.52 input   59.98 | X-H torsion
[ 1008 1003 1002 1001 ] final   49.40 input   59.97 | X-H torsion
[ 12074 12063 12062 12061 ] final   -8.67 input   60.02 | X-H torsion
[ 3571 3566 3564 3561 ] final  121.41 input   59.98 | X-H torsion
[ 10750 10743 10741 10738 ] final  124.64 input   60.00 | X-H torsion
[ 12029 12024 12023 12020 ] final -101.18 input   59.99 | X-H torsion
[ 11960 11951 11952 11953 ] final -144.20 input   62.39 | X-H torsion

> <Gold.Protein.ActiveResidues>
 LYS192  PHE336  ASP337  THR340  ASP341  ILE344  THR163  MET164  ALA165  VAL166 
 TRP167  GLY168  LYS246  LYS249  SER250  LYS253  VAL254 

> <Gold.Protein.RotatedAtoms>
  143.6640  164.5343  125.2218 H   0  0  0  0  0  0  0  0  0  0  0  0  # atno 1008 bound_to 1003
  144.9262  163.6218  124.6541 H   0  0  0  0  0  0  0  0  0  0  0  0  # atno 1009 bound_to 1003
  145.0080  165.2770  124.5980 H   0  0  0  0  0  0  0  0  0  0  0  0  # atno 1010 bound_to 1003
  139.7116  162.4515  128.2435 H   0  0  0  0  0  0  0  0  0  0  0  0  # atno 3571 bound_to 3566
  135.1847  132.5142  124.2752 H   0  0  0  0  0  0  0  0  0  0  0  0  # atno 10750 bound_to 10743
  139.3808  164.6428  144.7245 H   0  0  0  0  0  0  0  0  0  0  0  0  # atno 11960 bound_to 11951
  140.5870  158.9940  148.0169 H   0  0  0  0  0  0  0  0  0  0  0  0  # atno 12006 bound_to 11997
  135.4068  160.4812  150.5557 H   0  0  0  0  0  0  0  0  0  0  0  0  # atno 12016 bound_to 12005
  134.6003  159.9568  149.2054 H   0  0  0  0  0  0  0  0  0  0  0  0  # atno 12017 bound_to 12005
  134.9264  158.8996  150.4390 H   0  0  0  0  0  0  0  0  0  0  0  0  # atno 12018 bound_to 12005
  140.6758  158.0636  142.5437 H   0  0  0  0  0  0  0  0  0  0  0  0  # atno 12029 bound_to 12024
  134.5702  150.7155  145.6323 H   0  0  0  0  0  0  0  0  0  0  0  0  # atno 12074 bound_to 12063
  134.3505  149.4117  144.6331 H   0  0  0  0  0  0  0  0  0  0  0  0  # atno 12075 bound_to 12063
  134.0786  149.2630  146.2617 H   0  0  0  0  0  0  0  0  0  0  0  0  # atno 12076 bound_to 12063
  138.4566  161.4731  127.9018 LP  0  0  0  0  0  0  0  0  0  0  0  0  # atno 13008 bound_to 3566
  139.9862  160.9661  127.6376 LP  0  0  0  0  0  0  0  0  0  0  0  0  # atno 13009 bound_to 3566
  136.2919  133.2668  123.3500 LP  0  0  0  0  0  0  0  0  0  0  0  0  # atno 13012 bound_to 10743
  135.3690  134.1273  124.3865 LP  0  0  0  0  0  0  0  0  0  0  0  0  # atno 13013 bound_to 10743
  140.4576  157.0619  141.2802 LP  0  0  0  0  0  0  0  0  0  0  0  0  # atno 13022 bound_to 12024
  141.3273  156.5728  142.5728 LP  0  0  0  0  0  0  0  0  0  0  0  0  # atno 13023 bound_to 12024

> <Gold.Score>
     Fitness  S(hb_ext) S(vdw_ext)  S(hb_int)    S(int)      intcor
     24.90       0.00      18.68       0.00      -0.79      -0.79

> <Gold.Goldscore.Fitness>
24.9007

> <Gold.Goldscore.Internal.Vdw>
-1.2062

> <Gold.Goldscore.Internal.Torsion>
-0.3697

> <Gold.Goldscore.External.Vdw>
18.6848

> <Gold.Goldscore.Internal.HBond>
0.0000

> <Gold.Goldscore.External.HBond>
0.0000

> <Gold.Goldscore.Internal.Correction>
-0.7850

> <Gold.Goldscore.Internal.Vdw.Weighted>
-1.2062

> <Gold.Goldscore.Internal.Torsion.Weighted>
-0.3697

> <Gold.Goldscore.External.Vdw.Weighted>
25.6916

> <Gold.Goldscore.Internal.HBond.Weighted>
0.0000

> <Gold.Goldscore.External.HBond.Weighted>
0.0000

> <Gold.Goldscore.Internal.Correction.Weighted>
-0.7850

> <Gold.Rescore>
     Score     S(PLP)   S(hbond)     S(cho)   S(metal)  DE(clash)   DE(tors)     intcor
     26.72     -27.45       0.00       0.00       0.00       0.00       0.36       ----

> <Gold.PLP.Fitness>
26.7190

> <Gold.PLP.PLP>
-27.4454

> <Gold.PLP.part.hbond>
-0.4984

> <Gold.PLP.part.metal>
0.0000

> <Gold.PLP.part.buried>
-0.7396

> <Gold.PLP.part.nonpolar>
-26.0407

> <Gold.PLP.part.repulsive>
0.1462

> <Gold.PLP.ligand.clash>
0.0000

> <Gold.PLP.ligand.torsion>
0.3632

> <Gold.PLP.Chemscore.Hbond>
0.0000

> <Gold.PLP.Chemscore.CHOScore>
0.0000

> <Gold.PLP.Chemscore.Metal>
0.0000

> <Gold.PLP.Chemscore.Internal.Correction>
   9.000000E+99

