#       Name:                CT1002167954
#       Creating user name   hitesit
#       Creation time:       Sun Apr 16 02:23:30 2023


#       File generated by GOLD software.
#

@<TRIPOS>MOLECULE
CT1002167954|ligand_prepared|mol2|1|dock5
    29    30     1
SMALL
NO_CHARGES


@<TRIPOS>ATOM
      1 C1         132.7891 153.7302 146.9416 C.3            1 RES1               0.0000
      2 C2         131.9475 153.8834 145.6583 C.ar           1 RES1               0.0000
      3 C3         134.1118 153.1009 146.5140 C.2            1 RES1               0.0000
      4 C4         132.9276 155.1296 147.5306 C.2            1 RES1               0.0000
      5 C5         132.1373 152.8238 148.0118 C.3            1 RES1               0.0000
      6 C6         131.9738 155.0697 144.9311 C.ar           1 RES1               0.0000
      7 C7         131.1435 152.8483 145.1885 C.ar           1 RES1               0.0000
      8 N8         135.2144 153.9030 146.4896 N.am           1 RES1               0.0000
      9 O9         134.1785 151.9286 146.1655 O.2            1 RES1               0.0000
     10 N10        134.1778 155.6895 147.5684 N.am           1 RES1               0.0000
     11 O11        131.9630 155.7592 147.9471 O.2            1 RES1               0.0000
     12 C12        132.8506 152.8499 149.3544 C.3            1 RES1               0.0000
     13 C13        131.2257 155.2150 143.7745 C.ar           1 RES1               0.0000
     14 C14        130.3960 152.9958 144.0317 C.ar           1 RES1               0.0000
     15 C15        135.3227 155.1520 147.0465 C.2            1 RES1               0.0000
     16 C16        130.4368 154.1781 143.3238 C.ar           1 RES1               0.0000
     17 O17        136.3999 155.7405 147.0705 O.2            1 RES1               0.0000
     18 H18        131.0976 153.1418 148.1581 H              1 RES1               0.0000
     19 H19        132.1231 151.7920 147.6395 H              1 RES1               0.0000
     20 H20        132.5868 155.8975 145.2717 H              1 RES1               0.0000
     21 H21        131.0950 151.9095 145.7297 H              1 RES1               0.0000
     22 H22        136.0342 153.5408 146.0131 H              1 RES1               0.0000
     23 H23        134.2628 156.5904 148.0283 H              1 RES1               0.0000
     24 H24        132.3527 152.1973 150.0684 H              1 RES1               0.0000
     25 H25        133.8807 152.5152 149.2505 H              1 RES1               0.0000
     26 H26        132.8613 153.8570 149.7660 H              1 RES1               0.0000
     27 H27        131.2602 156.1480 143.2218 H              1 RES1               0.0000
     28 H28        129.7760 152.1773 143.6810 H              1 RES1               0.0000
     29 H29        129.8512 154.2920 142.4176 H              1 RES1               0.0000
@<TRIPOS>BOND
    1    1    2 1     
    2    1    3 1     
    3    1    4 1     
    4    1    5 1     
    5    2    6 ar    
    6    2    7 ar    
    7    3    8 1     
    8    3    9 2     
    9    4   10 1     
   10    4   11 2     
   11    5   12 1     
   12    5   18 1     
   13    5   19 1     
   14    6   13 ar    
   15    6   20 1     
   16    7   14 ar    
   17    7   21 1     
   18    8   15 1     
   19    8   22 1     
   20   10   15 1     
   21   10   23 1     
   22   12   24 1     
   23   12   25 1     
   24   12   26 1     
   25   13   16 ar    
   26   13   27 1     
   27   14   16 ar    
   28   14   28 1     
   29   15   17 2     
   30   16   29 1     
@<TRIPOS>SUBSTRUCTURE
      1 RES1           1
@<TRIPOS>SET
DONOR_HYDROGENS      STATIC     ATOMS    <user>   **** ""
2 22 23
ATOM$RED        STATIC     ATOMS    COLORGROUP SYSTEM
2 22 23
@<TRIPOS>COMMENT
> <Gold.Version>
2022.3.0

> <Gold.Id.Protein>
unknown|7xmr_cavity_clean|pdb

> <Gold.Protein.RotatedTorsions>
[ 12006 11997 11998 11999 ] final -140.61 input  108.66 | X-H torsion
[ 12016 12005 12004 12003 ] final   38.39 input   59.98 | X-H torsion
[ 1008 1003 1002 1001 ] final  174.39 input   59.97 | X-H torsion
[ 12074 12063 12062 12061 ] final -144.74 input   60.02 | X-H torsion
[ 3571 3566 3564 3561 ] final  115.91 input   59.98 | X-H torsion
[ 10750 10743 10741 10738 ] final   35.77 input   60.00 | X-H torsion
[ 12029 12024 12023 12020 ] final   47.85 input   59.99 | X-H torsion
[ 11960 11951 11952 11953 ] final   -6.50 input   62.39 | X-H torsion

> <Gold.Protein.ActiveResidues>
 LYS192  PHE336  ASP337  THR340  ASP341  ILE344  THR163  MET164  ALA165  VAL166 
 TRP167  GLY168  LYS246  LYS249  SER250  LYS253  VAL254 

> <Gold.Protein.RotatedAtoms>
  144.9921  163.6624  124.6243 H   0  0  0  0  0  0  0  0  0  0  0  0  # atno 1008 bound_to 1003
  144.9430  165.3194  124.6276 H   0  0  0  0  0  0  0  0  0  0  0  0  # atno 1009 bound_to 1003
  143.6622  164.4502  125.2224 H   0  0  0  0  0  0  0  0  0  0  0  0  # atno 1010 bound_to 1003
  139.6259  162.4756  128.2566 H   0  0  0  0  0  0  0  0  0  0  0  0  # atno 3571 bound_to 3566
  136.1358  132.7920  123.4167 H   0  0  0  0  0  0  0  0  0  0  0  0  # atno 10750 bound_to 10743
  140.3670  163.7439  143.7382 H   0  0  0  0  0  0  0  0  0  0  0  0  # atno 11960 bound_to 11951
  141.2339  158.6160  148.0547 H   0  0  0  0  0  0  0  0  0  0  0  0  # atno 12006 bound_to 11997
  134.5970  158.9656  149.7349 H   0  0  0  0  0  0  0  0  0  0  0  0  # atno 12016 bound_to 12005
  135.4037  159.7935  150.9234 H   0  0  0  0  0  0  0  0  0  0  0  0  # atno 12017 bound_to 12005
  134.9322  160.5768  149.5414 H   0  0  0  0  0  0  0  0  0  0  0  0  # atno 12018 bound_to 12005
  141.1979  156.3790  142.1636 H   0  0  0  0  0  0  0  0  0  0  0  0  # atno 12029 bound_to 12024
  134.0531  149.0756  146.0730 H   0  0  0  0  0  0  0  0  0  0  0  0  # atno 12074 bound_to 12063
  134.5178  150.6557  145.8887 H   0  0  0  0  0  0  0  0  0  0  0  0  # atno 12075 bound_to 12063
  134.4280  149.6586  144.5673 H   0  0  0  0  0  0  0  0  0  0  0  0  # atno 12076 bound_to 12063
  138.4759  161.3913  127.8683 LP  0  0  0  0  0  0  0  0  0  0  0  0  # atno 13008 bound_to 3566
  140.0530  161.0237  127.6578 LP  0  0  0  0  0  0  0  0  0  0  0  0  # atno 13009 bound_to 3566
  135.7361  134.2345  124.0552 LP  0  0  0  0  0  0  0  0  0  0  0  0  # atno 13012 bound_to 10743
  134.9671  132.8799  124.5457 LP  0  0  0  0  0  0  0  0  0  0  0  0  # atno 13013 bound_to 10743
  140.9382  157.8283  142.8562 LP  0  0  0  0  0  0  0  0  0  0  0  0  # atno 13022 bound_to 12024
  140.3207  157.5034  141.3798 LP  0  0  0  0  0  0  0  0  0  0  0  0  # atno 13023 bound_to 12024

> <Gold.Score>
     Fitness  S(hb_ext) S(vdw_ext)  S(hb_int)    S(int)      intcor
     28.57       5.24      17.45       0.00      -0.67      -0.76

> <Gold.Goldscore.Fitness>
28.5658

> <Gold.Goldscore.Internal.Vdw>
-0.9382

> <Gold.Goldscore.Internal.Torsion>
-0.5016

> <Gold.Goldscore.External.Vdw>
17.4550

> <Gold.Goldscore.Internal.HBond>
0.0000

> <Gold.Goldscore.External.HBond>
5.2401

> <Gold.Goldscore.Internal.Correction>
-0.7650

> <Gold.Goldscore.Hbonds>
donor molecule, donor type, donor heavy atom, donor atom, acceptor molecule, acceptor atom, score
      P1  H 12063 12075       L1     9  0.87

> <Gold.Goldscore.Internal.Vdw.Weighted>
-0.9382

> <Gold.Goldscore.Internal.Torsion.Weighted>
-0.5016

> <Gold.Goldscore.External.Vdw.Weighted>
24.0006

> <Gold.Goldscore.Internal.HBond.Weighted>
0.0000

> <Gold.Goldscore.External.HBond.Weighted>
5.2401

> <Gold.Goldscore.Internal.Correction.Weighted>
-0.7650

> <Gold.Rescore>
     Score     S(PLP)   S(hbond)     S(cho)   S(metal)  DE(clash)   DE(tors)     intcor
     26.04     -25.12       1.00       0.00       0.00       0.10       0.99       ----

> <Gold.PLP.Fitness>
26.0408

> <Gold.PLP.PLP>
-25.1240

> <Gold.PLP.part.hbond>
-2.0000

> <Gold.PLP.part.metal>
0.0000

> <Gold.PLP.part.buried>
3.9546

> <Gold.PLP.part.nonpolar>
-26.7321

> <Gold.PLP.part.repulsive>
0.0714

> <Gold.PLP.ligand.clash>
0.0970

> <Gold.PLP.ligand.torsion>
0.9931

> <Gold.PLP.Chemscore.Hbond>
1.0000

> <Gold.PLP.Chemscore.CHOScore>
0.0000

> <Gold.PLP.Chemscore.Metal>
0.0000

> <Gold.Chemscore.Hbonds>
donor molecule, donor type, donor heavy atom, donor atom, acceptor molecule, acceptor atom, score
      P1  H 12063 12075       L1     9  0.36

> <Gold.PLP.Chemscore.Internal.Correction>
   9.000000E+99

