#       Name:                CT1002167954
#       Creating user name   hitesit
#       Creation time:       Sun Apr 16 02:23:31 2023


#       File generated by GOLD software.
#

@<TRIPOS>MOLECULE
CT1002167954|ligand_prepared|mol2|1|dock6
    29    30     1
SMALL
NO_CHARGES


@<TRIPOS>ATOM
      1 C1         133.2120 155.3199 148.0171 C.3            1 RES1               0.0000
      2 C2         132.2130 155.5011 149.1780 C.ar           1 RES1               0.0000
      3 C3         132.6864 154.1598 147.1767 C.2            1 RES1               0.0000
      4 C4         133.2549 156.6534 147.2791 C.2            1 RES1               0.0000
      5 C5         134.6494 154.9817 148.4767 C.3            1 RES1               0.0000
      6 C6         132.5138 156.3392 150.2475 C.ar           1 RES1               0.0000
      7 C7         130.9876 154.8401 149.1923 C.ar           1 RES1               0.0000
      8 N8         132.1172 154.4581 145.9738 N.am           1 RES1               0.0000
      9 O9         132.7349 153.0046 147.5808 O.2            1 RES1               0.0000
     10 N10        132.7832 156.6910 145.9931 N.am           1 RES1               0.0000
     11 O11        133.6776 157.6755 147.8054 O.2            1 RES1               0.0000
     12 C12        135.6046 154.6825 147.3322 C.3            1 RES1               0.0000
     13 C13        131.6208 156.5126 151.2919 C.ar           1 RES1               0.0000
     14 C14        130.0962 155.0147 150.2379 C.ar           1 RES1               0.0000
     15 C15        132.1879 155.6607 145.3176 C.2            1 RES1               0.0000
     16 C16        130.4114 155.8510 151.2877 C.ar           1 RES1               0.0000
     17 O17        131.7391 155.7867 144.1820 O.2            1 RES1               0.0000
     18 H18        135.0436 155.8272 149.0538 H              1 RES1               0.0000
     19 H19        134.6115 154.1103 149.1420 H              1 RES1               0.0000
     20 H20        133.4618 156.8663 150.2694 H              1 RES1               0.0000
     21 H21        130.7188 154.1764 148.3775 H              1 RES1               0.0000
     22 H22        131.5902 153.7186 145.5202 H              1 RES1               0.0000
     23 H23        132.8853 157.5684 145.4930 H              1 RES1               0.0000
     24 H24        136.5986 154.4517 147.7097 H              1 RES1               0.0000
     25 H25        135.2564 153.8306 146.7517 H              1 RES1               0.0000
     26 H26        135.6859 155.5374 146.6641 H              1 RES1               0.0000
     27 H27        131.8743 157.1708 152.1165 H              1 RES1               0.0000
     28 H28        129.1457 154.4915 150.2307 H              1 RES1               0.0000
     29 H29        129.7119 155.9873 152.1058 H              1 RES1               0.0000
@<TRIPOS>BOND
    1    1    2 1     
    2    1    3 1     
    3    1    4 1     
    4    1    5 1     
    5    2    6 ar    
    6    2    7 ar    
    7    3    8 1     
    8    3    9 2     
    9    4   10 1     
   10    4   11 2     
   11    5   12 1     
   12    5   18 1     
   13    5   19 1     
   14    6   13 ar    
   15    6   20 1     
   16    7   14 ar    
   17    7   21 1     
   18    8   15 1     
   19    8   22 1     
   20   10   15 1     
   21   10   23 1     
   22   12   24 1     
   23   12   25 1     
   24   12   26 1     
   25   13   16 ar    
   26   13   27 1     
   27   14   16 ar    
   28   14   28 1     
   29   15   17 2     
   30   16   29 1     
@<TRIPOS>SUBSTRUCTURE
      1 RES1           1
@<TRIPOS>SET
DONOR_HYDROGENS      STATIC     ATOMS    <user>   **** ""
2 22 23
ATOM$RED        STATIC     ATOMS    COLORGROUP SYSTEM
2 22 23
@<TRIPOS>COMMENT
> <Gold.Version>
2022.3.0

> <Gold.Id.Protein>
unknown|7xmr_cavity_clean|pdb

> <Gold.Protein.RotatedTorsions>
[ 12006 11997 11998 11999 ] final   61.57 input  108.66 | X-H torsion
[ 12016 12005 12004 12003 ] final   83.93 input   59.98 | X-H torsion
[ 1008 1003 1002 1001 ] final  -32.01 input   59.97 | X-H torsion
[ 12074 12063 12062 12061 ] final   -9.21 input   60.02 | X-H torsion
[ 3571 3566 3564 3561 ] final  -43.63 input   59.98 | X-H torsion
[ 10750 10743 10741 10738 ] final   83.67 input   60.00 | X-H torsion
[ 12029 12024 12023 12020 ] final  166.90 input   59.99 | X-H torsion
[ 11960 11951 11952 11953 ] final  -35.98 input   62.39 | X-H torsion

> <Gold.Protein.ActiveResidues>
 LYS192  PHE336  ASP337  THR340  ASP341  ILE344  THR163  MET164  ALA165  VAL166 
 TRP167  GLY168  LYS246  LYS249  SER250  LYS253  VAL254 

> <Gold.Protein.RotatedAtoms>
  144.4503  165.4303  124.8524 H   0  0  0  0  0  0  0  0  0  0  0  0  # atno 1008 bound_to 1003
  143.8237  163.9256  125.1548 H   0  0  0  0  0  0  0  0  0  0  0  0  # atno 1009 bound_to 1003
  145.3247  164.0763  124.4665 H   0  0  0  0  0  0  0  0  0  0  0  0  # atno 1010 bound_to 1003
  138.8441  160.9141  127.6661 H   0  0  0  0  0  0  0  0  0  0  0  0  # atno 3571 bound_to 3566
  135.6371  132.3834  123.8194 H   0  0  0  0  0  0  0  0  0  0  0  0  # atno 10750 bound_to 10743
  140.4532  163.8567  144.1680 H   0  0  0  0  0  0  0  0  0  0  0  0  # atno 11960 bound_to 11951
  140.2523  158.8263  146.6462 H   0  0  0  0  0  0  0  0  0  0  0  0  # atno 12006 bound_to 11997
  134.9056  158.8860  150.4040 H   0  0  0  0  0  0  0  0  0  0  0  0  # atno 12016 bound_to 12005
  135.4141  160.4534  150.5867 H   0  0  0  0  0  0  0  0  0  0  0  0  # atno 12017 bound_to 12005
  134.6135  159.9967  149.2096 H   0  0  0  0  0  0  0  0  0  0  0  0  # atno 12018 bound_to 12005
  140.3254  157.4867  141.3796 H   0  0  0  0  0  0  0  0  0  0  0  0  # atno 12029 bound_to 12024
  134.5687  150.7147  145.6411 H   0  0  0  0  0  0  0  0  0  0  0  0  # atno 12074 bound_to 12063
  134.3532  149.4196  144.6297 H   0  0  0  0  0  0  0  0  0  0  0  0  # atno 12075 bound_to 12063
  134.0774  149.2560  146.2562 H   0  0  0  0  0  0  0  0  0  0  0  0  # atno 12076 bound_to 12063
  140.3234  161.5638  127.8621 LP  0  0  0  0  0  0  0  0  0  0  0  0  # atno 13008 bound_to 3566
  138.9924  162.4228  128.2584 LP  0  0  0  0  0  0  0  0  0  0  0  0  # atno 13009 bound_to 3566
  136.1973  133.8878  123.5522 LP  0  0  0  0  0  0  0  0  0  0  0  0  # atno 13012 bound_to 10743
  135.0081  133.6381  124.6432 LP  0  0  0  0  0  0  0  0  0  0  0  0  # atno 13013 bound_to 10743
  141.2082  156.3768  142.1772 LP  0  0  0  0  0  0  0  0  0  0  0  0  # atno 13022 bound_to 12024
  140.9298  157.8391  142.8486 LP  0  0  0  0  0  0  0  0  0  0  0  0  # atno 13023 bound_to 12024

> <Gold.Score>
     Fitness  S(hb_ext) S(vdw_ext)  S(hb_int)    S(int)      intcor
     22.01       0.00      17.14       0.00      -1.55      -0.76

> <Gold.Goldscore.Fitness>
22.0095

> <Gold.Goldscore.Internal.Vdw>
-1.9052

> <Gold.Goldscore.Internal.Torsion>
-0.4120

> <Gold.Goldscore.External.Vdw>
17.1359

> <Gold.Goldscore.Internal.HBond>
0.0000

> <Gold.Goldscore.External.HBond>
0.0000

> <Gold.Goldscore.Internal.Correction>
-0.7650

> <Gold.Goldscore.Internal.Vdw.Weighted>
-1.9052

> <Gold.Goldscore.Internal.Torsion.Weighted>
-0.4120

> <Gold.Goldscore.External.Vdw.Weighted>
23.5618

> <Gold.Goldscore.Internal.HBond.Weighted>
0.0000

> <Gold.Goldscore.External.HBond.Weighted>
0.0000

> <Gold.Goldscore.Internal.Correction.Weighted>
-0.7650

> <Gold.Rescore>
     Score     S(PLP)   S(hbond)     S(cho)   S(metal)  DE(clash)   DE(tors)     intcor
     23.51     -23.09       0.66       0.00       0.00       1.33       0.11       ----

> <Gold.PLP.Fitness>
23.5057

> <Gold.PLP.PLP>
-23.0933

> <Gold.PLP.part.hbond>
-2.0000

> <Gold.PLP.part.metal>
0.0000

> <Gold.PLP.part.buried>
-2.8688

> <Gold.PLP.part.nonpolar>
-18.7529

> <Gold.PLP.part.repulsive>
0.1428

> <Gold.PLP.ligand.clash>
1.3316

> <Gold.PLP.ligand.torsion>
0.1121

> <Gold.PLP.Chemscore.Hbond>
0.6560

> <Gold.PLP.Chemscore.CHOScore>
0.0000

> <Gold.PLP.Chemscore.Metal>
0.0000

> <Gold.PLP.Chemscore.Internal.Correction>
   9.000000E+99

