#       Name:                CT1002167954
#       Creating user name   hitesit
#       Creation time:       Sun Apr 16 02:23:33 2023


#       File generated by GOLD software.
#

@<TRIPOS>MOLECULE
CT1002167954|ligand_prepared|mol2|1|dock9
    29    30     1
SMALL
NO_CHARGES


@<TRIPOS>ATOM
      1 C1         134.0382 154.0761 148.5027 C.3            1 RES1               0.0000
      2 C2         134.2496 153.2900 149.8127 C.ar           1 RES1               0.0000
      3 C3         135.4270 154.3148 147.9174 C.2            1 RES1               0.0000
      4 C4         133.1346 153.2134 147.6286 C.2            1 RES1               0.0000
      5 C5         133.3465 155.4450 148.7001 C.3            1 RES1               0.0000
      6 C6         133.2076 153.1350 150.7220 C.ar           1 RES1               0.0000
      7 C7         135.4779 152.7130 150.1240 C.ar           1 RES1               0.0000
      8 N8         135.7882 153.5793 146.8272 N.am           1 RES1               0.0000
      9 O9         136.2082 155.1077 148.4285 O.2            1 RES1               0.0000
     10 N10        133.6571 152.7085 146.4667 N.am           1 RES1               0.0000
     11 O11        131.9801 152.9526 147.9437 O.2            1 RES1               0.0000
     12 C12        133.1418 156.2205 147.4082 C.3            1 RES1               0.0000
     13 C13        133.3861 152.4262 151.8985 C.ar           1 RES1               0.0000
     14 C14        135.6543 152.0049 151.3012 C.ar           1 RES1               0.0000
     15 C15        134.9523 152.8270 146.0417 C.2            1 RES1               0.0000
     16 C16        134.6093 151.8604 152.1887 C.ar           1 RES1               0.0000
     17 O17        135.3610 152.2983 145.0118 O.2            1 RES1               0.0000
     18 H18        132.3700 155.2823 149.1727 H              1 RES1               0.0000
     19 H19        133.9530 156.0518 149.3838 H              1 RES1               0.0000
     20 H20        132.2385 153.5753 150.5119 H              1 RES1               0.0000
     21 H21        136.3145 152.8147 149.4411 H              1 RES1               0.0000
     22 H22        136.7707 153.5895 146.5725 H              1 RES1               0.0000
     23 H23        133.0216 152.1971 145.8627 H              1 RES1               0.0000
     24 H24        132.6530 157.1727 147.6033 H              1 RES1               0.0000
     25 H25        134.0952 156.4219 146.9240 H              1 RES1               0.0000
     26 H26        132.5216 155.6570 146.7142 H              1 RES1               0.0000
     27 H27        132.5608 152.3166 152.5943 H              1 RES1               0.0000
     28 H28        136.6189 151.5617 151.5258 H              1 RES1               0.0000
     29 H29        134.7487 151.3049 153.1102 H              1 RES1               0.0000
@<TRIPOS>BOND
    1    1    2 1     
    2    1    3 1     
    3    1    4 1     
    4    1    5 1     
    5    2    6 ar    
    6    2    7 ar    
    7    3    8 1     
    8    3    9 2     
    9    4   10 1     
   10    4   11 2     
   11    5   12 1     
   12    5   18 1     
   13    5   19 1     
   14    6   13 ar    
   15    6   20 1     
   16    7   14 ar    
   17    7   21 1     
   18    8   15 1     
   19    8   22 1     
   20   10   15 1     
   21   10   23 1     
   22   12   24 1     
   23   12   25 1     
   24   12   26 1     
   25   13   16 ar    
   26   13   27 1     
   27   14   16 ar    
   28   14   28 1     
   29   15   17 2     
   30   16   29 1     
@<TRIPOS>SUBSTRUCTURE
      1 RES1           1
@<TRIPOS>SET
DONOR_HYDROGENS      STATIC     ATOMS    <user>   **** ""
2 22 23
ATOM$RED        STATIC     ATOMS    COLORGROUP SYSTEM
2 22 23
@<TRIPOS>COMMENT
> <Gold.Version>
2022.3.0

> <Gold.Id.Protein>
unknown|7xmr_cavity_clean|pdb

> <Gold.Protein.RotatedTorsions>
[ 12006 11997 11998 11999 ] final -110.19 input  108.66 | X-H torsion
[ 12016 12005 12004 12003 ] final  -35.07 input   59.98 | X-H torsion
[ 1008 1003 1002 1001 ] final  -65.23 input   59.97 | X-H torsion
[ 12074 12063 12062 12061 ] final   63.07 input   60.02 | X-H torsion
[ 3571 3566 3564 3561 ] final   96.39 input   59.98 | X-H torsion
[ 10750 10743 10741 10738 ] final  -15.04 input   60.00 | X-H torsion
[ 12029 12024 12023 12020 ] final  -85.06 input   59.99 | X-H torsion
[ 11960 11951 11952 11953 ] final   89.33 input   62.39 | X-H torsion

> <Gold.Protein.ActiveResidues>
 LYS192  PHE336  ASP337  THR340  ASP341  ILE344  THR163  MET164  ALA165  VAL166 
 TRP167  GLY168  LYS246  LYS249  SER250  LYS253  VAL254 

> <Gold.Protein.RotatedAtoms>
  144.9383  165.3220  124.6305 H   0  0  0  0  0  0  0  0  0  0  0  0  # atno 1008 bound_to 1003
  143.6628  164.4441  125.2226 H   0  0  0  0  0  0  0  0  0  0  0  0  # atno 1009 bound_to 1003
  144.9974  163.6657  124.6207 H   0  0  0  0  0  0  0  0  0  0  0  0  # atno 1010 bound_to 1003
  139.3098  162.4975  128.2782 H   0  0  0  0  0  0  0  0  0  0  0  0  # atno 3571 bound_to 3566
  136.2859  133.5812  123.4155 H   0  0  0  0  0  0  0  0  0  0  0  0  # atno 10750 bound_to 10743
  139.2294  164.1656  143.2168 H   0  0  0  0  0  0  0  0  0  0  0  0  # atno 11960 bound_to 11951
  141.5162  158.3730  147.7809 H   0  0  0  0  0  0  0  0  0  0  0  0  # atno 12006 bound_to 11997
  134.6083  159.9816  149.2070 H   0  0  0  0  0  0  0  0  0  0  0  0  # atno 12016 bound_to 12005
  134.9133  158.8912  150.4180 H   0  0  0  0  0  0  0  0  0  0  0  0  # atno 12017 bound_to 12005
  135.4111  160.4640  150.5740 H   0  0  0  0  0  0  0  0  0  0  0  0  # atno 12018 bound_to 12005
  140.8199  157.9531  142.7334 H   0  0  0  0  0  0  0  0  0  0  0  0  # atno 12029 bound_to 12024
  134.5560  150.1656  144.6550 H   0  0  0  0  0  0  0  0  0  0  0  0  # atno 12074 bound_to 12063
  134.0690  148.8791  145.5793 H   0  0  0  0  0  0  0  0  0  0  0  0  # atno 12075 bound_to 12063
  134.3740  150.3442  146.2928 H   0  0  0  0  0  0  0  0  0  0  0  0  # atno 12076 bound_to 12063
  138.6103  161.1237  127.7563 LP  0  0  0  0  0  0  0  0  0  0  0  0  # atno 13008 bound_to 3566
  140.2368  161.2691  127.7482 LP  0  0  0  0  0  0  0  0  0  0  0  0  # atno 13009 bound_to 3566
  135.1671  133.9317  124.5441 LP  0  0  0  0  0  0  0  0  0  0  0  0  # atno 13012 bound_to 10743
  135.3849  132.3880  124.0580 LP  0  0  0  0  0  0  0  0  0  0  0  0  # atno 13013 bound_to 10743
  140.3675  157.3088  141.3094 LP  0  0  0  0  0  0  0  0  0  0  0  0  # atno 13022 bound_to 12024
  141.2722  156.4372  142.3526 LP  0  0  0  0  0  0  0  0  0  0  0  0  # atno 13023 bound_to 12024

> <Gold.Score>
     Fitness  S(hb_ext) S(vdw_ext)  S(hb_int)    S(int)      intcor
     15.53       0.00      12.52       0.00      -1.69      -0.76

> <Gold.Goldscore.Fitness>
15.5338

> <Gold.Goldscore.Internal.Vdw>
-2.0831

> <Gold.Goldscore.Internal.Torsion>
-0.3680

> <Gold.Goldscore.External.Vdw>
12.5236

> <Gold.Goldscore.Internal.HBond>
0.0000

> <Gold.Goldscore.External.HBond>
0.0000

> <Gold.Goldscore.Internal.Correction>
-0.7650

> <Gold.Goldscore.Internal.Vdw.Weighted>
-2.0831

> <Gold.Goldscore.Internal.Torsion.Weighted>
-0.3680

> <Gold.Goldscore.External.Vdw.Weighted>
17.2199

> <Gold.Goldscore.Internal.HBond.Weighted>
0.0000

> <Gold.Goldscore.External.HBond.Weighted>
0.0000

> <Gold.Goldscore.Internal.Correction.Weighted>
-0.7650

> <Gold.Rescore>
     Score     S(PLP)   S(hbond)     S(cho)   S(metal)  DE(clash)   DE(tors)     intcor
     17.98     -19.44       0.00       0.00       0.00       1.18       0.14       ----

> <Gold.PLP.Fitness>
17.9816

> <Gold.PLP.PLP>
-19.4370

> <Gold.PLP.part.hbond>
-2.0000

> <Gold.PLP.part.metal>
0.0000

> <Gold.PLP.part.buried>
-2.6301

> <Gold.PLP.part.nonpolar>
-15.1733

> <Gold.PLP.part.repulsive>
0.1975

> <Gold.PLP.ligand.clash>
1.1846

> <Gold.PLP.ligand.torsion>
0.1354

> <Gold.PLP.Chemscore.Hbond>
0.0000

> <Gold.PLP.Chemscore.CHOScore>
0.0000

> <Gold.PLP.Chemscore.Metal>
0.0000

> <Gold.Chemscore.Hbonds>
donor molecule, donor type, donor heavy atom, donor atom, acceptor molecule, acceptor atom, score
      P1  H 12063 12074       L1    17  0.04

> <Gold.PLP.Chemscore.Internal.Correction>
   9.000000E+99

