#       Name:                CT1002167954
#       Creating user name   hitesit
#       Creation time:       Sun Apr 16 02:23:28 2023


#       File generated by GOLD software.
#

@<TRIPOS>MOLECULE
CT1002167954|ligand_prepared|mol2|1|dock2
    29    30     1
SMALL
NO_CHARGES


@<TRIPOS>ATOM
      1 C1         132.6638 153.4492 147.4764 C.3            1 RES1               0.0000
      2 C2         132.2710 153.6500 145.9986 C.ar           1 RES1               0.0000
      3 C3         134.1762 153.6388 147.5474 C.2            1 RES1               0.0000
      4 C4         131.8697 154.4787 148.2727 C.2            1 RES1               0.0000
      5 C5         132.3181 152.0471 148.0298 C.3            1 RES1               0.0000
      6 C6         132.2386 152.5705 145.1209 C.ar           1 RES1               0.0000
      7 C7         131.9364 154.9061 145.4997 C.ar           1 RES1               0.0000
      8 N8         134.6428 154.7932 148.1038 N.am           1 RES1               0.0000
      9 O9         134.9470 152.8060 147.0863 O.2            1 RES1               0.0000
     10 N10        132.5648 155.4731 148.9097 N.am           1 RES1               0.0000
     11 O11        130.6471 154.4475 148.3404 O.2            1 RES1               0.0000
     12 C12        132.3448 151.9634 149.5479 C.3            1 RES1               0.0000
     13 C13        131.8819 152.7399 143.7934 C.ar           1 RES1               0.0000
     14 C14        131.5802 155.0734 144.1717 C.ar           1 RES1               0.0000
     15 C15        133.9130 155.6948 148.8361 C.2            1 RES1               0.0000
     16 C16        131.5520 153.9912 143.3180 C.ar           1 RES1               0.0000
     17 O17        134.4583 156.6431 149.3933 O.2            1 RES1               0.0000
     18 H18        131.3179 151.7654 147.6782 H              1 RES1               0.0000
     19 H19        133.0331 151.3210 147.6236 H              1 RES1               0.0000
     20 H20        132.4974 151.5786 145.4764 H              1 RES1               0.0000
     21 H21        131.9527 155.7720 146.1528 H              1 RES1               0.0000
     22 H22        135.6252 155.0058 147.9623 H              1 RES1               0.0000
     23 H23        132.0274 156.1066 149.4930 H              1 RES1               0.0000
     24 H24        132.0952 150.9589 149.8832 H              1 RES1               0.0000
     25 H25        133.3322 152.2129 149.9307 H              1 RES1               0.0000
     26 H26        131.6272 152.6547 149.9849 H              1 RES1               0.0000
     27 H27        131.8626 151.8852 143.1253 H              1 RES1               0.0000
     28 H28        131.3219 156.0602 143.8018 H              1 RES1               0.0000
     29 H29        131.2722 154.1236 142.2781 H              1 RES1               0.0000
@<TRIPOS>BOND
    1    1    2 1     
    2    1    3 1     
    3    1    4 1     
    4    1    5 1     
    5    2    6 ar    
    6    2    7 ar    
    7    3    8 1     
    8    3    9 2     
    9    4   10 1     
   10    4   11 2     
   11    5   12 1     
   12    5   18 1     
   13    5   19 1     
   14    6   13 ar    
   15    6   20 1     
   16    7   14 ar    
   17    7   21 1     
   18    8   15 1     
   19    8   22 1     
   20   10   15 1     
   21   10   23 1     
   22   12   24 1     
   23   12   25 1     
   24   12   26 1     
   25   13   16 ar    
   26   13   27 1     
   27   14   16 ar    
   28   14   28 1     
   29   15   17 2     
   30   16   29 1     
@<TRIPOS>SUBSTRUCTURE
      1 RES1           1
@<TRIPOS>SET
DONOR_HYDROGENS      STATIC     ATOMS    <user>   **** ""
2 22 23
ATOM$RED        STATIC     ATOMS    COLORGROUP SYSTEM
2 22 23
@<TRIPOS>COMMENT
> <Gold.Version>
2022.3.0

> <Gold.Id.Protein>
unknown|7xmr_cavity_clean|pdb

> <Gold.Protein.RotatedTorsions>
[ 12006 11997 11998 11999 ] final -103.37 input  108.66 | X-H torsion
[ 12016 12005 12004 12003 ] final  -89.42 input   59.98 | X-H torsion
[ 1008 1003 1002 1001 ] final  -50.71 input   59.97 | X-H torsion
[ 12074 12063 12062 12061 ] final  169.76 input   60.02 | X-H torsion
[ 3571 3566 3564 3561 ] final -140.18 input   59.98 | X-H torsion
[ 10750 10743 10741 10738 ] final  -28.63 input   60.00 | X-H torsion
[ 12029 12024 12023 12020 ] final    0.47 input   59.99 | X-H torsion
[ 11960 11951 11952 11953 ] final  107.52 input   62.39 | X-H torsion

> <Gold.Protein.ActiveResidues>
 LYS192  PHE336  ASP337  THR340  ASP341  ILE344  THR163  MET164  ALA165  VAL166 
 TRP167  GLY168  LYS246  LYS249  SER250  LYS253  VAL254 

> <Gold.Protein.RotatedAtoms>
  144.7323  165.4077  124.7237 H   0  0  0  0  0  0  0  0  0  0  0  0  # atno 1008 bound_to 1003
  143.6992  164.2054  125.2086 H   0  0  0  0  0  0  0  0  0  0  0  0  # atno 1009 bound_to 1003
  145.1671  163.8188  124.5414 H   0  0  0  0  0  0  0  0  0  0  0  0  # atno 1010 bound_to 1003
  140.2057  161.2237  127.7342 H   0  0  0  0  0  0  0  0  0  0  0  0  # atno 3571 bound_to 3566
  136.2378  133.7813  123.4975 H   0  0  0  0  0  0  0  0  0  0  0  0  # atno 10750 bound_to 10743
  139.0430  164.3196  143.3603 H   0  0  0  0  0  0  0  0  0  0  0  0  # atno 11960 bound_to 11951
  141.5564  158.3261  147.6961 H   0  0  0  0  0  0  0  0  0  0  0  0  # atno 12006 bound_to 11997
  134.9961  160.6353  149.6392 H   0  0  0  0  0  0  0  0  0  0  0  0  # atno 12016 bound_to 12005
  134.5633  159.0350  149.6301 H   0  0  0  0  0  0  0  0  0  0  0  0  # atno 12017 bound_to 12005
  135.3736  159.6672  150.9299 H   0  0  0  0  0  0  0  0  0  0  0  0  # atno 12018 bound_to 12005
  141.3359  156.7923  142.7767 H   0  0  0  0  0  0  0  0  0  0  0  0  # atno 12029 bound_to 12024
  134.0998  148.8804  145.3606 H   0  0  0  0  0  0  0  0  0  0  0  0  # atno 12074 bound_to 12063
  134.3082  150.1581  146.3952 H   0  0  0  0  0  0  0  0  0  0  0  0  # atno 12075 bound_to 12063
  134.5907  150.3505  144.7730 H   0  0  0  0  0  0  0  0  0  0  0  0  # atno 12076 bound_to 12063
  139.3656  162.5077  128.2771 LP  0  0  0  0  0  0  0  0  0  0  0  0  # atno 13008 bound_to 3566
  138.5797  161.1673  127.7749 LP  0  0  0  0  0  0  0  0  0  0  0  0  # atno 13009 bound_to 3566
  135.0570  133.7519  124.6170 LP  0  0  0  0  0  0  0  0  0  0  0  0  # atno 13012 bound_to 10743
  135.5435  132.3663  123.9027 LP  0  0  0  0  0  0  0  0  0  0  0  0  # atno 13013 bound_to 10743
  140.5257  158.1167  142.2900 LP  0  0  0  0  0  0  0  0  0  0  0  0  # atno 13022 bound_to 12024
  140.5942  156.7987  141.3284 LP  0  0  0  0  0  0  0  0  0  0  0  0  # atno 13023 bound_to 12024

> <Gold.Score>
     Fitness  S(hb_ext) S(vdw_ext)  S(hb_int)    S(int)      intcor
     22.85       0.00      17.12       0.00      -0.68      -0.79

> <Gold.Goldscore.Fitness>
22.8513

> <Gold.Goldscore.Internal.Vdw>
-0.7270

> <Gold.Goldscore.Internal.Torsion>
-0.7421

> <Gold.Goldscore.External.Vdw>
17.1167

> <Gold.Goldscore.Internal.HBond>
0.0000

> <Gold.Goldscore.External.HBond>
0.0000

> <Gold.Goldscore.Internal.Correction>
-0.7850

> <Gold.Goldscore.Internal.Vdw.Weighted>
-0.7270

> <Gold.Goldscore.Internal.Torsion.Weighted>
-0.7421

> <Gold.Goldscore.External.Vdw.Weighted>
23.5355

> <Gold.Goldscore.Internal.HBond.Weighted>
0.0000

> <Gold.Goldscore.External.HBond.Weighted>
0.0000

> <Gold.Goldscore.Internal.Correction.Weighted>
-0.7850

> <Gold.Rescore>
     Score     S(PLP)   S(hbond)     S(cho)   S(metal)  DE(clash)   DE(tors)     intcor
     28.10     -25.16       1.00       0.00       0.00       0.00       0.03       ----

> <Gold.PLP.Fitness>
28.0983

> <Gold.PLP.PLP>
-25.1557

> <Gold.PLP.part.hbond>
-1.0000

> <Gold.PLP.part.metal>
0.0000

> <Gold.PLP.part.buried>
-4.8346

> <Gold.PLP.part.nonpolar>
-20.5141

> <Gold.PLP.part.repulsive>
1.2928

> <Gold.PLP.ligand.clash>
0.0000

> <Gold.PLP.ligand.torsion>
0.0287

> <Gold.PLP.Chemscore.Hbond>
1.0000

> <Gold.PLP.Chemscore.CHOScore>
0.0000

> <Gold.PLP.Chemscore.Metal>
0.0000

> <Gold.Chemscore.Hbonds>
donor molecule, donor type, donor heavy atom, donor atom, acceptor molecule, acceptor atom, score
      P1  H 12005 12017       L1    17  0.16

> <Gold.PLP.Chemscore.Internal.Correction>
   9.000000E+99

