#       Name:                CT1002167954
#       Creating user name   hitesit
#       Creation time:       Sun Apr 16 02:23:29 2023


#       File generated by GOLD software.
#

@<TRIPOS>MOLECULE
CT1002167954|ligand_prepared|mol2|1|dock4
    29    30     1
SMALL
NO_CHARGES


@<TRIPOS>ATOM
      1 C1         133.1371 154.5353 147.6653 C.3            1 RES1               0.0000
      2 C2         134.6632 154.3605 147.8044 C.ar           1 RES1               0.0000
      3 C3         132.9073 155.9890 147.2626 C.2            1 RES1               0.0000
      4 C4         132.6851 153.5213 146.6203 C.2            1 RES1               0.0000
      5 C5         132.3549 154.2575 148.9701 C.3            1 RES1               0.0000
      6 C6         135.3001 154.6302 149.0120 C.ar           1 RES1               0.0000
      7 C7         135.4456 153.9286 146.7368 C.ar           1 RES1               0.0000
      8 N8         132.5465 156.2374 145.9711 N.am           1 RES1               0.0000
      9 O9         133.0786 156.9065 148.0558 O.2            1 RES1               0.0000
     10 N10        132.1825 153.9983 145.4380 N.am           1 RES1               0.0000
     11 O11        132.7751 152.3135 146.8032 O.2            1 RES1               0.0000
     12 C12        130.8577 154.0905 148.7637 C.3            1 RES1               0.0000
     13 C13        136.6692 154.4710 149.1483 C.ar           1 RES1               0.0000
     14 C14        136.8146 153.7702 146.8751 C.ar           1 RES1               0.0000
     15 C15        132.1212 155.3102 145.0539 C.2            1 RES1               0.0000
     16 C16        137.4273 154.0406 148.0803 C.ar           1 RES1               0.0000
     17 O17        131.7063 155.6576 143.9520 O.2            1 RES1               0.0000
     18 H18        132.7516 153.3451 149.4322 H              1 RES1               0.0000
     19 H19        132.5247 155.0874 149.6671 H              1 RES1               0.0000
     20 H20        134.7204 154.9722 149.8629 H              1 RES1               0.0000
     21 H21        134.9852 153.7110 145.7790 H              1 RES1               0.0000
     22 H22        132.5976 157.2016 145.6583 H              1 RES1               0.0000
     23 H23        131.8204 153.3119 144.7838 H              1 RES1               0.0000
     24 H24        130.3569 153.8978 149.7102 H              1 RES1               0.0000
     25 H25        130.4256 154.9894 148.3287 H              1 RES1               0.0000
     26 H26        130.6511 153.2573 148.0951 H              1 RES1               0.0000
     27 H27        137.1468 154.6864 150.0985 H              1 RES1               0.0000
     28 H28        137.4074 153.4319 146.0317 H              1 RES1               0.0000
     29 H29        138.4997 153.9156 148.1874 H              1 RES1               0.0000
@<TRIPOS>BOND
    1    1    2 1     
    2    1    3 1     
    3    1    4 1     
    4    1    5 1     
    5    2    6 ar    
    6    2    7 ar    
    7    3    8 1     
    8    3    9 2     
    9    4   10 1     
   10    4   11 2     
   11    5   12 1     
   12    5   18 1     
   13    5   19 1     
   14    6   13 ar    
   15    6   20 1     
   16    7   14 ar    
   17    7   21 1     
   18    8   15 1     
   19    8   22 1     
   20   10   15 1     
   21   10   23 1     
   22   12   24 1     
   23   12   25 1     
   24   12   26 1     
   25   13   16 ar    
   26   13   27 1     
   27   14   16 ar    
   28   14   28 1     
   29   15   17 2     
   30   16   29 1     
@<TRIPOS>SUBSTRUCTURE
      1 RES1           1
@<TRIPOS>SET
DONOR_HYDROGENS      STATIC     ATOMS    <user>   **** ""
2 22 23
ATOM$RED        STATIC     ATOMS    COLORGROUP SYSTEM
2 22 23
@<TRIPOS>COMMENT
> <Gold.Version>
2022.3.0

> <Gold.Id.Protein>
unknown|7xmr_cavity_clean|pdb

> <Gold.Protein.RotatedTorsions>
[ 12006 11997 11998 11999 ] final   55.14 input  108.66 | X-H torsion
[ 12016 12005 12004 12003 ] final -162.95 input   59.98 | X-H torsion
[ 1008 1003 1002 1001 ] final   37.44 input   59.97 | X-H torsion
[ 12074 12063 12062 12061 ] final  147.13 input   60.02 | X-H torsion
[ 3571 3566 3564 3561 ] final  -48.65 input   59.98 | X-H torsion
[ 10750 10743 10741 10738 ] final    1.71 input   60.00 | X-H torsion
[ 12029 12024 12023 12020 ] final  -23.34 input   59.99 | X-H torsion
[ 11960 11951 11952 11953 ] final   65.09 input   62.39 | X-H torsion

> <Gold.Protein.ActiveResidues>
 LYS192  PHE336  ASP337  THR340  ASP341  ILE344  THR163  MET164  ALA165  VAL166 
 TRP167  GLY168  LYS246  LYS249  SER250  LYS253  VAL254 

> <Gold.Protein.RotatedAtoms>
  143.6927  164.7309  125.2065 H   0  0  0  0  0  0  0  0  0  0  0  0  # atno 1008 bound_to 1003
  144.7568  163.5515  124.7323 H   0  0  0  0  0  0  0  0  0  0  0  0  # atno 1009 bound_to 1003
  145.1488  165.1505  124.5351 H   0  0  0  0  0  0  0  0  0  0  0  0  # atno 1010 bound_to 1003
  138.9130  160.8738  127.6473 H   0  0  0  0  0  0  0  0  0  0  0  0  # atno 3571 bound_to 3566
  136.2935  133.3142  123.3602 H   0  0  0  0  0  0  0  0  0  0  0  0  # atno 10750 bound_to 10743
  139.5410  163.9714  143.1475 H   0  0  0  0  0  0  0  0  0  0  0  0  # atno 11960 bound_to 11951
  140.3086  158.7754  146.5827 H   0  0  0  0  0  0  0  0  0  0  0  0  # atno 12006 bound_to 11997
  135.4318  160.3716  150.6657 H   0  0  0  0  0  0  0  0  0  0  0  0  # atno 12016 bound_to 12005
  134.6508  160.1040  149.2280 H   0  0  0  0  0  0  0  0  0  0  0  0  # atno 12017 bound_to 12005
  134.8509  158.8619  150.3064 H   0  0  0  0  0  0  0  0  0  0  0  0  # atno 12018 bound_to 12005
  141.2760  157.1349  142.9445 H   0  0  0  0  0  0  0  0  0  0  0  0  # atno 12029 bound_to 12024
  134.1805  148.9935  145.0117 H   0  0  0  0  0  0  0  0  0  0  0  0  # atno 12074 bound_to 12063
  134.2011  149.8035  146.4574 H   0  0  0  0  0  0  0  0  0  0  0  0  # atno 12075 bound_to 12063
  134.6171  150.5918  145.0595 H   0  0  0  0  0  0  0  0  0  0  0  0  # atno 12076 bound_to 12063
  140.3275  161.6405  127.8925 LP  0  0  0  0  0  0  0  0  0  0  0  0  # atno 13008 bound_to 3566
  138.9190  162.3868  128.2471 LP  0  0  0  0  0  0  0  0  0  0  0  0  # atno 13009 bound_to 3566
  135.3365  134.1039  124.4133 LP  0  0  0  0  0  0  0  0  0  0  0  0  # atno 13012 bound_to 10743
  135.2079  132.4847  124.2445 LP  0  0  0  0  0  0  0  0  0  0  0  0  # atno 13013 bound_to 10743
  140.3766  158.0438  141.9382 LP  0  0  0  0  0  0  0  0  0  0  0  0  # atno 13022 bound_to 12024
  140.8036  156.5265  141.5112 LP  0  0  0  0  0  0  0  0  0  0  0  0  # atno 13023 bound_to 12024

> <Gold.Score>
     Fitness  S(hb_ext) S(vdw_ext)  S(hb_int)    S(int)      intcor
     27.52       0.00      20.51       0.00      -0.68      -0.76

> <Gold.Goldscore.Fitness>
27.5241

> <Gold.Goldscore.Internal.Vdw>
-0.7703

> <Gold.Goldscore.Internal.Torsion>
-0.6757

> <Gold.Goldscore.External.Vdw>
20.5128

> <Gold.Goldscore.Internal.HBond>
0.0000

> <Gold.Goldscore.External.HBond>
0.0000

> <Gold.Goldscore.Internal.Correction>
-0.7650

> <Gold.Goldscore.Internal.Vdw.Weighted>
-0.7703

> <Gold.Goldscore.Internal.Torsion.Weighted>
-0.6757

> <Gold.Goldscore.External.Vdw.Weighted>
28.2051

> <Gold.Goldscore.Internal.HBond.Weighted>
0.0000

> <Gold.Goldscore.External.HBond.Weighted>
0.0000

> <Gold.Goldscore.Internal.Correction.Weighted>
-0.7650

> <Gold.Rescore>
     Score     S(PLP)   S(hbond)     S(cho)   S(metal)  DE(clash)   DE(tors)     intcor
     25.99     -26.55       0.00       0.00       0.00       0.00       0.28       ----

> <Gold.PLP.Fitness>
25.9877

> <Gold.PLP.PLP>
-26.5541

> <Gold.PLP.part.hbond>
-0.5538

> <Gold.PLP.part.metal>
0.0000

> <Gold.PLP.part.buried>
-1.8284

> <Gold.PLP.part.nonpolar>
-24.9928

> <Gold.PLP.part.repulsive>
0.1510

> <Gold.PLP.ligand.clash>
0.0000

> <Gold.PLP.ligand.torsion>
0.2832

> <Gold.PLP.Chemscore.Hbond>
0.0000

> <Gold.PLP.Chemscore.CHOScore>
0.0000

> <Gold.PLP.Chemscore.Metal>
0.0000

> <Gold.PLP.Chemscore.Internal.Correction>
   9.000000E+99

