#       Name:                CT1002167954
#       Creating user name   hitesit
#       Creation time:       Sun Apr 16 02:23:33 2023


#       File generated by GOLD software.
#

@<TRIPOS>MOLECULE
CT1002167954|ligand_prepared|mol2|1|dock8
    29    30     1
SMALL
NO_CHARGES


@<TRIPOS>ATOM
      1 C1         132.9338 153.5689 147.1036 C.3            1 RES1               0.0000
      2 C2         132.5671 152.2337 147.7830 C.ar           1 RES1               0.0000
      3 C3         132.6739 154.6610 148.1370 C.2            1 RES1               0.0000
      4 C4         134.3939 153.4462 146.6820 C.2            1 RES1               0.0000
      5 C5         132.0962 153.8781 145.8409 C.3            1 RES1               0.0000
      6 C6         133.5620 151.3726 148.2363 C.ar           1 RES1               0.0000
      7 C7         131.2409 151.8512 147.9656 C.ar           1 RES1               0.0000
      8 N8         133.7568 155.2433 148.7270 N.am           1 RES1               0.0000
      9 O9         131.5354 154.9788 148.4583 O.2            1 RES1               0.0000
     10 N10        135.3089 154.2646 147.2906 N.am           1 RES1               0.0000
     11 O11        134.7626 152.6365 145.8401 O.2            1 RES1               0.0000
     12 C12        131.8371 152.6630 144.9643 C.3            1 RES1               0.0000
     13 C13        133.2427 150.1740 148.8525 C.ar           1 RES1               0.0000
     14 C14        130.9237 150.6520 148.5818 C.ar           1 RES1               0.0000
     15 C15        135.0612 155.1362 148.3160 C.2            1 RES1               0.0000
     16 C16        131.9235 149.8131 149.0261 C.ar           1 RES1               0.0000
     17 O17        135.9467 155.7987 148.8489 O.2            1 RES1               0.0000
     18 H18        131.1330 154.3016 146.1511 H              1 RES1               0.0000
     19 H19        132.6203 154.6368 145.2466 H              1 RES1               0.0000
     20 H20        134.6058 151.6386 148.1062 H              1 RES1               0.0000
     21 H21        130.4378 152.4949 147.6231 H              1 RES1               0.0000
     22 H22        133.5806 155.8108 149.5499 H              1 RES1               0.0000
     23 H23        136.2632 154.2202 146.9475 H              1 RES1               0.0000
     24 H24        131.2457 152.9352 144.0926 H              1 RES1               0.0000
     25 H25        132.7734 152.2310 144.6171 H              1 RES1               0.0000
     26 H26        131.2949 151.8979 145.5162 H              1 RES1               0.0000
     27 H27        134.0333 149.5166 149.1991 H              1 RES1               0.0000
     28 H28        129.8841 150.3718 148.7158 H              1 RES1               0.0000
     29 H29        131.6736 148.8743 149.5091 H              1 RES1               0.0000
@<TRIPOS>BOND
    1    1    2 1     
    2    1    3 1     
    3    1    4 1     
    4    1    5 1     
    5    2    6 ar    
    6    2    7 ar    
    7    3    8 1     
    8    3    9 2     
    9    4   10 1     
   10    4   11 2     
   11    5   12 1     
   12    5   18 1     
   13    5   19 1     
   14    6   13 ar    
   15    6   20 1     
   16    7   14 ar    
   17    7   21 1     
   18    8   15 1     
   19    8   22 1     
   20   10   15 1     
   21   10   23 1     
   22   12   24 1     
   23   12   25 1     
   24   12   26 1     
   25   13   16 ar    
   26   13   27 1     
   27   14   16 ar    
   28   14   28 1     
   29   15   17 2     
   30   16   29 1     
@<TRIPOS>SUBSTRUCTURE
      1 RES1           1
@<TRIPOS>SET
DONOR_HYDROGENS      STATIC     ATOMS    <user>   **** ""
2 22 23
ATOM$RED        STATIC     ATOMS    COLORGROUP SYSTEM
2 22 23
@<TRIPOS>COMMENT
> <Gold.Version>
2022.3.0

> <Gold.Id.Protein>
unknown|7xmr_cavity_clean|pdb

> <Gold.Protein.RotatedTorsions>
[ 12006 11997 11998 11999 ] final  129.88 input  108.66 | X-H torsion
[ 12016 12005 12004 12003 ] final  -38.40 input   59.98 | X-H torsion
[ 1008 1003 1002 1001 ] final    5.71 input   59.97 | X-H torsion
[ 12074 12063 12062 12061 ] final  104.92 input   60.02 | X-H torsion
[ 3571 3566 3564 3561 ] final   65.83 input   59.98 | X-H torsion
[ 10750 10743 10741 10738 ] final  -56.44 input   60.00 | X-H torsion
[ 12029 12024 12023 12020 ] final  -98.32 input   59.99 | X-H torsion
[ 11960 11951 11952 11953 ] final  -96.87 input   62.39 | X-H torsion

> <Gold.Protein.ActiveResidues>
 LYS192  PHE336  ASP337  THR340  ASP341  ILE344  THR163  MET164  ALA165  VAL166 
 TRP167  GLY168  LYS246  LYS249  SER250  LYS253  VAL254 

> <Gold.Protein.RotatedAtoms>
  143.9375  165.1782  125.0896 H   0  0  0  0  0  0  0  0  0  0  0  0  # atno 1008 bound_to 1003
  144.2810  163.5625  124.9497 H   0  0  0  0  0  0  0  0  0  0  0  0  # atno 1009 bound_to 1003
  145.3801  164.6920  124.4344 H   0  0  0  0  0  0  0  0  0  0  0  0  # atno 1010 bound_to 1003
  138.8461  162.3349  128.2322 H   0  0  0  0  0  0  0  0  0  0  0  0  # atno 3571 bound_to 3566
  136.0358  134.0965  123.7473 H   0  0  0  0  0  0  0  0  0  0  0  0  # atno 10750 bound_to 10743
  140.0168  164.3274  144.8012 H   0  0  0  0  0  0  0  0  0  0  0  0  # atno 11960 bound_to 11951
  140.1960  159.1141  147.5912 H   0  0  0  0  0  0  0  0  0  0  0  0  # atno 12006 bound_to 11997
  134.6256  160.0339  149.2137 H   0  0  0  0  0  0  0  0  0  0  0  0  # atno 12016 bound_to 12005
  134.8865  158.8765  150.3717 H   0  0  0  0  0  0  0  0  0  0  0  0  # atno 12017 bound_to 12005
  135.4206  160.4264  150.6136 H   0  0  0  0  0  0  0  0  0  0  0  0  # atno 12018 bound_to 12005
  140.7009  158.0485  142.5802 H   0  0  0  0  0  0  0  0  0  0  0  0  # atno 12029 bound_to 12024
  134.3814  149.5072  144.5984 H   0  0  0  0  0  0  0  0  0  0  0  0  # atno 12074 bound_to 12063
  134.0661  149.1815  146.1925 H   0  0  0  0  0  0  0  0  0  0  0  0  # atno 12075 bound_to 12063
  134.5513  150.6999  145.7368 H   0  0  0  0  0  0  0  0  0  0  0  0  # atno 12076 bound_to 12063
  138.9901  160.8319  127.6245 LP  0  0  0  0  0  0  0  0  0  0  0  0  # atno 13008 bound_to 3566
  140.3237  161.7247  127.9262 LP  0  0  0  0  0  0  0  0  0  0  0  0  # atno 13009 bound_to 3566
  134.9335  133.3177  124.6567 LP  0  0  0  0  0  0  0  0  0  0  0  0  # atno 13012 bound_to 10743
  135.8704  132.4832  123.6114 LP  0  0  0  0  0  0  0  0  0  0  0  0  # atno 13013 bound_to 10743
  140.4393  157.1052  141.2805 LP  0  0  0  0  0  0  0  0  0  0  0  0  # atno 13022 bound_to 12024
  141.3204  156.5446  142.5358 LP  0  0  0  0  0  0  0  0  0  0  0  0  # atno 13023 bound_to 12024

> <Gold.Score>
     Fitness  S(hb_ext) S(vdw_ext)  S(hb_int)    S(int)      intcor
     19.15       3.79      13.98       0.00      -3.87      -0.76

> <Gold.Goldscore.Fitness>
19.1493

> <Gold.Goldscore.Internal.Vdw>
-3.6865

> <Gold.Goldscore.Internal.Torsion>
-0.9506

> <Gold.Goldscore.External.Vdw>
13.9833

> <Gold.Goldscore.Internal.HBond>
0.0000

> <Gold.Goldscore.External.HBond>
3.7945

> <Gold.Goldscore.Internal.Correction>
-0.7650

> <Gold.Goldscore.Hbonds>
donor molecule, donor type, donor heavy atom, donor atom, acceptor molecule, acceptor atom, score
      P1  H 12063 12076       L1    11  0.63

> <Gold.Goldscore.Internal.Vdw.Weighted>
-3.6865

> <Gold.Goldscore.Internal.Torsion.Weighted>
-0.9506

> <Gold.Goldscore.External.Vdw.Weighted>
19.2270

> <Gold.Goldscore.Internal.HBond.Weighted>
0.0000

> <Gold.Goldscore.External.HBond.Weighted>
3.7945

> <Gold.Goldscore.Internal.Correction.Weighted>
-0.7650

> <Gold.Rescore>
     Score     S(PLP)   S(hbond)     S(cho)   S(metal)  DE(clash)   DE(tors)     intcor
     25.41     -25.48       0.93       0.00       0.00       1.71       0.57       ----

> <Gold.PLP.Fitness>
25.4050

> <Gold.PLP.PLP>
-25.4785

> <Gold.PLP.part.hbond>
-2.0000

> <Gold.PLP.part.metal>
0.0000

> <Gold.PLP.part.buried>
-5.1869

> <Gold.PLP.part.nonpolar>
-18.9339

> <Gold.PLP.part.repulsive>
0.3933

> <Gold.PLP.ligand.clash>
1.7078

> <Gold.PLP.ligand.torsion>
0.5748

> <Gold.PLP.Chemscore.Hbond>
0.9280

> <Gold.PLP.Chemscore.CHOScore>
0.0000

> <Gold.PLP.Chemscore.Metal>
0.0000

> <Gold.Chemscore.Hbonds>
donor molecule, donor type, donor heavy atom, donor atom, acceptor molecule, acceptor atom, score
      P1  H 12063 12076       L1    11  1.00

> <Gold.PLP.Chemscore.Internal.Correction>
   9.000000E+99

