#       Name:                CT1002167954
#       Creating user name   hitesit
#       Creation time:       Sun Apr 16 02:23:32 2023


#       File generated by GOLD software.
#

@<TRIPOS>MOLECULE
CT1002167954|ligand_prepared|mol2|1|dock7
    29    30     1
SMALL
NO_CHARGES


@<TRIPOS>ATOM
      1 C1         132.5803 153.6885 146.6585 C.3            1 RES1               0.0000
      2 C2         132.4580 152.2598 147.2266 C.ar           1 RES1               0.0000
      3 C3         133.0968 153.5389 145.2305 C.2            1 RES1               0.0000
      4 C4         131.1899 154.3066 146.7556 C.2            1 RES1               0.0000
      5 C5         133.5604 154.5912 147.4433 C.3            1 RES1               0.0000
      6 C6         133.4852 151.7095 147.9874 C.ar           1 RES1               0.0000
      7 C7         131.3251 151.4824 147.0011 C.ar           1 RES1               0.0000
      8 N8         132.2133 153.7517 144.2135 N.am           1 RES1               0.0000
      9 O9         134.2514 153.2008 145.0007 O.2            1 RES1               0.0000
     10 N10        130.5385 154.6085 145.5885 N.am           1 RES1               0.0000
     11 O11        130.6458 154.5196 147.8321 O.2            1 RES1               0.0000
     12 C12        133.4886 156.0590 147.0527 C.3            1 RES1               0.0000
     13 C13        133.3824 150.4295 148.5064 C.ar           1 RES1               0.0000
     14 C14        131.2245 150.2025 147.5209 C.ar           1 RES1               0.0000
     15 C15        130.9745 154.3308 144.3216 C.2            1 RES1               0.0000
     16 C16        132.2520 149.6754 148.2740 C.ar           1 RES1               0.0000
     17 O17        130.3073 154.5836 143.3226 O.2            1 RES1               0.0000
     18 H18        133.3437 154.4999 148.5148 H              1 RES1               0.0000
     19 H19        134.5831 154.2311 147.2762 H              1 RES1               0.0000
     20 H20        134.3835 152.2870 148.1788 H              1 RES1               0.0000
     21 H21        130.5048 151.8762 146.4106 H              1 RES1               0.0000
     22 H22        132.5003 153.4525 143.2870 H              1 RES1               0.0000
     23 H23        129.6459 155.0846 145.6718 H              1 RES1               0.0000
     24 H24        134.1961 156.6476 147.6330 H              1 RES1               0.0000
     25 H25        133.7235 156.1896 145.9984 H              1 RES1               0.0000
     26 H26        132.4914 156.4569 147.2296 H              1 RES1               0.0000
     27 H27        134.1944 150.0187 149.0973 H              1 RES1               0.0000
     28 H28        130.3332 149.6124 147.3349 H              1 RES1               0.0000
     29 H29        132.1715 148.6729 148.6810 H              1 RES1               0.0000
@<TRIPOS>BOND
    1    1    2 1     
    2    1    3 1     
    3    1    4 1     
    4    1    5 1     
    5    2    6 ar    
    6    2    7 ar    
    7    3    8 1     
    8    3    9 2     
    9    4   10 1     
   10    4   11 2     
   11    5   12 1     
   12    5   18 1     
   13    5   19 1     
   14    6   13 ar    
   15    6   20 1     
   16    7   14 ar    
   17    7   21 1     
   18    8   15 1     
   19    8   22 1     
   20   10   15 1     
   21   10   23 1     
   22   12   24 1     
   23   12   25 1     
   24   12   26 1     
   25   13   16 ar    
   26   13   27 1     
   27   14   16 ar    
   28   14   28 1     
   29   15   17 2     
   30   16   29 1     
@<TRIPOS>SUBSTRUCTURE
      1 RES1           1
@<TRIPOS>SET
DONOR_HYDROGENS      STATIC     ATOMS    <user>   **** ""
2 22 23
ATOM$RED        STATIC     ATOMS    COLORGROUP SYSTEM
2 22 23
@<TRIPOS>COMMENT
> <Gold.Version>
2022.3.0

> <Gold.Id.Protein>
unknown|7xmr_cavity_clean|pdb

> <Gold.Protein.RotatedTorsions>
[ 12006 11997 11998 11999 ] final -121.55 input  108.66 | X-H torsion
[ 12016 12005 12004 12003 ] final  175.94 input   59.98 | X-H torsion
[ 1008 1003 1002 1001 ] final  143.94 input   59.97 | X-H torsion
[ 12074 12063 12062 12061 ] final   14.54 input   60.02 | X-H torsion
[ 3571 3566 3564 3561 ] final    2.94 input   59.98 | X-H torsion
[ 10750 10743 10741 10738 ] final -117.92 input   60.00 | X-H torsion
[ 12029 12024 12023 12020 ] final  154.01 input   59.99 | X-H torsion
[ 11960 11951 11952 11953 ] final    0.89 input   62.39 | X-H torsion

> <Gold.Protein.ActiveResidues>
 LYS192  PHE336  ASP337  THR340  ASP341  ILE344  THR163  MET164  ALA165  VAL166 
 TRP167  GLY168  LYS246  LYS249  SER250  LYS253  VAL254 

> <Gold.Protein.RotatedAtoms>
  144.5543  163.5208  124.8260 H   0  0  0  0  0  0  0  0  0  0  0  0  # atno 1008 bound_to 1003
  145.2754  164.9727  124.4795 H   0  0  0  0  0  0  0  0  0  0  0  0  # atno 1009 bound_to 1003
  143.7676  164.9388  125.1688 H   0  0  0  0  0  0  0  0  0  0  0  0  # atno 1010 bound_to 1003
  138.4589  161.4961  127.9137 H   0  0  0  0  0  0  0  0  0  0  0  0  # atno 3571 bound_to 3566
  135.3440  134.1011  124.4089 H   0  0  0  0  0  0  0  0  0  0  0  0  # atno 10750 bound_to 10743
  140.3147  163.7345  143.6365 H   0  0  0  0  0  0  0  0  0  0  0  0  # atno 11960 bound_to 11951
  141.4289  158.4588  147.9051 H   0  0  0  0  0  0  0  0  0  0  0  0  # atno 12006 bound_to 11997
  135.4428  160.0733  150.8498 H   0  0  0  0  0  0  0  0  0  0  0  0  # atno 12016 bound_to 12005
  134.7935  160.3962  149.3590 H   0  0  0  0  0  0  0  0  0  0  0  0  # atno 12017 bound_to 12005
  134.6973  158.8677  149.9916 H   0  0  0  0  0  0  0  0  0  0  0  0  # atno 12018 bound_to 12005
  140.3734  157.2934  141.3127 H   0  0  0  0  0  0  0  0  0  0  0  0  # atno 12029 bound_to 12024
  134.6127  150.6748  145.2517 H   0  0  0  0  0  0  0  0  0  0  0  0  # atno 12074 bound_to 12063
  134.2372  149.1121  144.8470 H   0  0  0  0  0  0  0  0  0  0  0  0  # atno 12075 bound_to 12063
  134.1493  149.6030  146.4281 H   0  0  0  0  0  0  0  0  0  0  0  0  # atno 12076 bound_to 12063
  139.9665  160.9511  127.6324 LP  0  0  0  0  0  0  0  0  0  0  0  0  # atno 13008 bound_to 3566
  139.7371  162.4498  128.2389 LP  0  0  0  0  0  0  0  0  0  0  0  0  # atno 13009 bound_to 3566
  135.2044  132.4877  124.2484 LP  0  0  0  0  0  0  0  0  0  0  0  0  # atno 13012 bound_to 10743
  136.2961  133.3085  123.3535 LP  0  0  0  0  0  0  0  0  0  0  0  0  # atno 13013 bound_to 10743
  141.2765  156.4434  142.3661 LP  0  0  0  0  0  0  0  0  0  0  0  0  # atno 13022 bound_to 12024
  140.8131  157.9671  142.7271 LP  0  0  0  0  0  0  0  0  0  0  0  0  # atno 13023 bound_to 12024

> <Gold.Score>
     Fitness  S(hb_ext) S(vdw_ext)  S(hb_int)    S(int)      intcor
     21.99       0.49      16.04       0.00      -0.56      -0.76

> <Gold.Goldscore.Fitness>
21.9863

> <Gold.Goldscore.Internal.Vdw>
-0.7805

> <Gold.Goldscore.Internal.Torsion>
-0.5469

> <Gold.Goldscore.External.Vdw>
16.0446

> <Gold.Goldscore.Internal.HBond>
0.0000

> <Gold.Goldscore.External.HBond>
0.4873

> <Gold.Goldscore.Internal.Correction>
-0.7650

> <Gold.Goldscore.Hbonds>
donor molecule, donor type, donor heavy atom, donor atom, acceptor molecule, acceptor atom, score
      P1  H 12063 12074       L1     9  0.08

> <Gold.Goldscore.Internal.Vdw.Weighted>
-0.7805

> <Gold.Goldscore.Internal.Torsion.Weighted>
-0.5469

> <Gold.Goldscore.External.Vdw.Weighted>
22.0614

> <Gold.Goldscore.Internal.HBond.Weighted>
0.0000

> <Gold.Goldscore.External.HBond.Weighted>
0.4873

> <Gold.Goldscore.Internal.Correction.Weighted>
-0.7650

> <Gold.Rescore>
     Score     S(PLP)   S(hbond)     S(cho)   S(metal)  DE(clash)   DE(tors)     intcor
     17.45     -19.40       0.00       0.00       0.00       0.00       0.97       ----

> <Gold.PLP.Fitness>
17.4546

> <Gold.PLP.PLP>
-19.4033

> <Gold.PLP.part.hbond>
-2.1150

> <Gold.PLP.part.metal>
0.0000

> <Gold.PLP.part.buried>
-4.1819

> <Gold.PLP.part.nonpolar>
-13.1693

> <Gold.PLP.part.repulsive>
0.2463

> <Gold.PLP.ligand.clash>
0.0000

> <Gold.PLP.ligand.torsion>
0.9743

> <Gold.PLP.Chemscore.Hbond>
0.0000

> <Gold.PLP.Chemscore.CHOScore>
0.0000

> <Gold.PLP.Chemscore.Metal>
0.0000

> <Gold.PLP.Chemscore.Internal.Correction>
   9.000000E+99

