@<TRIPOS>MOLECULE
A:UZD301
    52    52     1     0     1
SMALL
NO_CHARGES
****
Generated from the CSD

@<TRIPOS>ATOM
     1 N        5.6410 -24.6320 -13.1120   N.am      1 UZD301   0.0000
     2 C        5.0530 -17.9110 -17.1210   C.3       1 UZD301   0.0000
     3 O        4.5050 -26.4210 -13.5270   O.2       1 UZD301   0.0000
     4 C1       6.5140 -18.1240 -16.6760   C.3       1 UZD301   0.0000
     5 O1       3.4620 -24.3380 -13.9670   O.3       1 UZD301   0.0000
     6 C2       6.6600 -18.9010 -15.3480   C.3       1 UZD301   0.0000
     7 O2       1.8910 -23.2190 -15.5810   O.3       1 UZD301   0.0000
     8 C3       6.4950 -20.4120 -15.5410   C.3       1 UZD301   0.0000
     9 O3       1.2310 -21.0420 -15.0290   O.3       1 UZD301   0.0000
    10 C4       6.4950 -21.2010 -14.2480   C.3       1 UZD301   0.0000
    11 O4      -0.9900 -21.0850 -16.5980   O.3       1 UZD301   0.0000
    12 C5       5.8230 -22.5520 -14.3830   C.3       1 UZD301   0.0000
    13 O5      -2.1340 -23.7600 -15.6000   O.3       1 UZD301   0.0000
    14 C6       5.8250 -23.1990 -13.0190   C.3       1 UZD301   0.0000
    15 O6      -0.7690 -25.1040 -13.8400   O.3       1 UZD301   0.0000
    16 C7       4.5780 -25.1330 -13.5060   C.2       1 UZD301   0.0000
    17 C8       2.1390 -24.8420 -13.8530   C.3       1 UZD301   0.0000
    18 C9       1.2060 -24.2790 -14.9200   C.3       1 UZD301   0.0000
    19 C10      1.1480 -22.0640 -16.0210   C.3       1 UZD301   0.0000
    20 C11      2.5880 -20.6770 -14.7440   C.3       1 UZD301   0.0000
    21 C12     -0.3320 -22.3330 -16.2920   C.3       1 UZD301   0.0000
    22 C13     -1.0320 -23.0060 -15.1100   C.3       1 UZD301   0.0000
    23 C14     -0.1050 -23.8920 -14.2520   C.3       1 UZD301   0.0000
    24 H1      -0.1908 -25.5974 -13.2010   H         1 UZD301   0.0000
    25 H2      -0.4114 -22.9873 -17.1589   H         1 UZD301   0.0000
    26 H3       6.7775 -22.9953 -12.5320   H         1 UZD301   0.0000
    27 H4       5.0159 -22.7760 -12.4254   H         1 UZD301   0.0000
    28 H5       1.7477 -24.5772 -12.8718   H         1 UZD301   0.0000
    29 H6       2.1685 -25.9261 -13.9516   H         1 UZD301   0.0000
    30 H7       1.0027 -25.0634 -15.6475   H         1 UZD301   0.0000
    31 H8       5.9678 -20.6248 -13.4891   H         1 UZD301   0.0000
    32 H9       7.5265 -21.3555 -13.9350   H         1 UZD301   0.0000
    33 H10     -1.8069 -24.4498 -16.2349   H         1 UZD301   0.0000
    34 H11     -0.5716 -20.6785 -17.4016   H         1 UZD301   0.0000
    35 H12      6.4054 -25.2447 -12.8466   H         1 UZD301   0.0000
    36 H13      7.3158 -20.7699 -16.1607   H         1 UZD301   0.0000
    37 H14      5.5499 -20.5910 -16.0516   H         1 UZD301   0.0000
    38 H15      3.0630 -20.3082 -15.6519   H         1 UZD301   0.0000
    39 H16      2.6022 -19.8969 -13.9843   H         1 UZD301   0.0000
    40 H17      3.1294 -21.5487 -14.3794   H         1 UZD301   0.0000
    41 H18      1.6030 -21.6912 -16.9375   H         1 UZD301   0.0000
    42 H19      5.8995 -18.5512 -14.6515   H         1 UZD301   0.0000
    43 H20      7.6483 -18.7060 -14.9343   H         1 UZD301   0.0000
    44 H21     -1.4273 -22.2204 -14.4678   H         1 UZD301   0.0000
    45 H22      4.5198 -17.3459 -16.3579   H         1 UZD301   0.0000
    46 H23      5.0362 -17.3590 -18.0596   H         1 UZD301   0.0000
    47 H24      4.5712 -18.8777 -17.2598   H         1 UZD301   0.0000
    48 H25      6.9807 -17.1476 -16.5545   H         1 UZD301   0.0000
    49 H26      7.0321 -18.6794 -17.4564   H         1 UZD301   0.0000
    50 H27      0.1404 -23.3316 -13.3511   H         1 UZD301   0.0000
    51 H28      6.3733 -23.1719 -15.0892   H         1 UZD301   0.0000
    52 H29      4.7995 -22.4247 -14.7325   H         1 UZD301   0.0000
@<TRIPOS>BOND
     1     2     4    1
     2     4     6    1
     3     6     8    1
     4     8    10    1
     5    10    12    1
     6     1    14    1
     7    12    14    1
     8     1    16   am
     9     3    16    2
    10     5    16    1
    11     5    17    1
    12     7    18    1
    13    17    18    1
    14     7    19    1
    15     9    19    1
    16     9    20    1
    17    11    21    1
    18    19    21    1
    19    13    22    1
    20    21    22    1
    21    15    23    1
    22    18    23    1
    23    22    23    1
    24    15    24    1
    25    21    25    1
    26    14    26    1
    27    14    27    1
    28    17    28    1
    29    17    29    1
    30    18    30    1
    31    10    31    1
    32    10    32    1
    33    13    33    1
    34    11    34    1
    35     1    35    1
    36     8    36    1
    37     8    37    1
    38    20    38    1
    39    20    39    1
    40    20    40    1
    41    19    41    1
    42     6    42    1
    43     6    43    1
    44    22    44    1
    45     2    45    1
    46     2    46    1
    47     2    47    1
    48     4    48    1
    49     4    49    1
    50    23    50    1
    51    12    51    1
    52    12    52    1
@<TRIPOS>SUBSTRUCTURE
     1 UZD301      1 GROUP             0 A     UZD     0  
@<TRIPOS>SET
CCDC_LIGAND STATIC ATOMS
52 1 2 3 4 5 6 7 8 9 \
10 11 12 13 14 15 16 17 18 19 \
20 21 22 23 24 25 26 27 28 29 \
30 31 32 33 34 35 36 37 38 39 \
40 41 42 43 44 45 46 47 48 49 \
50 51 52 
