@<TRIPOS>MOLECULE
B:EDO303
    10     9     1     0     1
SMALL
NO_CHARGES
****
Generated from the CSD

@<TRIPOS>ATOM
     1 C1      10.7320 -13.7110 -48.1240   C.3       1 EDO303   0.0000
     2 O1      11.3360 -13.3550 -49.3730   O.3       1 EDO303   0.0000
     3 C2      10.4290 -15.1680 -47.9950   C.3       1 EDO303   0.0000
     4 O2      10.1300 -15.8090 -49.2430   O.3       1 EDO303   0.0000
     5 H1       9.8004 -13.1562 -48.0225   H         1 EDO303   0.0000
     6 H2      11.4117 -13.4292 -47.3212   H         1 EDO303   0.0000
     7 H3       9.5703 -15.2832 -47.3353   H         1 EDO303   0.0000
     8 H4      11.2942 -15.6611 -47.5542   H         1 EDO303   0.0000
     9 H5      10.9077 -15.7224 -49.8543   H         1 EDO303   0.0000
    10 H6      10.7242 -13.5960 -50.1171   H         1 EDO303   0.0000
@<TRIPOS>BOND
     1     1     2    1
     2     1     3    1
     3     3     4    1
     4     1     5    1
     5     1     6    1
     6     3     7    1
     7     3     8    1
     8     4     9    1
     9     2    10    1
@<TRIPOS>SUBSTRUCTURE
     1 EDO303      1 GROUP             0 B     EDO     0  
@<TRIPOS>SET
CCDC_LIGAND STATIC ATOMS
10 1 2 3 4 5 6 7 8 9 \
10 
