@<TRIPOS>MOLECULE
D:ARG1295
   212   213    12     0     1
SMALL
NO_CHARGES
****
Generated from the CSD

@<TRIPOS>ATOM
     1 N       12.2230  -4.8040 -38.3000   N.3       1 ARG1295   0.0000
     2 CA      10.8960  -5.4920 -38.5190   C.3       1 ARG1295   0.0000
     3 C       10.3110  -5.8680 -37.1530   C.2       1 ARG1295   0.0000
     4 O       11.0500  -6.3730 -36.3010   O.2       1 ARG1295   0.0000
     5 CB      11.0490  -6.7440 -39.3950   C.3       1 ARG1295   0.0000
     6 CG      11.8700  -6.5530 -40.6630   C.3       1 ARG1295   0.0000
     7 CD      11.2490  -5.5540 -41.6230   C.3       1 ARG1295   0.0000
     8 NE      11.9170  -5.6310 -42.9220   N.2       1 ARG1295   0.0000
     9 CZ      13.0450  -5.0030 -43.2510   C.ar      1 ARG1295   0.0000
    10 NH1     13.6530  -4.2280 -42.3720   N.2       1 ARG1295   0.0000
    11 NH2     13.5660  -5.1490 -44.4550   N.2       1 ARG1295   0.0000
    12 N        9.0230  -5.6320 -36.9330   N.am      2 ASN1296   0.0000
    13 CA       8.3510  -6.0210 -35.6630   C.3       2 ASN1296   0.0000
    14 C        8.1620  -7.5340 -35.6430   C.2       2 ASN1296   0.0000
    15 O        7.6450  -8.0470 -36.6210   O.2       2 ASN1296   0.0000
    16 CB       7.0300  -5.2810 -35.4940   C.3       2 ASN1296   0.0000
    17 CG       7.2710  -3.7890 -35.4120   C.2       2 ASN1296   0.0000
    18 ND2      6.7060  -3.0350 -36.3450   N.am      2 ASN1296   0.0000
    19 OD1      8.0180  -3.3450 -34.5390   O.2       2 ASN1296   0.0000
    20 N        8.5410  -8.2020 -34.5580   N.am      3 LYS1297   0.0000
    21 CA       8.3890  -9.6730 -34.4100   C.3       3 LYS1297   0.0000
    22 C        6.9060 -10.0530 -34.2340   C.2       3 LYS1297   0.0000
    23 O        6.1440  -9.2520 -33.6490   O.2       3 LYS1297   0.0000
    24 CB       9.2380 -10.1360 -33.2220   C.3       3 LYS1297   0.0000
    25 CG       9.2810 -11.6360 -32.9390   C.3       3 LYS1297   0.0000
    26 CD      10.1370 -11.9460 -31.7220   C.3       3 LYS1297   0.0000
    27 CE      10.2390 -13.4190 -31.3890   C.3       3 LYS1297   0.0000
    28 NZ      10.7530 -14.2150 -32.5300   N.3       3 LYS1297   0.0000
    29 N        6.5360 -11.2430 -34.7200   N.am      4 LEU1298   0.0000
    30 CA       5.1810 -11.8430 -34.5860   C.3       4 LEU1298   0.0000
    31 C        4.9830 -12.3210 -33.1480   C.2       4 LEU1298   0.0000
    32 O        5.9000 -13.0300 -32.6420   O.2       4 LEU1298   0.0000
    33 CB       5.0440 -13.0120 -35.5660   C.3       4 LEU1298   0.0000
    34 CG       3.6890 -13.7190 -35.5830   C.3       4 LEU1298   0.0000
    35 CD1      2.5670 -12.7620 -35.9650   C.3       4 LEU1298   0.0000
    36 CD2      3.7220 -14.9100 -36.5260   C.3       4 LEU1298   0.0000
    37 N        3.8510 -11.9350 -32.5280   N.am      5 ARG1299   0.0000
    38 CA       3.4790 -12.3160 -31.1440   C.3       5 ARG1299   0.0000
    39 C        2.0070 -12.7270 -31.0390   C.2       5 ARG1299   0.0000
    40 O        1.1850 -12.2410 -31.8120   O.2       5 ARG1299   0.0000
    41 CB       3.7990 -11.1670 -30.1820   C.3       5 ARG1299   0.0000
    42 CG       2.9170  -9.9310 -30.2840   C.3       5 ARG1299   0.0000
    43 CD       3.6430  -8.7150 -29.7120   C.3       5 ARG1299   0.0000
    44 NE       4.6880  -8.2730 -30.6380   N.2       5 ARG1299   0.0000
    45 CZ       5.6890  -7.4260 -30.3590   C.ar      5 ARG1299   0.0000
    46 NH1      5.8180  -6.9010 -29.1460   N.2       5 ARG1299   0.0000
    47 NH2      6.5610  -7.1130 -31.3130   N.2       5 ARG1299   0.0000
    48 N        1.7000 -13.5940 -30.0830   N.am      6 ARG1300   0.0000
    49 CA       0.3150 -13.8890 -29.6340   C.3       6 ARG1300   0.0000
    50 C       -0.2710 -12.6480 -28.9780   C.2       6 ARG1300   0.0000
    51 O        0.4730 -11.9540 -28.2500   O.2       6 ARG1300   0.0000
    52 CB       0.2510 -15.0000 -28.5800   C.3       6 ARG1300   0.0000
    53 CG       0.3900 -16.3950 -29.1470   C.3       6 ARG1300   0.0000
    54 CD      -0.0880 -17.4250 -28.1560   C.3       6 ARG1300   0.0000
    55 NE       0.2410 -18.7180 -28.7250   N.2       6 ARG1300   0.0000
    56 CZ       1.4570 -19.2490 -28.7220   C.ar      6 ARG1300   0.0000
    57 NH1      2.4610 -18.6120 -28.1390   N.2       6 ARG1300   0.0000
    58 NH2      1.6660 -20.4280 -29.2840   N.2       6 ARG1300   0.0000
    59 N       -1.5660 -12.4380 -29.1890   N.am      7 GLN1301   0.0000
    60 CA      -2.3050 -11.2450 -28.7190   C.3       7 GLN1301   0.0000
    61 C       -3.6270 -11.6850 -28.0720   C.2       7 GLN1301   0.0000
    62 O       -4.2370 -12.6760 -28.5150   O.2       7 GLN1301   0.0000
    63 CB      -2.4940 -10.2780 -29.8910   C.3       7 GLN1301   0.0000
    64 CG      -1.1870  -9.7770 -30.4970   C.3       7 GLN1301   0.0000
    65 CD      -1.3780  -9.0900 -31.8300   C.2       7 GLN1301   0.0000
    66 NE2     -2.1100  -7.9940 -31.7940   N.am      7 GLN1301   0.0000
    67 OE1     -0.8580  -9.5170 -32.8720   O.2       7 GLN1301   0.0000
    68 N       -4.0590 -10.9370 -27.0670   N.am      8 HIS1302   0.0000
    69 CA      -5.3380 -11.1240 -26.3340   C.3       8 HIS1302   0.0000
    70 C       -6.4980 -10.6440 -27.2080   C.2       8 HIS1302   0.0000
    71 O       -6.3220  -9.6260 -27.8940   O.2       8 HIS1302   0.0000
    72 CB      -5.3060 -10.3700 -24.9910   C.3       8 HIS1302   0.0000
    73 CG      -3.9700 -10.4100 -24.3230   C.2       8 HIS1302   0.0000
    74 CD2     -3.1080  -9.4240 -23.9860   C.2       8 HIS1302   0.0000
    75 ND1     -3.3600 -11.6130 -23.9670   N.pl3     8 HIS1302   0.0000
    76 CE1     -2.1840 -11.3620 -23.4280   C.2       8 HIS1302   0.0000
    77 NE2     -2.0050 -10.0260 -23.4310   N.2       8 HIS1302   0.0000
    78 N       -7.6240 -11.3590 -27.1500   N.am      9 ASP1303   0.0000
    79 CA      -8.9260 -10.9780 -27.7470   C.3       9 ASP1303   0.0000
    80 C       -9.6220 -10.0050 -26.7980   C.2       9 ASP1303   0.0000
    81 O       -9.3790 -10.1040 -25.5940   O.2       9 ASP1303   0.0000
    82 CB      -9.8090 -12.2080 -27.9590   C.3       9 ASP1303   0.0000
    83 CG      -9.0460 -13.4320 -28.4430   C.ar      9 ASP1303   0.0000
    84 OD1     -8.0740 -13.2590 -29.1940   O.co2     9 ASP1303   0.0000
    85 OD2     -9.4460 -14.5710 -28.0870   O.co2     9 ASP1303   0.0000
    86 N      -10.4580  -9.1080 -27.3270   N.am     10 TYR1304   0.0000
    87 CA     -11.3240  -8.1760 -26.5550   C.3      10 TYR1304   0.0000
    88 C      -12.7770  -8.3990 -26.9840   C.2      10 TYR1304   0.0000
    89 O      -12.9800  -8.8960 -28.1070   O.2      10 TYR1304   0.0000
    90 CB     -10.8810  -6.7180 -26.7580   C.3      10 TYR1304   0.0000
    91 CG      -9.5300  -6.4190 -26.1530   C.ar     10 TYR1304   0.0000
    92 CD1     -9.3720  -6.3440 -24.7760   C.ar     10 TYR1304   0.0000
    93 CD2     -8.3910  -6.3150 -26.9390   C.ar     10 TYR1304   0.0000
    94 CE1     -8.1290  -6.1260 -24.1980   C.ar     10 TYR1304   0.0000
    95 CE2     -7.1410  -6.1020 -26.3780   C.ar     10 TYR1304   0.0000
    96 CZ      -7.0090  -6.0040 -25.0030   C.ar     10 TYR1304   0.0000
    97 OH      -5.7840  -5.7970 -24.4420   O.3      10 TYR1304   0.0000
    98 N      -13.7410  -8.0540 -26.1190   N.am     11 ASP1305   0.0000
    99 CA     -15.1940  -8.0420 -26.4310   C.3      11 ASP1305   0.0000
   100 C      -15.8810  -7.0360 -25.5000   C.2      11 ASP1305   0.0000
   101 O      -15.8520  -7.2790 -24.2850   O.2      11 ASP1305   0.0000
   102 CB     -15.8050  -9.4420 -26.2830   C.3      11 ASP1305   0.0000
   103 CG     -17.2450  -9.5570 -26.7730   C.ar     11 ASP1305   0.0000
   104 OD1    -17.9370  -8.5150 -26.8960   O.co2    11 ASP1305   0.0000
   105 OD2    -17.6740 -10.6970 -27.0320   O.co2    11 ASP1305   0.0000
   106 N      -16.5090  -5.9810 -26.0480   N.am     12 THR1306   0.0000
   107 CA     -17.2510  -4.9250 -25.2910   C.3      12 THR1306   0.0000
   108 C      -18.5200  -4.5170 -26.0590   C.2      12 THR1306   0.0000
   109 O      -19.6220  -4.6710 -25.5280   O.2      12 THR1306   0.0000
   110 CB     -16.3340  -3.7320 -24.9790   C.3      12 THR1306   0.0000
   111 CG2    -15.0690  -4.1270 -24.2460   C.3      12 THR1306   0.0000
   112 OG1    -15.9660  -3.0820 -26.1970   O.3      12 THR1306   0.0000
   113 H1       6.5806  -6.2610 -28.9485   H         5 ARG1299   0.0000
   114 H2       7.3231  -6.4729 -31.1138   H         5 ARG1299   0.0000
   115 H3       2.4613 -14.0882 -29.6286   H         6 ARG1300   0.0000
   116 H4      -0.2937 -14.1676 -30.4929   H         6 ARG1300   0.0000
   117 H5      -0.7082 -14.9322 -28.0689   H         6 ARG1300   0.0000
   118 H6       1.0559 -14.8396 -27.8642   H         6 ARG1300   0.0000
   119 H7       1.4369 -16.5829 -29.3805   H         6 ARG1300   0.0000
   120 H8      -0.2041 -16.4717 -30.0564   H         6 ARG1300   0.0000
   121 H9      -1.1639 -17.3390 -28.0116   H         6 ARG1300   0.0000
   122 H10      0.4182 -17.2932 -27.2008   H         6 ARG1300   0.0000
   123 H11      3.3898 -19.0212 -28.1387   H         6 ARG1300   0.0000
   124 H12      2.5964 -20.8337 -29.2814   H         6 ARG1300   0.0000
   125 H13     -2.0823 -13.1421 -29.7066   H         7 GLN1301   0.0000
   126 H14     -1.7027 -10.7477 -27.9601   H         7 GLN1301   0.0000
   127 H15     -3.0599  -9.4174 -29.5374   H         7 GLN1301   0.0000
   128 H16     -3.0589 -10.7890 -30.6693   H         7 GLN1301   0.0000
   129 H17     -0.5213 -10.6274 -30.6373   H         7 GLN1301   0.0000
   130 H18     -0.7321  -9.0702 -29.8046   H         7 GLN1301   0.0000
   131 H19     -5.4710 -12.1860 -26.1330   H         8 HIS1302   0.0000
   132 H20     -6.0397 -10.8204 -24.3241   H         8 HIS1302   0.0000
   133 H21     -5.5709  -9.3294 -25.1723   H         8 HIS1302   0.0000
   134 H22     -3.2596  -8.3550 -24.1278   H         8 HIS1302   0.0000
   135 H23     -3.7592 -12.5364 -24.1019   H         8 HIS1302   0.0000
   136 H24     -1.4816 -12.1023 -23.0478   H         8 HIS1302   0.0000
   137 H25     -7.5849 -12.2428 -26.6524   H         9 ASP1303   0.0000
   138 H26     -8.7543 -10.4878 -28.7042   H         9 ASP1303   0.0000
   139 H27    -10.5694 -11.9621 -28.6987   H         9 ASP1303   0.0000
   140 H28    -10.2890 -12.4539 -27.0129   H         9 ASP1303   0.0000
   141 H29    -10.5068  -9.0577 -28.3396   H        10 TYR1304   0.0000
   142 H30    -11.2355  -8.4193 -25.4972   H        10 TYR1304   0.0000
   143 H31    -11.6196  -6.0641 -26.2967   H        10 TYR1304   0.0000
   144 H32    -10.8343  -6.5157 -27.8270   H        10 TYR1304   0.0000
   145 H33    -10.2440  -6.4589 -24.1339   H        10 TYR1304   0.0000
   146 H34     -8.4810  -6.4027 -28.0207   H        10 TYR1304   0.0000
   147 H35     -8.0350  -6.0512 -23.1156   H        10 TYR1304   0.0000
   148 H36     -6.2644  -6.0119 -27.0178   H        10 TYR1304   0.0000
   149 H37     -5.5638  -6.5545 -23.8389   H        10 TYR1304   0.0000
   150 H38    -13.4582  -7.7812 -25.1831   H        11 ASP1305   0.0000
   151 H39    -15.3266  -7.7111 -27.4600   H        11 ASP1305   0.0000
   152 H40    -15.7814  -9.7141 -25.2288   H        11 ASP1305   0.0000
   153 H41    -15.1948 -10.1417 -26.8522   H        11 ASP1305   0.0000
   154 H42    -16.4771  -5.8937 -27.0587   H        12 THR1306   0.0000
   155 H43    -17.5642  -5.3577 -24.3420   H        12 THR1306   0.0000
   156 H44    -18.4457  -4.0967 -27.0609   H        12 THR1306   0.0000
   157 H45    -16.8850  -3.0241 -24.3617   H        12 THR1306   0.0000
   158 H46    -14.5004  -4.8281 -24.8551   H        12 THR1306   0.0000
   159 H47    -14.4670  -3.2395 -24.0566   H        12 THR1306   0.0000
   160 H48    -15.3300  -4.5974 -23.2991   H        12 THR1306   0.0000
   161 H49    -16.7830  -2.7590 -26.6598   H        12 THR1306   0.0000
   162 H50     12.8543  -5.4332 -37.8144   H         1 ARG1295   0.0000
   163 H51     12.6237  -4.5484 -39.1969   H         1 ARG1295   0.0000
   164 H52     10.2175  -4.7981 -39.0130   H         1 ARG1295   0.0000
   165 H53     10.0532  -7.0755 -39.6854   H         1 ARG1295   0.0000
   166 H54     11.5287  -7.5171 -38.7965   H         1 ARG1295   0.0000
   167 H55     11.9569  -7.5135 -41.1689   H         1 ARG1295   0.0000
   168 H56     12.8613  -6.1981 -40.3851   H         1 ARG1295   0.0000
   169 H57     11.3592  -4.5486 -41.2193   H         1 ARG1295   0.0000
   170 H58     10.1913  -5.7816 -41.7468   H         1 ARG1295   0.0000
   171 H59     14.5123  -3.7506 -42.6250   H         1 ARG1295   0.0000
   172 H60     14.4257  -4.6671 -44.6978   H         1 ARG1295   0.0000
   173 H61      8.4785  -5.1710 -37.6549   H         2 ASN1296   0.0000
   174 H62      9.0031  -5.7479 -34.8347   H         2 ASN1296   0.0000
   175 H63      6.5442  -5.6173 -34.5792   H         2 ASN1296   0.0000
   176 H64      6.3868  -5.4948 -36.3463   H         2 ASN1296   0.0000
   177 H65      3.4891 -14.0894 -34.5786   H         4 LEU1298   0.0000
   178 H66      2.7577 -12.3569 -36.9577   H         4 LEU1298   0.0000
   179 H67      1.6185 -13.2971 -35.9673   H         4 LEU1298   0.0000
   180 H68      2.5227 -11.9479 -35.2431   H         4 LEU1298   0.0000
   181 H69      6.8380  -2.0287 -36.3330   H         2 ASN1296   0.0000
   182 H70      6.1415  -3.4641 -37.0712   H         2 ASN1296   0.0000
   183 H71      8.9552  -7.6810 -33.7917   H         3 LYS1297   0.0000
   184 H72      8.7649 -10.1528 -35.3125   H         3 LYS1297   0.0000
   185 H73      8.8499  -9.6452 -32.3307   H         3 LYS1297   0.0000
   186 H74     10.2604  -9.8068 -33.4016   H         3 LYS1297   0.0000
   187 H75      9.6976 -12.1482 -33.8050   H         3 LYS1297   0.0000
   188 H76      8.2676 -11.9920 -32.7594   H         3 LYS1297   0.0000
   189 H77      9.7078 -11.4315 -30.8635   H         3 LYS1297   0.0000
   190 H78     11.1415 -11.5681 -31.9067   H         3 LYS1297   0.0000
   191 H79      9.2500 -13.7877 -31.1210   H         3 LYS1297   0.0000
   192 H80     10.9137 -13.5418 -30.5430   H         3 LYS1297   0.0000
   193 H81     11.6782 -13.8837 -32.7841   H         3 LYS1297   0.0000
   194 H82     10.8051 -15.1931 -32.2639   H         3 LYS1297   0.0000
   195 H83      7.2364 -11.7803 -35.2209   H         4 LEU1298   0.0000
   196 H84      4.4305 -11.0893 -34.8198   H         4 LEU1298   0.0000
   197 H85      5.8019 -13.7511 -35.3105   H         4 LEU1298   0.0000
   198 H86      5.2327 -12.6300 -36.5682   H         4 LEU1298   0.0000
   199 H87     -2.2860  -7.4730 -32.6471   H         7 GLN1301   0.0000
   200 H88     -2.4975  -7.6712 -30.9132   H         7 GLN1301   0.0000
   201 H89     -3.4642 -10.1692 -26.7721   H         8 HIS1302   0.0000
   202 H90      4.4842 -15.6140 -36.1951   H         4 LEU1298   0.0000
   203 H91      2.7498 -15.4007 -36.5252   H         4 LEU1298   0.0000
   204 H92      3.9557 -14.5690 -37.5335   H         4 LEU1298   0.0000
   205 H93      3.2083 -11.3424 -33.0438   H         5 ARG1299   0.0000
   206 H94      4.0874 -13.1725 -30.8572   H         5 ARG1299   0.0000
   207 H95      4.8263 -10.8567 -30.3672   H         5 ARG1299   0.0000
   208 H96      3.7134 -11.5518 -29.1668   H         5 ARG1299   0.0000
   209 H97      1.9983 -10.0977 -29.7236   H         5 ARG1299   0.0000
   210 H98      2.6759  -9.7467 -31.3299   H         5 ARG1299   0.0000
   211 H99      4.0958  -8.9813 -28.7581   H         5 ARG1299   0.0000
   212 H100     2.9290  -7.9066 -29.5618   H         5 ARG1299   0.0000
@<TRIPOS>BOND
     1     1     2    1
     2     2     3    1
     3     3     4    2
     4     2     5    1
     5     5     6    1
     6     6     7    1
     7     7     8    1
     8     8     9   ar
     9     9    10   ar
    10     9    11   ar
    11     3    12   am
    12    12    13    1
    13    13    14    1
    14    14    15    2
    15    13    16    1
    16    16    17    1
    17    17    18   am
    18    17    19    2
    19    14    20   am
    20    20    21    1
    21    21    22    1
    22    22    23    2
    23    21    24    1
    24    24    25    1
    25    25    26    1
    26    26    27    1
    27    27    28    1
    28    22    29   am
    29    29    30    1
    30    30    31    1
    31    31    32    2
    32    30    33    1
    33    33    34    1
    34    34    35    1
    35    34    36    1
    36    31    37   am
    37    37    38    1
    38    38    39    1
    39    39    40    2
    40    38    41    1
    41    41    42    1
    42    42    43    1
    43    43    44    1
    44    44    45   ar
    45    45    46   ar
    46    45    47   ar
    47    39    48   am
    48    48    49    1
    49    49    50    1
    50    50    51    2
    51    49    52    1
    52    52    53    1
    53    53    54    1
    54    54    55    1
    55    55    56   ar
    56    56    57   ar
    57    56    58   ar
    58    50    59   am
    59    59    60    1
    60    60    61    1
    61    61    62    2
    62    60    63    1
    63    63    64    1
    64    64    65    1
    65    65    66   am
    66    65    67    2
    67    61    68   am
    68    68    69    1
    69    69    70    1
    70    70    71    2
    71    69    72    1
    72    72    73    1
    73    73    74    2
    74    73    75    1
    75    75    76    1
    76    74    77    1
    77    76    77    2
    78    70    78   am
    79    78    79    1
    80    79    80    1
    81    80    81    2
    82    79    82    1
    83    82    83    1
    84    83    84   ar
    85    83    85   ar
    86    80    86   am
    87    86    87    1
    88    87    88    1
    89    88    89    2
    90    87    90    1
    91    90    91    1
    92    91    92   ar
    93    91    93   ar
    94    92    94   ar
    95    93    95   ar
    96    94    96   ar
    97    95    96   ar
    98    96    97    1
    99    88    98   am
   100    98    99    1
   101    99   100    1
   102   100   101    2
   103    99   102    1
   104   102   103    1
   105   103   104   ar
   106   103   105   ar
   107   100   106   am
   108   106   107    1
   109   107   108    1
   110   108   109    2
   111   107   110    1
   112   110   111    1
   113   110   112    1
   114    46   113    1
   115    47   114    1
   116    48   115    1
   117    49   116    1
   118    52   117    1
   119    52   118    1
   120    53   119    1
   121    53   120    1
   122    54   121    1
   123    54   122    1
   124    57   123    1
   125    58   124    1
   126    59   125    1
   127    60   126    1
   128    63   127    1
   129    63   128    1
   130    64   129    1
   131    64   130    1
   132    69   131    1
   133    72   132    1
   134    72   133    1
   135    74   134    1
   136    75   135    1
   137    76   136    1
   138    78   137    1
   139    79   138    1
   140    82   139    1
   141    82   140    1
   142    86   141    1
   143    87   142    1
   144    90   143    1
   145    90   144    1
   146    92   145    1
   147    93   146    1
   148    94   147    1
   149    95   148    1
   150    97   149    1
   151    98   150    1
   152    99   151    1
   153   102   152    1
   154   102   153    1
   155   106   154    1
   156   107   155    1
   157   108   156    1
   158   110   157    1
   159   111   158    1
   160   111   159    1
   161   111   160    1
   162   112   161    1
   163     1   162    1
   164     1   163    1
   165     2   164    1
   166     5   165    1
   167     5   166    1
   168     6   167    1
   169     6   168    1
   170     7   169    1
   171     7   170    1
   172    10   171    1
   173    11   172    1
   174    12   173    1
   175    13   174    1
   176    16   175    1
   177    16   176    1
   178    34   177    1
   179    35   178    1
   180    35   179    1
   181    35   180    1
   182    18   181    1
   183    18   182    1
   184    20   183    1
   185    21   184    1
   186    24   185    1
   187    24   186    1
   188    25   187    1
   189    25   188    1
   190    26   189    1
   191    26   190    1
   192    27   191    1
   193    27   192    1
   194    28   193    1
   195    28   194    1
   196    29   195    1
   197    30   196    1
   198    33   197    1
   199    33   198    1
   200    66   199    1
   201    66   200    1
   202    68   201    1
   203    36   202    1
   204    36   203    1
   205    36   204    1
   206    37   205    1
   207    38   206    1
   208    41   207    1
   209    41   208    1
   210    42   209    1
   211    42   210    1
   212    43   211    1
   213    43   212    1
@<TRIPOS>SUBSTRUCTURE
     1 ARG1295     1 GROUP             0 D     ARG     0  
     2 ASN1296    12 GROUP             0 D     ASN     0  
     3 LYS1297    20 GROUP             0 D     LYS     0  
     4 LEU1298    29 GROUP             0 D     LEU     0  
     5 ARG1299    37 GROUP             0 D     ARG     0  
     6 ARG1300    48 GROUP             0 D     ARG     0  
     7 GLN1301    59 GROUP             0 D     GLN     0  
     8 HIS1302    68 GROUP             0 D     HIS     0  
     9 ASP1303    78 GROUP             0 D     ASP     0  
    10 TYR1304    86 GROUP             0 D     TYR     0  
    11 ASP1305    98 GROUP             0 D     ASP     0  
    12 THR1306   106 GROUP             0 D     THR     0  
@<TRIPOS>SET
CCDC_LIGAND STATIC ATOMS
212 1 2 3 4 5 6 7 8 9 \
10 11 12 13 14 15 16 17 18 19 \
20 21 22 23 24 25 26 27 28 29 \
30 31 32 33 34 35 36 37 38 39 \
40 41 42 43 44 45 46 47 48 49 \
50 51 52 53 54 55 56 57 58 59 \
60 61 62 63 64 65 66 67 68 69 \
70 71 72 73 74 75 76 77 78 79 \
80 81 82 83 84 85 86 87 88 89 \
90 91 92 93 94 95 96 97 98 99 \
100 101 102 103 104 105 106 107 108 109 \
110 111 112 113 114 115 116 117 118 119 \
120 121 122 123 124 125 126 127 128 129 \
130 131 132 133 134 135 136 137 138 139 \
140 141 142 143 144 145 146 147 148 149 \
150 151 152 153 154 155 156 157 158 159 \
160 161 162 163 164 165 166 167 168 169 \
170 171 172 173 174 175 176 177 178 179 \
180 181 182 183 184 185 186 187 188 189 \
190 191 192 193 194 195 196 197 198 199 \
200 201 202 203 204 205 206 207 208 209 \
210 211 212 
