@<TRIPOS>MOLECULE
C:ARG1295
   204   205    12     0     1
SMALL
NO_CHARGES
****
Generated from the CSD

@<TRIPOS>ATOM
     1 N      -23.4740  -7.8750 -10.0830   N.3       1 ARG1295   0.0000
     2 CA     -22.7140  -8.6450  -9.0500   C.3       1 ARG1295   0.0000
     3 C      -21.4160  -9.1580  -9.6950   C.2       1 ARG1295   0.0000
     4 O      -21.4880  -9.7280 -10.7920   O.2       1 ARG1295   0.0000
     5 CB     -23.6130  -9.7420  -8.4640   C.3       1 ARG1295   0.0000
     6 CG     -22.9180 -10.7480  -7.5530   C.3       1 ARG1295   0.0000
     7 CD     -21.9190 -10.1970  -6.5420   C.3       1 ARG1295   0.0000
     8 NE     -22.4100 -10.0980  -5.1710   N.2       1 ARG1295   0.0000
     9 CZ     -23.1890  -9.1240  -4.7010   C.ar      1 ARG1295   0.0000
    10 NH1    -23.6020  -8.1540  -5.5030   N.2       1 ARG1295   0.0000
    11 NH2    -23.5640  -9.1310  -3.4280   N.2       1 ARG1295   0.0000
    12 N      -20.2790  -8.9070  -9.0530   N.am      2 ASN1296   0.0000
    13 CA     -18.9240  -9.0720  -9.6390   C.3       2 ASN1296   0.0000
    14 C      -18.6240 -10.5640  -9.8170   C.2       2 ASN1296   0.0000
    15 O      -18.7810 -11.2960  -8.8430   O.2       2 ASN1296   0.0000
    16 CB     -17.8560  -8.4560  -8.7310   C.3       2 ASN1296   0.0000
    17 CG     -18.1760  -7.0810  -8.1700   C.2       2 ASN1296   0.0000
    18 ND2    -17.3610  -6.6300  -7.2310   N.am      2 ASN1296   0.0000
    19 OD1    -19.1100  -6.4070  -8.5920   O.2       2 ASN1296   0.0000
    20 N      -18.2330 -11.0210 -11.0100   N.am      3 LYS1297   0.0000
    21 CA     -17.8040 -12.4380 -11.1900   C.3       3 LYS1297   0.0000
    22 C      -16.2730 -12.5100 -11.1580   C.2       3 LYS1297   0.0000
    23 O      -15.6170 -11.5490 -11.6240   O.2       3 LYS1297   0.0000
    24 CB     -18.3610 -13.0880 -12.4580   C.3       3 LYS1297   0.0000
    25 CG     -18.2740 -14.6160 -12.4440   C.3       3 LYS1297   0.0000
    26 N      -15.7230 -13.5960 -10.5960   N.am      4 LEU1298   0.0000
    27 CA     -14.2790 -13.9370 -10.6880   C.3       4 LEU1298   0.0000
    28 C      -14.0080 -14.4600 -12.1040   C.2       4 LEU1298   0.0000
    29 O      -14.7250 -15.3860 -12.5330   O.2       4 LEU1298   0.0000
    30 CB     -13.9380 -14.9800  -9.6200   C.3       4 LEU1298   0.0000
    31 CG     -12.4740 -15.4100  -9.5230   C.3       4 LEU1298   0.0000
    32 CD1    -11.5490 -14.2250  -9.3210   C.3       4 LEU1298   0.0000
    33 CD2    -12.2780 -16.4030  -8.3780   C.3       4 LEU1298   0.0000
    34 N      -13.0310 -13.8660 -12.7950   N.am      5 ARG1299   0.0000
    35 CA     -12.7280 -14.0950 -14.2330   C.3       5 ARG1299   0.0000
    36 C      -11.2180 -14.0040 -14.4440   C.2       5 ARG1299   0.0000
    37 O      -10.5800 -13.1410 -13.7870   O.2       5 ARG1299   0.0000
    38 CB     -13.3590 -13.0320 -15.1410   C.3       5 ARG1299   0.0000
    39 CG     -14.8770 -13.0180 -15.1740   C.3       5 ARG1299   0.0000
    40 CD     -15.4600 -14.3150 -15.6920   C.3       5 ARG1299   0.0000
    41 NE     -16.9230 -14.3890 -15.6950   N.2       5 ARG1299   0.0000
    42 CZ     -17.7380 -13.7420 -16.5320   C.ar      5 ARG1299   0.0000
    43 NH1    -17.2680 -12.9050 -17.4470   N.2       5 ARG1299   0.0000
    44 NH2    -19.0440 -13.9310 -16.4390   N.2       5 ARG1299   0.0000
    45 N      -10.6780 -14.8240 -15.3520   N.am      6 ARG1300   0.0000
    46 CA      -9.2800 -14.6760 -15.8380   C.3       6 ARG1300   0.0000
    47 C       -9.1920 -13.4090 -16.6710   C.2       6 ARG1300   0.0000
    48 O      -10.1320 -13.1230 -17.4300   O.2       6 ARG1300   0.0000
    49 CB      -8.8040 -15.8210 -16.7260   C.3       6 ARG1300   0.0000
    50 CG      -8.4070 -17.0720 -15.9650   C.3       6 ARG1300   0.0000
    51 CD      -7.9510 -18.1320 -16.9360   C.3       6 ARG1300   0.0000
    52 NE      -8.5200 -19.4050 -16.5240   N.2       6 ARG1300   0.0000
    53 CZ      -8.0280 -20.1450 -15.5630   C.ar      6 ARG1300   0.0000
    54 NH1     -6.9290 -19.7540 -14.9480   N.2       6 ARG1300   0.0000
    55 NH2     -8.6110 -21.2810 -15.2270   N.2       6 ARG1300   0.0000
    56 N       -8.0760 -12.7080 -16.5170   N.am      7 GLN1301   0.0000
    57 CA      -7.8120 -11.4010 -17.1460   C.3       7 GLN1301   0.0000
    58 C       -6.4070 -11.4320 -17.7570   C.2       7 GLN1301   0.0000
    59 O       -5.4980 -12.0710 -17.1830   O.2       7 GLN1301   0.0000
    60 CB      -7.9930 -10.3120 -16.0910   C.3       7 GLN1301   0.0000
    61 CG      -9.4270 -10.1800 -15.5950   C.3       7 GLN1301   0.0000
    62 CD      -9.5270  -9.2020 -14.4460   C.2       7 GLN1301   0.0000
    63 NE2     -9.8440  -9.7080 -13.2630   N.am      7 GLN1301   0.0000
    64 OE1     -9.3090  -8.0000 -14.6150   O.2       7 GLN1301   0.0000
    65 N       -6.2560 -10.7430 -18.8820   N.am      8 HIS1302   0.0000
    66 CA      -4.9750 -10.5630 -19.6060   C.3       8 HIS1302   0.0000
    67 C       -4.0760  -9.6020 -18.8210   C.2       8 HIS1302   0.0000
    68 O       -4.5870  -8.6220 -18.2550   O.2       8 HIS1302   0.0000
    69 CB      -5.2530 -10.0530 -21.0300   C.3       8 HIS1302   0.0000
    70 CG      -6.4250 -10.7060 -21.6880   C.2       8 HIS1302   0.0000
    71 CD2     -7.5460 -10.1750 -22.2320   C.2       8 HIS1302   0.0000
    72 ND1     -6.5230 -12.0900 -21.8420   N.pl3     8 HIS1302   0.0000
    73 CE1     -7.6570 -12.3780 -22.4540   C.2       8 HIS1302   0.0000
    74 NE2     -8.2990 -11.2170 -22.7170   N.2       8 HIS1302   0.0000
    75 N       -2.7790  -9.8970 -18.8090   N.am      9 ASP1303   0.0000
    76 CA      -1.6920  -9.0090 -18.3290   C.3       9 ASP1303   0.0000
    77 C       -1.3810  -8.0160 -19.4480   C.2       9 ASP1303   0.0000
    78 O       -1.5390  -8.3940 -20.6080   O.2       9 ASP1303   0.0000
    79 CB      -0.4350  -9.8060 -17.9550   C.3       9 ASP1303   0.0000
    80 CG      -0.7010 -11.2650 -17.6170   C.ar      9 ASP1303   0.0000
    81 OD1     -1.3580 -11.9380 -18.4590   O.co2     9 ASP1303   0.0000
    82 OD2     -0.2860 -11.7170 -16.5230   O.co2     9 ASP1303   0.0000
    83 N       -0.9350  -6.8130 -19.0990   N.am     10 TYR1304   0.0000
    84 CA      -0.5530  -5.7400 -20.0510   C.3      10 TYR1304   0.0000
    85 C        0.9150  -5.3580 -19.8180   C.2      10 TYR1304   0.0000
    86 O        1.4200  -5.6030 -18.7150   O.2      10 TYR1304   0.0000
    87 CB      -1.4920  -4.5430 -19.8750   C.3      10 TYR1304   0.0000
    88 CG      -2.9610  -4.7670 -20.1600   C.ar     10 TYR1304   0.0000
    89 CD1     -3.4100  -5.6800 -21.1080   C.ar     10 TYR1304   0.0000
    90 CD2     -3.9190  -3.9770 -19.5400   C.ar     10 TYR1304   0.0000
    91 CE1     -4.7590  -5.8490 -21.3770   C.ar     10 TYR1304   0.0000
    92 CE2     -5.2720  -4.1260 -19.8030   C.ar     10 TYR1304   0.0000
    93 CZ      -5.6950  -5.0670 -20.7250   C.ar     10 TYR1304   0.0000
    94 OH      -7.0270  -5.2270 -20.9860   O.3      10 TYR1304   0.0000
    95 N        1.5750  -4.7820 -20.8330   N.am     11 ASP1305   0.0000
    96 CA       2.8890  -4.0900 -20.6960   C.3      11 ASP1305   0.0000
    97 C        2.8440  -2.6770 -21.3180   C.2      11 ASP1305   0.0000
    98 O        3.9110  -2.0430 -21.3850   O.2      11 ASP1305   0.0000
    99 CB       4.0060  -4.9610 -21.2730   C.3      11 ASP1305   0.0000
   100 CG       5.3510  -4.8200 -20.5630   C.ar     11 ASP1305   0.0000
   101 OD1      5.5640  -3.7880 -19.8680   O.co2    11 ASP1305   0.0000
   102 OD2      6.1800  -5.7510 -20.7010   O.co2    11 ASP1305   0.0000
   103 N        1.6610  -2.1950 -21.7330   N.am     12 THR1306   0.0000
   104 CA       1.3470  -0.7810 -22.1080   C.3      12 THR1306   0.0000
   105 C       -0.1440  -0.6940 -22.4820   C.2      12 THR1306   0.0000
   106 O       -0.9670   0.1730 -22.1100   O.2      12 THR1306   0.0000
   107 CB       2.2080  -0.2570 -23.2690   C.3      12 THR1306   0.0000
   108 CG2      3.6340   0.1080 -22.8990   C.3      12 THR1306   0.0000
   109 OG1      2.1730  -1.2920 -24.2470   O.3      12 THR1306   0.0000
   110 H1     -13.0029 -13.2034 -16.1558   H         5 ARG1299   0.0000
   111 H2     -13.0219 -12.0549 -14.7981   H         5 ARG1299   0.0000
   112 H3      -4.4758 -11.5284 -19.6740   H         8 HIS1302   0.0000
   113 H4     -13.0794 -15.0827 -14.5278   H         5 ARG1299   0.0000
   114 H5      -7.9403 -15.4774 -17.2933   H         6 ARG1300   0.0000
   115 H6      -9.6094 -16.0793 -17.4119   H         6 ARG1300   0.0000
   116 H7     -12.4463 -13.2026 -12.2967   H         5 ARG1299   0.0000
   117 H8     -22.3852 -11.4530  -8.1894   H         1 ARG1295   0.0000
   118 H9     -23.6914 -11.2746  -6.9959   H         1 ARG1295   0.0000
   119 H10    -14.5303 -15.8701  -9.8270   H         4 LEU1298   0.0000
   120 H11    -14.2259 -14.5690  -8.6535   H         4 LEU1298   0.0000
   121 H12    -17.9077 -12.4249 -18.0719   H         5 ARG1299   0.0000
   122 H13    -18.2278 -10.3931 -11.8075   H         3 LYS1297   0.0000
   123 H14     -8.5375 -11.2420 -17.9424   H         7 GLN1301   0.0000
   124 H15    -18.8422 -15.0042 -11.6000   H         3 LYS1297   0.0000
   125 H16    -18.6856 -15.0115 -13.3714   H         3 LYS1297   0.0000
   126 H17    -17.2323 -14.9194 -12.3506   H         3 LYS1297   0.0000
   127 H18    -12.1998 -15.9032 -10.4544   H         4 LEU1298   0.0000
   128 H19    -16.9347  -8.3758  -9.3061   H         2 ASN1296   0.0000
   129 H20    -17.7019  -9.1317  -7.8910   H         2 ASN1296   0.0000
   130 H21    -15.0838 -15.1250 -15.0689   H         5 ARG1299   0.0000
   131 H22    -15.1144 -14.4537 -16.7154   H         5 ARG1299   0.0000
   132 H23    -16.3290 -14.2230 -10.0765   H         4 LEU1298   0.0000
   133 H24    -23.6896  -8.4824 -10.8671   H         1 ARG1295   0.0000
   134 H25    -24.3368  -7.5261  -9.6780   H         1 ARG1295   0.0000
   135 H26    -24.0551 -10.2914  -9.2938   H         1 ARG1295   0.0000
   136 H27    -24.4006  -9.2576  -7.8887   H         1 ARG1295   0.0000
   137 H28     -9.2631 -17.4406 -15.4019   H         6 ARG1300   0.0000
   138 H29     -7.5952 -16.8362 -15.2784   H         6 ARG1300   0.0000
   139 H30    -11.2455 -15.5784 -15.7249   H         6 ARG1300   0.0000
   140 H31    -18.8927  -8.5824 -10.6112   H         2 ASN1296   0.0000
   141 H32    -20.3413  -8.5794  -8.0944   H         2 ASN1296   0.0000
   142 H33     -7.0822 -10.3054 -19.2771   H         8 HIS1302   0.0000
   143 H34     -0.6581  -6.1200 -21.0661   H        10 TYR1304   0.0000
   144 H35      1.2339  -1.4499 -24.5284   H        12 THR1306   0.0000
   145 H36    -24.1951  -7.4142  -5.1410   H         1 ARG1295   0.0000
   146 H37     -9.9253  -9.0984 -12.4555   H         7 GLN1301   0.0000
   147 H38    -10.0055 -10.7052 -13.1643   H         7 GLN1301   0.0000
   148 H39     -9.7774 -11.1555 -15.2611   H         7 GLN1301   0.0000
   149 H40    -10.0540  -9.8298 -16.4136   H         7 GLN1301   0.0000
   150 H41    -21.6261  -9.1999  -6.8674   H         1 ARG1295   0.0000
   151 H42    -21.0469 -10.8492  -6.5409   H         1 ARG1295   0.0000
   152 H43    -17.5207  -5.7177  -6.8157   H         2 ASN1296   0.0000
   153 H44    -16.5758  -7.1961  -6.9257   H         2 ASN1296   0.0000
   154 H45     -7.8030  -9.1177 -22.2767   H         8 HIS1302   0.0000
   155 H46    -19.6733 -13.4448 -17.0697   H         5 ARG1299   0.0000
   156 H47    -17.7968 -12.7176 -13.3126   H         3 LYS1297   0.0000
   157 H48    -19.4067 -12.8024 -12.5620   H         3 LYS1297   0.0000
   158 H49     -5.8327 -12.7669 -21.5329   H         8 HIS1302   0.0000
   159 H50    -12.8931 -17.2845  -8.5527   H         4 LEU1298   0.0000
   160 H51    -11.2303 -16.6957  -8.3267   H         4 LEU1298   0.0000
   161 H52    -12.5709 -15.9363  -7.4387   H         4 LEU1298   0.0000
   162 H53    -13.6861 -13.0398 -10.5165   H         4 LEU1298   0.0000
   163 H54     -7.3519 -13.0998 -15.9234   H         7 GLN1301   0.0000
   164 H55     -8.2232 -21.8491 -14.4806   H         6 ARG1300   0.0000
   165 H56    -24.1572  -8.3895  -3.0696   H         1 ARG1295   0.0000
   166 H57     -6.8639 -18.1950 -16.9283   H         6 ARG1300   0.0000
   167 H58     -8.2931 -17.8835 -17.9396   H         6 ARG1300   0.0000
   168 H59    -18.1775 -13.0051 -10.3387   H         3 LYS1297   0.0000
   169 H60     -8.0133 -13.3764 -22.7035   H         8 HIS1302   0.0000
   170 H61    -15.2043 -12.2055 -15.8211   H         5 ARG1299   0.0000
   171 H62    -15.2462 -12.8486 -14.1636   H         5 ARG1299   0.0000
   172 H63     -4.3699 -10.2389 -21.6395   H         8 HIS1302   0.0000
   173 H64     -5.4407  -8.9815 -20.9801   H         8 HIS1302   0.0000
   174 H65     -6.5371 -20.3186 -14.2011   H         6 ARG1300   0.0000
   175 H66    -11.8150 -13.7099  -8.3992   H         4 LEU1298   0.0000
   176 H67    -10.5196 -14.5747  -9.2574   H         4 LEU1298   0.0000
   177 H68    -11.6482 -13.5396 -10.1614   H         4 LEU1298   0.0000
   178 H69     -0.8493  -6.6134 -18.1075   H        10 TYR1304   0.0000
   179 H70     -7.2982  -6.1564 -20.7653   H        10 TYR1304   0.0000
   180 H71      1.1526  -4.8194 -21.7552   H        11 ASP1305   0.0000
   181 H72      3.0853  -3.9713 -19.6314   H        11 ASP1305   0.0000
   182 H73      4.1433  -4.6892 -22.3186   H        11 ASP1305   0.0000
   183 H74      3.6940  -6.0022 -21.2065   H        11 ASP1305   0.0000
   184 H75      0.8983  -2.8614 -21.7993   H        12 THR1306   0.0000
   185 H76      1.5206  -0.1484 -21.2388   H        12 THR1306   0.0000
   186 H77     -0.5244  -1.4718 -23.1425   H        12 THR1306   0.0000
   187 H78      1.7241   0.6255 -23.6849   H        12 THR1306   0.0000
   188 H79      4.1433  -0.7707 -22.5060   H        12 THR1306   0.0000
   189 H80      4.1583   0.4661 -23.7838   H        12 THR1306   0.0000
   190 H81      3.6236   0.8905 -22.1417   H        12 THR1306   0.0000
   191 H82      0.0245  -9.3327 -17.0885   H         9 ASP1303   0.0000
   192 H83      0.2552  -9.7705 -18.7966   H         9 ASP1303   0.0000
   193 H84     -1.1457  -3.7546 -20.5416   H        10 TYR1304   0.0000
   194 H85     -1.4062  -4.2088 -18.8421   H        10 TYR1304   0.0000
   195 H86     -2.6819  -6.2783 -21.6537   H        10 TYR1304   0.0000
   196 H87     -3.5989  -3.2188 -18.8269   H        10 TYR1304   0.0000
   197 H88     -5.0814  -6.5963 -22.1005   H        10 TYR1304   0.0000
   198 H89     -6.0003  -3.5038 -19.2850   H        10 TYR1304   0.0000
   199 H90     -2.0398  -8.4617 -17.4541   H         9 ASP1303   0.0000
   200 H91     -2.5092 -10.8106 -19.1593   H         9 ASP1303   0.0000
   201 H92    -22.4459  -7.9609  -8.2462   H         1 ARG1295   0.0000
   202 H93     -7.6884  -9.3597 -16.5226   H         7 GLN1301   0.0000
   203 H94     -7.3542 -10.5461 -15.2407   H         7 GLN1301   0.0000
   204 H95     -8.6125 -14.5872 -14.9822   H         6 ARG1300   0.0000
@<TRIPOS>BOND
     1     1     2    1
     2     2     3    1
     3     3     4    2
     4     2     5    1
     5     5     6    1
     6     6     7    1
     7     7     8    1
     8     8     9   ar
     9     9    10   ar
    10     9    11   ar
    11     3    12   am
    12    12    13    1
    13    13    14    1
    14    14    15    2
    15    13    16    1
    16    16    17    1
    17    17    18   am
    18    17    19    2
    19    14    20   am
    20    20    21    1
    21    21    22    1
    22    22    23    2
    23    21    24    1
    24    24    25    1
    25    22    26   am
    26    26    27    1
    27    27    28    1
    28    28    29    2
    29    27    30    1
    30    30    31    1
    31    31    32    1
    32    31    33    1
    33    28    34   am
    34    34    35    1
    35    35    36    1
    36    36    37    2
    37    35    38    1
    38    38    39    1
    39    39    40    1
    40    40    41    1
    41    41    42   ar
    42    42    43   ar
    43    42    44   ar
    44    36    45   am
    45    45    46    1
    46    46    47    1
    47    47    48    2
    48    46    49    1
    49    49    50    1
    50    50    51    1
    51    51    52    1
    52    52    53   ar
    53    53    54   ar
    54    53    55   ar
    55    47    56   am
    56    56    57    1
    57    57    58    1
    58    58    59    2
    59    57    60    1
    60    60    61    1
    61    61    62    1
    62    62    63   am
    63    62    64    2
    64    58    65   am
    65    65    66    1
    66    66    67    1
    67    67    68    2
    68    66    69    1
    69    69    70    1
    70    70    71    2
    71    70    72    1
    72    72    73    1
    73    71    74    1
    74    73    74    2
    75    67    75   am
    76    75    76    1
    77    76    77    1
    78    77    78    2
    79    76    79    1
    80    79    80    1
    81    80    81   ar
    82    80    82   ar
    83    77    83   am
    84    83    84    1
    85    84    85    1
    86    85    86    2
    87    84    87    1
    88    87    88    1
    89    88    89   ar
    90    88    90   ar
    91    89    91   ar
    92    90    92   ar
    93    91    93   ar
    94    92    93   ar
    95    93    94    1
    96    85    95   am
    97    95    96    1
    98    96    97    1
    99    97    98    2
   100    96    99    1
   101    99   100    1
   102   100   101   ar
   103   100   102   ar
   104    97   103   am
   105   103   104    1
   106   104   105    1
   107   105   106    2
   108   104   107    1
   109   107   108    1
   110   107   109    1
   111    38   110    1
   112    38   111    1
   113    66   112    1
   114    35   113    1
   115    49   114    1
   116    49   115    1
   117    34   116    1
   118     6   117    1
   119     6   118    1
   120    30   119    1
   121    30   120    1
   122    43   121    1
   123    20   122    1
   124    57   123    1
   125    25   124    1
   126    25   125    1
   127    25   126    1
   128    31   127    1
   129    16   128    1
   130    16   129    1
   131    40   130    1
   132    40   131    1
   133    26   132    1
   134     1   133    1
   135     1   134    1
   136     5   135    1
   137     5   136    1
   138    50   137    1
   139    50   138    1
   140    45   139    1
   141    13   140    1
   142    12   141    1
   143    65   142    1
   144    84   143    1
   145   109   144    1
   146    10   145    1
   147    63   146    1
   148    63   147    1
   149    61   148    1
   150    61   149    1
   151     7   150    1
   152     7   151    1
   153    18   152    1
   154    18   153    1
   155    71   154    1
   156    44   155    1
   157    24   156    1
   158    24   157    1
   159    72   158    1
   160    33   159    1
   161    33   160    1
   162    33   161    1
   163    27   162    1
   164    56   163    1
   165    55   164    1
   166    11   165    1
   167    51   166    1
   168    51   167    1
   169    21   168    1
   170    73   169    1
   171    39   170    1
   172    39   171    1
   173    69   172    1
   174    69   173    1
   175    54   174    1
   176    32   175    1
   177    32   176    1
   178    32   177    1
   179    83   178    1
   180    94   179    1
   181    95   180    1
   182    96   181    1
   183    99   182    1
   184    99   183    1
   185   103   184    1
   186   104   185    1
   187   105   186    1
   188   107   187    1
   189   108   188    1
   190   108   189    1
   191   108   190    1
   192    79   191    1
   193    79   192    1
   194    87   193    1
   195    87   194    1
   196    89   195    1
   197    90   196    1
   198    91   197    1
   199    92   198    1
   200    76   199    1
   201    75   200    1
   202     2   201    1
   203    60   202    1
   204    60   203    1
   205    46   204    1
@<TRIPOS>SUBSTRUCTURE
     1 ARG1295     1 GROUP             0 C     ARG     0  
     2 ASN1296    12 GROUP             0 C     ASN     0  
     3 LYS1297    20 GROUP             0 C     LYS     0  
     4 LEU1298    26 GROUP             0 C     LEU     0  
     5 ARG1299    34 GROUP             0 C     ARG     0  
     6 ARG1300    45 GROUP             0 C     ARG     0  
     7 GLN1301    56 GROUP             0 C     GLN     0  
     8 HIS1302    65 GROUP             0 C     HIS     0  
     9 ASP1303    75 GROUP             0 C     ASP     0  
    10 TYR1304    83 GROUP             0 C     TYR     0  
    11 ASP1305    95 GROUP             0 C     ASP     0  
    12 THR1306   103 GROUP             0 C     THR     0  
@<TRIPOS>SET
CCDC_LIGAND STATIC ATOMS
204 1 2 3 4 5 6 7 8 9 \
10 11 12 13 14 15 16 17 18 19 \
20 21 22 23 24 25 26 27 28 29 \
30 31 32 33 34 35 36 37 38 39 \
40 41 42 43 44 45 46 47 48 49 \
50 51 52 53 54 55 56 57 58 59 \
60 61 62 63 64 65 66 67 68 69 \
70 71 72 73 74 75 76 77 78 79 \
80 81 82 83 84 85 86 87 88 89 \
90 91 92 93 94 95 96 97 98 99 \
100 101 102 103 104 105 106 107 108 109 \
110 111 112 113 114 115 116 117 118 119 \
120 121 122 123 124 125 126 127 128 129 \
130 131 132 133 134 135 136 137 138 139 \
140 141 142 143 144 145 146 147 148 149 \
150 151 152 153 154 155 156 157 158 159 \
160 161 162 163 164 165 166 167 168 169 \
170 171 172 173 174 175 176 177 178 179 \
180 181 182 183 184 185 186 187 188 189 \
190 191 192 193 194 195 196 197 198 199 \
200 201 202 203 204 
