Time taken for this run:   1.388s

MODEL        39
USER    Run = 39
USER
USER    Estimated Free Energy of Binding    = -10.49 kcal/mol  [=(1)+(2)+(3)-(4)]
USER
USER    (1) Final Intermolecular Energy     = -11.98 kcal/mol
USER        vdW + Hbond + desolv Energy     = -11.98 kcal/mol
USER        Electrostatic Energy            =  +0.00 kcal/mol
USER        Moving Ligand-Fixed Receptor    = -11.98 kcal/mol
USER        Moving Ligand-Moving Receptor   =  +0.00 kcal/mol
USER    (2) Final Total Internal Energy     =  -1.76 kcal/mol
USER    (3) Torsional Free Energy           =  +1.49 kcal/mol
USER    (4) Unbound System's Energy         =  -1.76 kcal/mol
USER
USER
REMARK  Name = AWT
REMARK  9 active torsions:
REMARK  status: ('A' for Active; 'I' for Inactive)
REMARK    1  A    between atoms: C14_2  and  O13_10
REMARK    2  A    between atoms: C8_6  and  C15_14
REMARK    3  A    between atoms: C12_8  and  O13_10
REMARK    4  A    between atoms: C3_9  and  O2_12
REMARK    5  A    between atoms: C1_11  and  O2_12
REMARK    6  A    between atoms: N16_16  and  C17_17
REMARK    7  A    between atoms: C17_17  and  C29_18
REMARK    8  A    between atoms: C17_17  and  C18_19
REMARK    9  A    between atoms: C20_24  and  C21_25
REMARK                            x       y       z     vdW  Elec       q    Type
REMARK                         _______ _______ _______ _____ _____    ______ ____
USER                              x       y       z     vdW  Elec       q    Type
USER                           _______ _______ _______ _____ _____    ______ ____
ROOT
ATOM      1  C4  AWT A   1      20.139 -30.463  44.990 -0.35 -0.00    +0.000 A 
ATOM      2  C5  AWT A   1      21.478 -30.932  44.932 -0.36 -0.00    +0.000 A 
ATOM      3  C6  AWT A   1      22.068 -31.606  43.847 -0.32 -0.00    +0.000 A 
ATOM      4  C11 AWT A   1      21.809 -30.075  47.154 -0.22 -0.00    +0.000 A 
ATOM      5  C8  AWT A   1      24.034 -31.831  45.023 -0.31 -0.00    +0.000 A 
ATOM      6  C10 AWT A   1      22.308 -30.742  46.044 -0.28 -0.00    +0.000 A 
ATOM      7  C12 AWT A   1      20.505 -29.570  47.194 -0.22 -0.00    +0.000 A 
ATOM      8  C1  AWT A   1      19.648 -29.783  46.106 -0.34 -0.00    +0.000 A 
ATOM      9  N9  AWT A   1      23.565 -31.180  46.094 -0.23 -0.00    +0.000 NA
ATOM     10  C15 AWT A   1      25.441 -32.314  45.093 -0.31 -0.00    +0.000 C 
ATOM     11  N7  AWT A   1      23.337 -32.065  43.898 -0.42 -0.00    +0.000 NA
ATOM     12  N16 AWT A   1      21.308 -31.871  42.715 -0.43 -0.00    +0.000 N 
ATOM     13  H   AWT A   1      20.556 -31.242  42.484 -0.61 -0.00    +0.000 HD
ENDROOT
BRANCH   7  15
ATOM     14  C14 AWT A   1      19.184 -29.729  49.147 -0.16 -0.00    +0.000 C 
ATOM     15  O13 AWT A   1      19.986 -28.924  48.289 -0.16 -0.00    +0.000 OA
ENDBRANCH   7  15
BRANCH   8  17
ATOM     16  C3  AWT A   1      17.309 -30.084  45.722 -0.46 -0.00    +0.000 C 
ATOM     17  O2  AWT A   1      18.376 -29.282  46.210 -0.36 -0.00    +0.000 OA
ENDBRANCH   8  17
BRANCH  12  18
ATOM     18  C17 AWT A   1      21.751 -32.770  41.665 -0.65 -0.00    +0.000 C 
ATOM     19  C29 AWT A   1      21.102 -32.378  40.332 -0.80 -0.00    +0.000 C 
BRANCH  18  20
ATOM     20  C18 AWT A   1      21.377 -34.175  42.105 -0.52 -0.00    +0.000 A 
ATOM     21  C19 AWT A   1      22.313 -34.927  42.836 -0.46 -0.00    +0.000 A 
ATOM     22  C28 AWT A   1      20.102 -34.718  41.887 -0.58 -0.00    +0.000 A 
ATOM     23  C27 AWT A   1      19.782 -35.986  42.366 -0.58 -0.00    +0.000 A 
ATOM     24  C26 AWT A   1      20.730 -36.724  43.075 -0.46 -0.00    +0.000 A 
ATOM     25  C20 AWT A   1      22.011 -36.210  43.315 -0.42 -0.00    +0.000 A 
BRANCH  25  26
ATOM     26  C21 AWT A   1      22.992 -36.977  44.076 -0.47 -0.00    +0.000 C 
ATOM     27  C22 AWT A   1      22.715 -37.710  45.338 -0.34 -0.00    +0.000 C 
ATOM     28  C25 AWT A   1      24.279 -37.214  43.826 -0.49 -0.00    +0.000 C 
ATOM     29  N24 AWT A   1      24.878 -37.988  44.780 -0.38 -0.00    +0.000 NA
ATOM     30  N23 AWT A   1      24.040 -38.293  45.674 -0.29 -0.00    +0.000 NA
ENDBRANCH  25  26
ENDBRANCH  18  20
ENDBRANCH  12  18
TORSDOF 5
TER
ENDMDL
