Time taken for this run:   2.409s

MODEL        27
USER    Run = 27
USER
USER    Estimated Free Energy of Binding    = -10.99 kcal/mol  [=(1)+(2)+(3)-(4)]
USER
USER    (1) Final Intermolecular Energy     = -12.78 kcal/mol
USER        vdW + Hbond + desolv Energy     = -12.78 kcal/mol
USER        Electrostatic Energy            =  +0.00 kcal/mol
USER        Moving Ligand-Fixed Receptor    = -12.78 kcal/mol
USER        Moving Ligand-Moving Receptor   =  +0.00 kcal/mol
USER    (2) Final Total Internal Energy     =  -2.01 kcal/mol
USER    (3) Torsional Free Energy           =  +1.79 kcal/mol
USER    (4) Unbound System's Energy         =  -2.01 kcal/mol
USER
USER
REMARK  Name = AWZ
REMARK  10 active torsions:
REMARK  status: ('A' for Active; 'I' for Inactive)
REMARK    1  A    between atoms: C6_3  and  C7_5
REMARK    2  A    between atoms: C11_4  and  C12_7
REMARK    3  A    between atoms: C11_4  and  C13_8
REMARK    4  A    between atoms: C11_4  and  N10_21
REMARK    5  A    between atoms: C9_6  and  N10_21
REMARK    6  A    between atoms: C18_17  and  C16_18
REMARK    7  A    between atoms: C1_26  and  O30_27
REMARK    8  A    between atoms: O30_27  and  C31_28
REMARK    9  A    between atoms: C27_29  and  O28_30
REMARK   10  A    between atoms: O28_30  and  C29_31
REMARK                            x       y       z     vdW  Elec       q    Type
REMARK                         _______ _______ _______ _____ _____    ______ ____
USER                              x       y       z     vdW  Elec       q    Type
USER                           _______ _______ _______ _____ _____    ______ ____
ROOT
ATOM      1  N10 AWZ A   1      21.548 -31.977  42.402 -0.48 -0.00    +0.000 N 
ATOM      2  H   AWZ A   1      20.556 -31.794  42.469 -0.61 -0.00    +0.000 HD
ENDROOT
BRANCH   1   6
ATOM      3  C4  AWZ A   1      22.330 -30.860  45.821 -0.29 -0.00    +0.000 A 
ATOM      4  C6  AWZ A   1      24.125 -31.922  44.889 -0.33 -0.00    +0.000 A 
ATOM      5  C7  AWZ A   1      25.557 -32.338  45.010 -0.27 -0.00    +0.000 C 
ATOM      6  C9  AWZ A   1      22.195 -31.806  43.638 -0.29 -0.00    +0.000 A 
ATOM      7  C3  AWZ A   1      21.551 -31.111  44.682 -0.37 -0.00    +0.000 A 
ATOM      8  N8  AWZ A   1      23.476 -32.201  43.746 -0.43 -0.00    +0.000 NA
ATOM      9  N5  AWZ A   1      23.595 -31.265  45.931 -0.24 -0.00    +0.000 NA
ATOM     10  C26 AWZ A   1      21.767 -30.168  46.883 -0.24 -0.00    +0.000 A 
ATOM     11  C2  AWZ A   1      20.199 -30.665  44.667 -0.14 -0.00    +0.000 A 
ATOM     12  C1  AWZ A   1      19.636 -29.988  45.749 -0.37 -0.00    +0.000 A 
ATOM     13  C27 AWZ A   1      20.447 -29.703  46.849 -0.26 -0.00    +0.000 A 
BRANCH  12  14
ATOM     14  O30 AWZ A   1      18.345 -29.535  45.787 -0.44 -0.00    +0.000 OA
ATOM     15  C31 AWZ A   1      17.332 -30.465  45.409 -0.37 -0.00    +0.000 C 
ENDBRANCH  12  14
BRANCH  13  16
ATOM     16  O28 AWZ A   1      19.896 -29.056  47.925 -0.19 -0.00    +0.000 OA
ATOM     17  C29 AWZ A   1      20.255 -29.652  49.171 -0.14 -0.00    +0.000 C 
ENDBRANCH  13  16
ENDBRANCH   1   6
BRANCH   1  18
ATOM     18  C11 AWZ A   1      21.748 -33.257  41.711 -0.64 -0.00    +0.000 C 
ATOM     19  C12 AWZ A   1      21.096 -33.104  40.323 -0.79 -0.00    +0.000 C 
BRANCH  18  21
ATOM     20  C14 AWZ A   1      19.820 -34.902  42.400 -0.60 -0.00    +0.000 A 
ATOM     21  C13 AWZ A   1      21.121 -34.432  42.448 -0.50 -0.00    +0.000 A 
ATOM     22  C16 AWZ A   1      20.743 -36.367  43.960 -0.43 -0.00    +0.000 A 
ATOM     23  S17 AWZ A   1      22.066 -35.369  43.533 -0.55 -0.00    +0.000 S 
ATOM     24  C15 AWZ A   1      19.609 -36.023  43.257 -0.55 -0.00    +0.000 A 
BRANCH  22  32
ATOM     25  C23 AWZ A   1      19.579 -38.971  47.837 -0.45 -0.00    +0.000 C 
ATOM     26  C24 AWZ A   1      18.307 -38.182  47.438 -0.54 -0.00    +0.000 C 
ATOM     27  C25 AWZ A   1      18.776 -37.099  46.449 -0.53 -0.00    +0.000 C 
ATOM     28  N19 AWZ A   1      19.997 -37.674  45.926 -0.41 -0.00    +0.000 N 
ATOM     29  C20 AWZ A   1      20.466 -38.700  46.689 -0.25 -0.00    +0.000 A 
ATOM     30  N21 AWZ A   1      21.603 -39.157  46.239 -0.33 -0.00    +0.000 NA
ATOM     31  C22 AWZ A   1      21.873 -38.350  45.144 -0.37 -0.00    +0.000 A 
ATOM     32  C18 AWZ A   1      20.875 -37.405  44.933 -0.39 -0.00    +0.000 A 
ENDBRANCH  22  32
ENDBRANCH  18  21
ENDBRANCH   1  18
TORSDOF 6
TER
ENDMDL
Time taken for this run:   2.409s

MODEL        85
USER    Run = 85
USER
USER    Estimated Free Energy of Binding    = -10.46 kcal/mol  [=(1)+(2)+(3)-(4)]
USER
USER    (1) Final Intermolecular Energy     = -12.25 kcal/mol
USER        vdW + Hbond + desolv Energy     = -12.25 kcal/mol
USER        Electrostatic Energy            =  +0.00 kcal/mol
USER        Moving Ligand-Fixed Receptor    = -12.25 kcal/mol
USER        Moving Ligand-Moving Receptor   =  +0.00 kcal/mol
USER    (2) Final Total Internal Energy     =  -2.57 kcal/mol
USER    (3) Torsional Free Energy           =  +1.79 kcal/mol
USER    (4) Unbound System's Energy         =  -2.57 kcal/mol
USER
USER
REMARK  Name = AWZ
REMARK  10 active torsions:
REMARK  status: ('A' for Active; 'I' for Inactive)
REMARK    1  A    between atoms: C6_3  and  C7_5
REMARK    2  A    between atoms: C11_4  and  C12_7
REMARK    3  A    between atoms: C11_4  and  C13_8
REMARK    4  A    between atoms: C11_4  and  N10_21
REMARK    5  A    between atoms: C9_6  and  N10_21
REMARK    6  A    between atoms: C18_17  and  C16_18
REMARK    7  A    between atoms: C1_26  and  O30_27
REMARK    8  A    between atoms: O30_27  and  C31_28
REMARK    9  A    between atoms: C27_29  and  O28_30
REMARK   10  A    between atoms: O28_30  and  C29_31
REMARK                            x       y       z     vdW  Elec       q    Type
REMARK                         _______ _______ _______ _____ _____    ______ ____
USER                              x       y       z     vdW  Elec       q    Type
USER                           _______ _______ _______ _____ _____    ______ ____
ROOT
ATOM      1  N10 AWZ A   1      23.707 -38.298  46.675 -0.20 -0.00    +0.000 N 
ATOM      2  H   AWZ A   1      24.624 -38.429  47.078 -0.01 -0.00    +0.000 HD
ENDROOT
BRANCH   1   6
ATOM      3  C4  AWZ A   1      21.060 -36.143  48.052 -0.19 -0.00    +0.000 A 
ATOM      4  C6  AWZ A   1      22.982 -34.952  47.726 -0.14 -0.00    +0.000 A 
ATOM      5  C7  AWZ A   1      23.674 -33.625  47.759 -0.14 -0.00    +0.000 C 
ATOM      6  C9  AWZ A   1      23.036 -37.203  47.247 -0.13 -0.00    +0.000 A 
ATOM      7  C3  AWZ A   1      21.685 -37.326  47.631 -0.15 -0.00    +0.000 A 
ATOM      8  N8  AWZ A   1      23.672 -36.020  47.293 -0.13 -0.00    +0.000 NA
ATOM      9  N5  AWZ A   1      21.697 -34.973  48.108 -1.34 -0.00    +0.000 NA
ATOM     10  C26 AWZ A   1      19.726 -36.183  48.431 -0.28 -0.00    +0.000 A 
ATOM     11  C2  AWZ A   1      20.932 -38.533  47.632 -0.23 -0.00    +0.000 A 
ATOM     12  C1  AWZ A   1      19.597 -38.568  48.035 -0.36 -0.00    +0.000 A 
ATOM     13  C27 AWZ A   1      18.982 -37.368  48.398 -0.38 -0.00    +0.000 A 
BRANCH  12  14
ATOM     14  O30 AWZ A   1      18.827 -39.699  48.053 -0.63 -0.00    +0.000 OA
ATOM     15  C31 AWZ A   1      19.495 -40.921  48.357 -0.37 -0.00    +0.000 C 
ENDBRANCH  12  14
BRANCH  13  16
ATOM     16  O28 AWZ A   1      17.676 -37.396  48.815 -0.40 -0.00    +0.000 OA
ATOM     17  C29 AWZ A   1      17.397 -36.421  49.819 -0.38 -0.00    +0.000 C 
ENDBRANCH  13  16
ENDBRANCH   1   6
BRANCH   1  18
ATOM     18  C11 AWZ A   1      23.824 -38.323  45.211 -0.29 -0.00    +0.000 C 
ATOM     19  C12 AWZ A   1      25.292 -37.981  44.890 -0.26 -0.00    +0.000 C 
BRANCH  18  21
ATOM     20  C14 AWZ A   1      21.638 -37.526  43.992 -0.43 -0.00    +0.000 A 
ATOM     21  C13 AWZ A   1      22.900 -37.327  44.526 -0.37 -0.00    +0.000 A 
ATOM     22  C16 AWZ A   1      21.961 -35.274  43.487 -0.39 -0.00    +0.000 A 
ATOM     23  S17 AWZ A   1      23.398 -35.697  44.314 -0.46 -0.00    +0.000 S 
ATOM     24  C15 AWZ A   1      21.095 -36.343  43.411 -0.45 -0.00    +0.000 A 
BRANCH  22  32
ATOM     25  C23 AWZ A   1      20.850 -31.934  40.204 -0.64 -0.00    +0.000 C 
ATOM     26  C24 AWZ A   1      20.269 -33.273  39.685 -0.74 -0.00    +0.000 C 
ATOM     27  C25 AWZ A   1      20.929 -34.376  40.533 -0.44 -0.00    +0.000 C 
ATOM     28  N19 AWZ A   1      21.294 -33.657  41.735 -0.56 -0.00    +0.000 N 
ATOM     29  C20 AWZ A   1      21.272 -32.306  41.569 -0.51 -0.00    +0.000 A 
ATOM     30  N21 AWZ A   1      21.670 -31.679  42.643 -0.38 -0.00    +0.000 NA
ATOM     31  C22 AWZ A   1      21.984 -32.703  43.524 -0.43 -0.00    +0.000 A 
ATOM     32  C18 AWZ A   1      21.759 -33.958  42.970 -0.45 -0.00    +0.000 A 
ENDBRANCH  22  32
ENDBRANCH  18  21
ENDBRANCH   1  18
TORSDOF 6
TER
ENDMDL
Time taken for this run:   2.409s

MODEL        16
USER    Run = 16
USER
USER    Estimated Free Energy of Binding    = -10.29 kcal/mol  [=(1)+(2)+(3)-(4)]
USER
USER    (1) Final Intermolecular Energy     = -12.08 kcal/mol
USER        vdW + Hbond + desolv Energy     = -12.08 kcal/mol
USER        Electrostatic Energy            =  +0.00 kcal/mol
USER        Moving Ligand-Fixed Receptor    = -12.08 kcal/mol
USER        Moving Ligand-Moving Receptor   =  +0.00 kcal/mol
USER    (2) Final Total Internal Energy     =  -2.70 kcal/mol
USER    (3) Torsional Free Energy           =  +1.79 kcal/mol
USER    (4) Unbound System's Energy         =  -2.70 kcal/mol
USER
USER
REMARK  Name = AWZ
REMARK  10 active torsions:
REMARK  status: ('A' for Active; 'I' for Inactive)
REMARK    1  A    between atoms: C6_3  and  C7_5
REMARK    2  A    between atoms: C11_4  and  C12_7
REMARK    3  A    between atoms: C11_4  and  C13_8
REMARK    4  A    between atoms: C11_4  and  N10_21
REMARK    5  A    between atoms: C9_6  and  N10_21
REMARK    6  A    between atoms: C18_17  and  C16_18
REMARK    7  A    between atoms: C1_26  and  O30_27
REMARK    8  A    between atoms: O30_27  and  C31_28
REMARK    9  A    between atoms: C27_29  and  O28_30
REMARK   10  A    between atoms: O28_30  and  C29_31
REMARK                            x       y       z     vdW  Elec       q    Type
REMARK                         _______ _______ _______ _____ _____    ______ ____
USER                              x       y       z     vdW  Elec       q    Type
USER                           _______ _______ _______ _____ _____    ______ ____
ROOT
ATOM      1  N10 AWZ A   1      19.156 -34.759  43.278 -0.52 -0.00    +0.000 N 
ATOM      2  H   AWZ A   1      19.074 -34.298  44.173 +0.10 -0.00    +0.000 HD
ENDROOT
BRANCH   1   6
ATOM      3  C4  AWZ A   1      22.274 -33.085  42.268 -0.53 -0.00    +0.000 A 
ATOM      4  C6  AWZ A   1      20.880 -33.341  40.477 -0.69 -0.00    +0.000 A 
ATOM      5  C7  AWZ A   1      20.612 -33.075  39.029 -0.67 -0.00    +0.000 C 
ATOM      6  C9  AWZ A   1      20.182 -34.203  42.495 -0.53 -0.00    +0.000 A 
ATOM      7  C3  AWZ A   1      21.374 -33.761  43.105 -0.43 -0.00    +0.000 A 
ATOM      8  N8  AWZ A   1      19.942 -33.986  41.190 -0.58 -0.00    +0.000 NA
ATOM      9  N5  AWZ A   1      22.039 -32.883  40.972 -0.61 -0.00    +0.000 NA
ATOM     10  C26 AWZ A   1      23.462 -32.608  42.803 -0.28 -0.00    +0.000 A 
ATOM     11  C2  AWZ A   1      21.724 -33.954  44.471 -0.31 -0.00    +0.000 A 
ATOM     12  C1  AWZ A   1      22.931 -33.489  44.994 -0.28 -0.00    +0.000 A 
ATOM     13  C27 AWZ A   1      23.786 -32.772  44.154 -0.38 -0.00    +0.000 A 
BRANCH  12  14
ATOM     14  O30 AWZ A   1      23.317 -33.645  46.298 -0.22 -0.00    +0.000 OA
ATOM     15  C31 AWZ A   1      23.013 -34.897  46.908 -0.21 -0.00    +0.000 C 
ENDBRANCH  12  14
BRANCH  13  16
ATOM     16  O28 AWZ A   1      24.983 -32.329  44.655 -0.44 -0.00    +0.000 OA
ATOM     17  C29 AWZ A   1      25.522 -31.238  43.910 -0.47 -0.00    +0.000 C 
ENDBRANCH  13  16
ENDBRANCH   1   6
BRANCH   1  18
ATOM     18  C11 AWZ A   1      19.189 -36.211  43.494 -0.55 -0.00    +0.000 C 
ATOM     19  C12 AWZ A   1      18.320 -36.482  44.738 -0.30 -0.00    +0.000 C 
BRANCH  18  21
ATOM     20  C14 AWZ A   1      21.611 -36.955  42.803 -0.40 -0.00    +0.000 A 
ATOM     21  C13 AWZ A   1      20.595 -36.745  43.720 -0.45 -0.00    +0.000 A 
ATOM     22  C16 AWZ A   1      22.641 -37.704  44.755 -0.36 -0.00    +0.000 A 
ATOM     23  S17 AWZ A   1      21.099 -37.199  45.298 -0.50 -0.00    +0.000 S 
ATOM     24  C15 AWZ A   1      22.790 -37.491  43.401 -0.50 -0.00    +0.000 A 
BRANCH  22  32
ATOM     25  C23 AWZ A   1      24.238 -40.461  48.362 -0.17 +0.00    +0.000 C 
ATOM     26  C24 AWZ A   1      22.850 -41.019  47.962 -0.33 +0.00    +0.000 C 
ATOM     27  C25 AWZ A   1      22.198 -39.937  47.082 -0.36 -0.00    +0.000 C 
ATOM     28  N19 AWZ A   1      23.350 -39.221  46.578 -0.24 -0.00    +0.000 N 
ATOM     29  C20 AWZ A   1      24.485 -39.485  47.283 -0.15 -0.00    +0.000 A 
ATOM     30  N21 AWZ A   1      25.496 -38.777  46.856 -0.21 -0.00    +0.000 NA
ATOM     31  C22 AWZ A   1      24.952 -38.006  45.840 -0.26 -0.00    +0.000 A 
ATOM     32  C18 AWZ A   1      23.600 -38.267  45.652 -0.27 -0.00    +0.000 A 
ENDBRANCH  22  32
ENDBRANCH  18  21
ENDBRANCH   1  18
TORSDOF 6
TER
ENDMDL
Time taken for this run:   2.409s

MODEL        80
USER    Run = 80
USER
USER    Estimated Free Energy of Binding    =  -9.58 kcal/mol  [=(1)+(2)+(3)-(4)]
USER
USER    (1) Final Intermolecular Energy     = -11.37 kcal/mol
USER        vdW + Hbond + desolv Energy     = -11.37 kcal/mol
USER        Electrostatic Energy            =  +0.00 kcal/mol
USER        Moving Ligand-Fixed Receptor    = -11.37 kcal/mol
USER        Moving Ligand-Moving Receptor   =  +0.00 kcal/mol
USER    (2) Final Total Internal Energy     =  -3.43 kcal/mol
USER    (3) Torsional Free Energy           =  +1.79 kcal/mol
USER    (4) Unbound System's Energy         =  -3.43 kcal/mol
USER
USER
REMARK  Name = AWZ
REMARK  10 active torsions:
REMARK  status: ('A' for Active; 'I' for Inactive)
REMARK    1  A    between atoms: C6_3  and  C7_5
REMARK    2  A    between atoms: C11_4  and  C12_7
REMARK    3  A    between atoms: C11_4  and  C13_8
REMARK    4  A    between atoms: C11_4  and  N10_21
REMARK    5  A    between atoms: C9_6  and  N10_21
REMARK    6  A    between atoms: C18_17  and  C16_18
REMARK    7  A    between atoms: C1_26  and  O30_27
REMARK    8  A    between atoms: O30_27  and  C31_28
REMARK    9  A    between atoms: C27_29  and  O28_30
REMARK   10  A    between atoms: O28_30  and  C29_31
REMARK                            x       y       z     vdW  Elec       q    Type
REMARK                         _______ _______ _______ _____ _____    ______ ____
USER                              x       y       z     vdW  Elec       q    Type
USER                           _______ _______ _______ _____ _____    ______ ____
ROOT
ATOM      1  N10 AWZ A   1      23.864 -32.612  42.894 -0.42 -0.00    +0.000 N 
ATOM      2  H   AWZ A   1      24.695 -33.185  42.852 +0.08 -0.00    +0.000 HD
ENDROOT
BRANCH   1   6
ATOM      3  C4  AWZ A   1      21.509 -35.356  42.204 -0.42 -0.00    +0.000 A 
ATOM      4  C6  AWZ A   1      20.780 -33.409  41.256 -0.62 -0.00    +0.000 A 
ATOM      5  C7  AWZ A   1      19.772 -32.717  40.393 -0.58 -0.00    +0.000 C 
ATOM      6  C9  AWZ A   1      22.719 -33.324  42.494 -0.51 -0.00    +0.000 A 
ATOM      7  C3  AWZ A   1      22.613 -34.702  42.771 -0.47 -0.00    +0.000 A 
ATOM      8  N8  AWZ A   1      21.807 -32.690  41.737 -0.58 -0.00    +0.000 NA
ATOM      9  N5  AWZ A   1      20.599 -34.722  41.464 -0.57 -0.00    +0.000 NA
ATOM     10  C26 AWZ A   1      21.347 -36.716  42.421 -0.13 -0.00    +0.000 A 
ATOM     11  C2  AWZ A   1      23.516 -35.457  43.571 -0.34 -0.00    +0.000 A 
ATOM     12  C1  AWZ A   1      23.333 -36.821  43.800 -0.46 -0.00    +0.000 A 
ATOM     13  C27 AWZ A   1      22.257 -37.459  43.181 -0.50 -0.00    +0.000 A 
BRANCH  12  14
ATOM     14  O30 AWZ A   1      24.171 -37.594  44.557 -0.48 -0.00    +0.000 OA
ATOM     15  C31 AWZ A   1      24.260 -37.270  45.943 -0.27 -0.00    +0.000 C 
ENDBRANCH  12  14
BRANCH  13  16
ATOM     16  O28 AWZ A   1      22.058 -38.796  43.417 -0.59 -0.00    +0.000 OA
ATOM     17  C29 AWZ A   1      21.855 -39.086  44.799 -0.35 -0.00    +0.000 C 
ENDBRANCH  13  16
ENDBRANCH   1   6
BRANCH   1  18
ATOM     18  C11 AWZ A   1      23.815 -31.942  44.200 -0.42 -0.00    +0.000 C 
ATOM     19  C12 AWZ A   1      25.163 -31.210  44.359 -0.43 -0.00    +0.000 C 
BRANCH  18  21
ATOM     20  C14 AWZ A   1      24.548 -33.425  46.240 -0.18 -0.00    +0.000 A 
ATOM     21  C13 AWZ A   1      23.615 -32.911  45.356 -0.26 -0.00    +0.000 A 
ATOM     22  C16 AWZ A   1      22.622 -34.505  46.983 -0.17 -0.00    +0.000 A 
ATOM     23  S17 AWZ A   1      22.051 -33.533  45.696 -0.31 -0.00    +0.000 S 
ATOM     24  C15 AWZ A   1      23.974 -34.328  47.182 -0.15 -0.00    +0.000 A 
BRANCH  22  32
ATOM     25  C23 AWZ A   1      18.953 -37.550  47.643 -0.50 -0.00    +0.000 C 
ATOM     26  C24 AWZ A   1      19.248 -37.539  46.123 -0.45 -0.00    +0.000 C 
ATOM     27  C25 AWZ A   1      20.153 -36.317  45.878 -0.36 -0.00    +0.000 C 
ATOM     28  N19 AWZ A   1      20.755 -36.120  47.179 -0.27 -0.00    +0.000 N 
ATOM     29  C20 AWZ A   1      20.097 -36.781  48.171 -0.27 -0.00    +0.000 A 
ATOM     30  N21 AWZ A   1      20.615 -36.534  49.344 -0.16 -0.00    +0.000 NA
ATOM     31  C22 AWZ A   1      21.643 -35.645  49.069 -0.13 -0.00    +0.000 A 
ATOM     32  C18 AWZ A   1      21.745 -35.368  47.711 -0.13 -0.00    +0.000 A 
ENDBRANCH  22  32
ENDBRANCH  18  21
ENDBRANCH   1  18
TORSDOF 6
TER
ENDMDL
Time taken for this run:   2.409s

MODEL        92
USER    Run = 92
USER
USER    Estimated Free Energy of Binding    =  -9.29 kcal/mol  [=(1)+(2)+(3)-(4)]
USER
USER    (1) Final Intermolecular Energy     = -11.08 kcal/mol
USER        vdW + Hbond + desolv Energy     = -11.08 kcal/mol
USER        Electrostatic Energy            =  +0.00 kcal/mol
USER        Moving Ligand-Fixed Receptor    = -11.08 kcal/mol
USER        Moving Ligand-Moving Receptor   =  +0.00 kcal/mol
USER    (2) Final Total Internal Energy     =  -3.55 kcal/mol
USER    (3) Torsional Free Energy           =  +1.79 kcal/mol
USER    (4) Unbound System's Energy         =  -3.55 kcal/mol
USER
USER
REMARK  Name = AWZ
REMARK  10 active torsions:
REMARK  status: ('A' for Active; 'I' for Inactive)
REMARK    1  A    between atoms: C6_3  and  C7_5
REMARK    2  A    between atoms: C11_4  and  C12_7
REMARK    3  A    between atoms: C11_4  and  C13_8
REMARK    4  A    between atoms: C11_4  and  N10_21
REMARK    5  A    between atoms: C9_6  and  N10_21
REMARK    6  A    between atoms: C18_17  and  C16_18
REMARK    7  A    between atoms: C1_26  and  O30_27
REMARK    8  A    between atoms: O30_27  and  C31_28
REMARK    9  A    between atoms: C27_29  and  O28_30
REMARK   10  A    between atoms: O28_30  and  C29_31
REMARK                            x       y       z     vdW  Elec       q    Type
REMARK                         _______ _______ _______ _____ _____    ______ ____
USER                              x       y       z     vdW  Elec       q    Type
USER                           _______ _______ _______ _____ _____    ______ ____
ROOT
ATOM      1  N10 AWZ A   1      25.603 -33.312  46.909 -0.15 -0.00    +0.000 N 
ATOM      2  H   AWZ A   1      26.316 -33.132  47.603 -0.02 -0.00    +0.000 HD
ENDROOT
BRANCH   1   6
ATOM      3  C4  AWZ A   1      22.586 -35.362  47.397 -0.16 -0.00    +0.000 A 
ATOM      4  C6  AWZ A   1      22.753 -33.772  49.029 -0.04 -0.00    +0.000 A 
ATOM      5  C7  AWZ A   1      22.142 -33.110  50.224 -0.06 -0.00    +0.000 C 
ATOM      6  C9  AWZ A   1      24.452 -33.883  47.479 -0.12 -0.00    +0.000 A 
ATOM      7  C3  AWZ A   1      23.806 -34.958  46.835 -0.16 -0.00    +0.000 A 
ATOM      8  N8  AWZ A   1      23.920 -33.296  48.565 -0.08 -0.00    +0.000 NA
ATOM      9  N5  AWZ A   1      22.067 -34.786  48.482 -1.15 -0.00    +0.000 NA
ATOM     10  C26 AWZ A   1      21.885 -36.405  46.809 -0.19 -0.00    +0.000 A 
ATOM     11  C2  AWZ A   1      24.294 -35.652  45.693 +0.02 -0.00    +0.000 A 
ATOM     12  C1  AWZ A   1      23.593 -36.714  45.121 -0.29 -0.00    +0.000 A 
ATOM     13  C27 AWZ A   1      22.355 -37.061  45.666 -0.24 -0.00    +0.000 A 
BRANCH  12  14
ATOM     14  O30 AWZ A   1      24.014 -37.413  44.023 -0.54 -0.00    +0.000 OA
ATOM     15  C31 AWZ A   1      23.391 -37.088  42.782 -0.57 -0.00    +0.000 C 
ENDBRANCH  12  14
BRANCH  13  16
ATOM     16  O28 AWZ A   1      21.668 -38.117  45.122 -0.42 -0.00    +0.000 OA
ATOM     17  C29 AWZ A   1      22.103 -39.377  45.630 -0.36 -0.00    +0.000 C 
ENDBRANCH  13  16
ENDBRANCH   1   6
BRANCH   1  18
ATOM     18  C11 AWZ A   1      25.420 -32.103  46.095 -0.25 -0.00    +0.000 C 
ATOM     19  C12 AWZ A   1      25.415 -30.917  47.079 -0.15 -0.00    +0.000 C 
BRANCH  18  21
ATOM     20  C14 AWZ A   1      22.979 -31.360  45.473 -0.29 -0.00    +0.000 A 
ATOM     21  C13 AWZ A   1      24.125 -32.117  45.297 -0.29 -0.00    +0.000 A 
ATOM     22  C16 AWZ A   1      22.336 -32.687  43.668 -0.42 -0.00    +0.000 A 
ATOM     23  S17 AWZ A   1      23.940 -33.199  43.975 -0.48 -0.00    +0.000 S 
ATOM     24  C15 AWZ A   1      21.960 -31.678  44.528 -0.39 -0.00    +0.000 A 
BRANCH  22  32
ATOM     25  C23 AWZ A   1      19.391 -35.915  41.650 -0.40 -0.00    +0.000 C 
ATOM     26  C24 AWZ A   1      19.263 -36.099  43.183 -0.61 -0.00    +0.000 C 
ATOM     27  C25 AWZ A   1      20.451 -35.338  43.800 -0.48 -0.00    +0.000 C 
ATOM     28  N19 AWZ A   1      20.760 -34.371  42.768 -0.47 -0.00    +0.000 N 
ATOM     29  C20 AWZ A   1      20.196 -34.681  41.568 -0.57 -0.00    +0.000 A 
ATOM     30  N21 AWZ A   1      20.543 -33.834  40.637 -0.66 -0.00    +0.000 NA
ATOM     31  C22 AWZ A   1      21.396 -32.957  41.291 -0.62 -0.00    +0.000 A 
ATOM     32  C18 AWZ A   1      21.550 -33.281  42.633 -0.49 -0.00    +0.000 A 
ENDBRANCH  22  32
ENDBRANCH  18  21
ENDBRANCH   1  18
TORSDOF 6
TER
ENDMDL
