#       Name:                CT1002167954
#       Creating user name   hitesit
#       Creation time:       Sun Apr 16 02:22:11 2023


#       File generated by GOLD software.
#

@<TRIPOS>MOLECULE
CT1002167954|ligand_prepared|mol2|1|dock2
    29    30     1
SMALL
NO_CHARGES


@<TRIPOS>ATOM
      1 C1          14.7214  21.9463 -12.0171 C.3            1 RES1               0.0000
      2 C2          13.2077  22.1992 -11.8645 C.ar           1 RES1               0.0000
      3 C3          15.2178  22.9371 -13.0660 C.2            1 RES1               0.0000
      4 C4          15.3293  22.1484 -10.6335 C.2            1 RES1               0.0000
      5 C5          15.0715  20.5156 -12.4883 C.3            1 RES1               0.0000
      6 C6          12.7333  23.4507 -11.4831 C.ar           1 RES1               0.0000
      7 C7          12.2750  21.1935 -12.1039 C.ar           1 RES1               0.0000
      8 N8          15.9507  24.0022 -12.6321 N.am           1 RES1               0.0000
      9 O9          14.9370  22.8072 -14.2511 O.2            1 RES1               0.0000
     10 N10         16.1927  23.1980 -10.4585 N.am           1 RES1               0.0000
     11 O11         15.0555  21.4181  -9.6890 O.2            1 RES1               0.0000
     12 C12         16.5633  20.2721 -12.6531 C.3            1 RES1               0.0000
     13 C13         11.3755  23.6891 -11.3487 C.ar           1 RES1               0.0000
     14 C14         10.9176  21.4340 -11.9687 C.ar           1 RES1               0.0000
     15 C15         16.5071  24.1523 -11.3873 C.2            1 RES1               0.0000
     16 C16         10.4669  22.6812 -11.5918 C.ar           1 RES1               0.0000
     17 O17         17.2498  25.0976 -11.1383 O.2            1 RES1               0.0000
     18 H18         14.6747  19.7971 -11.7605 H              1 RES1               0.0000
     19 H19         14.5751  20.3288 -13.4486 H              1 RES1               0.0000
     20 H20         13.4334  24.2555 -11.2852 H              1 RES1               0.0000
     21 H21         12.6067  20.2043 -12.4004 H              1 RES1               0.0000
     22 H22         16.0986  24.7571 -13.2944 H              1 RES1               0.0000
     23 H23         16.6429  23.2749  -9.5520 H              1 RES1               0.0000
     24 H24         16.7536  19.2536 -12.9851 H              1 RES1               0.0000
     25 H25         16.9864  20.9529 -13.3888 H              1 RES1               0.0000
     26 H26         17.0854  20.4244 -11.7107 H              1 RES1               0.0000
     27 H27         11.0260  24.6720 -11.0506 H              1 RES1               0.0000
     28 H28         10.2061  20.6376 -12.1604 H              1 RES1               0.0000
     29 H29          9.4033  22.8683 -11.4869 H              1 RES1               0.0000
@<TRIPOS>BOND
    1    1    2 1     
    2    1    3 1     
    3    1    4 1     
    4    1    5 1     
    5    2    6 ar    
    6    2    7 ar    
    7    3    8 1     
    8    3    9 2     
    9    4   10 1     
   10    4   11 2     
   11    5   12 1     
   12    5   18 1     
   13    5   19 1     
   14    6   13 ar    
   15    6   20 1     
   16    7   14 ar    
   17    7   21 1     
   18    8   15 1     
   19    8   22 1     
   20   10   15 1     
   21   10   23 1     
   22   12   24 1     
   23   12   25 1     
   24   12   26 1     
   25   13   16 ar    
   26   13   27 1     
   27   14   16 ar    
   28   14   28 1     
   29   15   17 2     
   30   16   29 1     
@<TRIPOS>SUBSTRUCTURE
      1 RES1           1
@<TRIPOS>SET
DONOR_HYDROGENS      STATIC     ATOMS    <user>   **** ""
2 22 23
ATOM$RED        STATIC     ATOMS    COLORGROUP SYSTEM
2 22 23
@<TRIPOS>COMMENT
> <Gold.Version>
2022.3.0

> <Gold.Id.Protein>
unknown|4i1b_cavity_clean|pdb

> <Gold.Protein.RotatedTorsions>
[ 2175 2168 2166 2163 ] final   17.75 input   59.99 | X-H torsion
[  175  171  170  167 ] final   25.39 input   60.02 | X-H torsion
[ 2273 2266 2264 2261 ] final  101.85 input   60.00 | X-H torsion

> <Gold.Protein.ActiveResidues>
 SER13   GLN14   ILE106  GLU111  GLN126  THR137  LYS138  GLY139  GLY140  GLN141 
 ASP142  ILE143  THR144  ASP145 

> <Gold.Protein.RotatedAtoms>
    8.7094   19.9158   -9.8228 H   0  0  0  0  0  0  0  0  0  0  0  0  # atno 175  bound_to 171 
   19.7688   16.6268  -16.0268 H   0  0  0  0  0  0  0  0  0  0  0  0  # atno 2175 bound_to 2168
   17.1877   20.4803   -9.3303 H   0  0  0  0  0  0  0  0  0  0  0  0  # atno 2273 bound_to 2266
   19.6213   15.0211  -16.2481 LP  0  0  0  0  0  0  0  0  0  0  0  0  # atno 2422 bound_to 2168
   20.3445   15.9419  -17.3864 LP  0  0  0  0  0  0  0  0  0  0  0  0  # atno 2423 bound_to 2168
   10.2448   20.1676   -9.3452 LP  0  0  0  0  0  0  0  0  0  0  0  0  # atno 2434 bound_to 171 
    9.6230   21.0235  -10.5891 LP  0  0  0  0  0  0  0  0  0  0  0  0  # atno 2435 bound_to 171 
   15.8168   20.0353  -10.0860 LP  0  0  0  0  0  0  0  0  0  0  0  0  # atno 2464 bound_to 2266
   17.2681   19.6574  -10.7320 LP  0  0  0  0  0  0  0  0  0  0  0  0  # atno 2465 bound_to 2266

> <Gold.Score>
     Fitness  S(hb_ext) S(vdw_ext)  S(hb_int)    S(int)      intcor
     29.97       2.92      19.70       0.00      -0.04      -0.76

> <Gold.Goldscore.Fitness>
29.9743

> <Gold.Goldscore.Internal.Vdw>
-0.4272

> <Gold.Goldscore.Internal.Torsion>
-0.3680

> <Gold.Goldscore.External.Vdw>
19.7011

> <Gold.Goldscore.Internal.HBond>
0.0000

> <Gold.Goldscore.External.HBond>
2.9219

> <Gold.Goldscore.Internal.Correction>
-0.7585

> <Gold.Goldscore.Hbonds>
donor molecule, donor type, donor heavy atom, donor atom, acceptor molecule, acceptor atom, score
      P1  H  2205  2209       L1     9  0.18
      L1  H    10    23       P1  1778  0.43

> <Gold.Goldscore.Internal.Vdw.Weighted>
-0.4272

> <Gold.Goldscore.Internal.Torsion.Weighted>
-0.3680

> <Gold.Goldscore.External.Vdw.Weighted>
27.0890

> <Gold.Goldscore.Internal.HBond.Weighted>
0.0000

> <Gold.Goldscore.External.HBond.Weighted>
2.9219

> <Gold.Goldscore.Internal.Correction.Weighted>
-0.7585

> <Gold.Rescore>
     Score     S(PLP)   S(hbond)     S(cho)   S(metal)  DE(clash)   DE(tors)     intcor
     19.41     -13.87       1.90       0.00       0.00       0.00       0.07       ----

> <Gold.PLP.Fitness>
19.4103

> <Gold.PLP.PLP>
-13.8674

> <Gold.PLP.part.hbond>
-3.5071

> <Gold.PLP.part.metal>
0.0000

> <Gold.PLP.part.buried>
4.8753

> <Gold.PLP.part.nonpolar>
-19.9683

> <Gold.PLP.part.repulsive>
4.4412

> <Gold.PLP.ligand.clash>
0.0000

> <Gold.PLP.ligand.torsion>
0.0725

> <Gold.PLP.Chemscore.Hbond>
1.8960

> <Gold.PLP.Chemscore.CHOScore>
0.0000

> <Gold.PLP.Chemscore.Metal>
0.0000

> <Gold.Chemscore.Hbonds>
donor molecule, donor type, donor heavy atom, donor atom, acceptor molecule, acceptor atom, score
      L1  H    10    23       P1  1778  1.00

> <Gold.PLP.Chemscore.Internal.Correction>
   9.000000E+99

