#       Name:                CT1002167954
#       Creating user name   hitesit
#       Creation time:       Sun Apr 16 02:22:16 2023


#       File generated by GOLD software.
#

@<TRIPOS>MOLECULE
CT1002167954|ligand_prepared|mol2|1|dock10
    29    30     1
SMALL
NO_CHARGES


@<TRIPOS>ATOM
      1 C1          16.0526  22.9163 -12.7487 C.3            1 RES1               0.0000
      2 C2          14.8460  21.9559 -12.7712 C.ar           1 RES1               0.0000
      3 C3          15.4979  24.3079 -13.0388 C.2            1 RES1               0.0000
      4 C4          16.6854  22.7740 -11.3689 C.2            1 RES1               0.0000
      5 C5          17.1325  22.5878 -13.8058 C.3            1 RES1               0.0000
      6 C6          13.7170  22.2182 -12.0010 C.ar           1 RES1               0.0000
      7 C7          14.8462  20.8070 -13.5577 C.ar           1 RES1               0.0000
      8 N8          15.4204  25.1866 -11.9987 N.am           1 RES1               0.0000
      9 O9          15.0979  24.6165 -14.1546 O.2            1 RES1               0.0000
     10 N10         16.6485  23.8575 -10.5307 N.am           1 RES1               0.0000
     11 O11         17.2011  21.7282 -10.9938 O.2            1 RES1               0.0000
     12 C12         18.3136  23.5453 -13.7938 C.3            1 RES1               0.0000
     13 C13         12.6264  21.3646 -12.0186 C.ar           1 RES1               0.0000
     14 C14         13.7545  19.9545 -13.5738 C.ar           1 RES1               0.0000
     15 C15         16.0175  25.0475 -10.7716 C.2            1 RES1               0.0000
     16 C16         12.6442  20.2326 -12.8053 C.ar           1 RES1               0.0000
     17 O17         15.9815  25.9555  -9.9462 O.2            1 RES1               0.0000
     18 H18         17.5013  21.5699 -13.6292 H              1 RES1               0.0000
     19 H19         16.6708  22.6092 -14.8007 H              1 RES1               0.0000
     20 H20         13.6858  23.1030 -11.3739 H              1 RES1               0.0000
     21 H21         15.7092  20.5676 -14.1696 H              1 RES1               0.0000
     22 H22         14.8672  26.0246 -12.1470 H              1 RES1               0.0000
     23 H23         17.1366  23.7687  -9.6452 H              1 RES1               0.0000
     24 H24         19.0413  23.2698 -14.5542 H              1 RES1               0.0000
     25 H25         17.9864  24.5640 -13.9912 H              1 RES1               0.0000
     26 H26         18.8120  23.5309 -12.8267 H              1 RES1               0.0000
     27 H27         11.7556  21.5872 -11.4109 H              1 RES1               0.0000
     28 H28         13.7732  19.0644 -14.1939 H              1 RES1               0.0000
     29 H29         11.7896  19.5643 -12.8192 H              1 RES1               0.0000
@<TRIPOS>BOND
    1    1    2 1     
    2    1    3 1     
    3    1    4 1     
    4    1    5 1     
    5    2    6 ar    
    6    2    7 ar    
    7    3    8 1     
    8    3    9 2     
    9    4   10 1     
   10    4   11 2     
   11    5   12 1     
   12    5   18 1     
   13    5   19 1     
   14    6   13 ar    
   15    6   20 1     
   16    7   14 ar    
   17    7   21 1     
   18    8   15 1     
   19    8   22 1     
   20   10   15 1     
   21   10   23 1     
   22   12   24 1     
   23   12   25 1     
   24   12   26 1     
   25   13   16 ar    
   26   13   27 1     
   27   14   16 ar    
   28   14   28 1     
   29   15   17 2     
   30   16   29 1     
@<TRIPOS>SUBSTRUCTURE
      1 RES1           1
@<TRIPOS>SET
DONOR_HYDROGENS      STATIC     ATOMS    <user>   **** ""
2 22 23
ATOM$RED        STATIC     ATOMS    COLORGROUP SYSTEM
2 22 23
@<TRIPOS>COMMENT
> <Gold.Version>
2022.3.0

> <Gold.Id.Protein>
unknown|4i1b_cavity_clean|pdb

> <Gold.Protein.RotatedTorsions>
[ 2175 2168 2166 2163 ] final  127.72 input   59.99 | X-H torsion
[  175  171  170  167 ] final  164.06 input   60.02 | X-H torsion
[ 2273 2266 2264 2261 ] final   61.98 input   60.00 | X-H torsion

> <Gold.Protein.ActiveResidues>
 SER13   GLN14   ILE106  GLU111  GLN126  THR137  LYS138  GLY139  GLY140  GLN141 
 ASP142  ILE143  THR144  ASP145 

> <Gold.Protein.RotatedAtoms>
    9.8991   21.0334  -10.4605 H   0  0  0  0  0  0  0  0  0  0  0  0  # atno 175  bound_to 171 
   20.3517   16.1009  -17.3448 H   0  0  0  0  0  0  0  0  0  0  0  0  # atno 2175 bound_to 2168
   16.5545   20.5209   -9.2595 H   0  0  0  0  0  0  0  0  0  0  0  0  # atno 2273 bound_to 2266
   19.6951   16.5278  -15.9181 LP  0  0  0  0  0  0  0  0  0  0  0  0  # atno 2422 bound_to 2168
   19.6840   14.9646  -16.3899 LP  0  0  0  0  0  0  0  0  0  0  0  0  # atno 2423 bound_to 2168
    8.6328   20.0933  -10.0584 LP  0  0  0  0  0  0  0  0  0  0  0  0  # atno 2434 bound_to 171 
   10.0372   19.9726   -9.2339 LP  0  0  0  0  0  0  0  0  0  0  0  0  # atno 2435 bound_to 171 
   16.0644   19.7347  -10.5975 LP  0  0  0  0  0  0  0  0  0  0  0  0  # atno 2464 bound_to 2266
   17.6582   19.9172  -10.2919 LP  0  0  0  0  0  0  0  0  0  0  0  0  # atno 2465 bound_to 2266

> <Gold.Score>
     Fitness  S(hb_ext) S(vdw_ext)  S(hb_int)    S(int)      intcor
     27.45       2.41      18.49       0.00      -0.39      -0.76

> <Gold.Goldscore.Fitness>
27.4470

> <Gold.Goldscore.Internal.Vdw>
-0.7732

> <Gold.Goldscore.Internal.Torsion>
-0.3677

> <Gold.Goldscore.External.Vdw>
18.4904

> <Gold.Goldscore.Internal.HBond>
0.0000

> <Gold.Goldscore.External.HBond>
2.4081

> <Gold.Goldscore.Internal.Correction>
-0.7556

> <Gold.Goldscore.Hbonds>
donor molecule, donor type, donor heavy atom, donor atom, acceptor molecule, acceptor atom, score
      L1  H    10    23       P1  1778  0.40

> <Gold.Goldscore.Internal.Vdw.Weighted>
-0.7732

> <Gold.Goldscore.Internal.Torsion.Weighted>
-0.3677

> <Gold.Goldscore.External.Vdw.Weighted>
25.4243

> <Gold.Goldscore.Internal.HBond.Weighted>
0.0000

> <Gold.Goldscore.External.HBond.Weighted>
2.4081

> <Gold.Goldscore.Internal.Correction.Weighted>
-0.7556

> <Gold.Rescore>
     Score     S(PLP)   S(hbond)     S(cho)   S(metal)  DE(clash)   DE(tors)     intcor
     25.49     -23.39       1.00       0.00       0.00       0.00       0.45       ----

> <Gold.PLP.Fitness>
25.4939

> <Gold.PLP.PLP>
-23.3907

> <Gold.PLP.part.hbond>
-0.1272

> <Gold.PLP.part.metal>
0.0000

> <Gold.PLP.part.buried>
-4.1562

> <Gold.PLP.part.nonpolar>
-19.3678

> <Gold.PLP.part.repulsive>
0.2717

> <Gold.PLP.ligand.clash>
0.0000

> <Gold.PLP.ligand.torsion>
0.4484

> <Gold.PLP.Chemscore.Hbond>
1.0000

> <Gold.PLP.Chemscore.CHOScore>
0.0000

> <Gold.PLP.Chemscore.Metal>
0.0000

> <Gold.Chemscore.Hbonds>
donor molecule, donor type, donor heavy atom, donor atom, acceptor molecule, acceptor atom, score
      L1  H    10    23       P1  1778  1.00

> <Gold.PLP.Chemscore.Internal.Correction>
   9.000000E+99

