#       Name:                CT1002167954
#       Creating user name   hitesit
#       Creation time:       Sun Apr 16 02:21:55 2023


#       File generated by GOLD software.
#

@<TRIPOS>MOLECULE
CT1002167954|ligand_prepared|mol2|1|dock8
    29    30     1
SMALL
NO_CHARGES


@<TRIPOS>ATOM
      1 C1          43.5702  65.9483  14.2631 C.3            1 RES1               0.0000
      2 C2          43.6204  64.9819  15.4641 C.ar           1 RES1               0.0000
      3 C3          42.3205  65.5801  13.4688 C.2            1 RES1               0.0000
      4 C4          43.5428  67.3557  14.8489 C.2            1 RES1               0.0000
      5 C5          44.7961  65.8446  13.3261 C.3            1 RES1               0.0000
      6 C6          44.3285  63.7866  15.3827 C.ar           1 RES1               0.0000
      7 C7          42.9669  65.2726  16.6587 C.ar           1 RES1               0.0000
      8 N8          41.2510  66.4226  13.5472 N.am           1 RES1               0.0000
      9 O9          42.2605  64.5460  12.8151 O.2            1 RES1               0.0000
     10 N10         42.4143  68.1091  14.6573 N.am           1 RES1               0.0000
     11 O11         44.4817  67.8129  15.4890 O.2            1 RES1               0.0000
     12 C12         44.9021  66.9857  12.3267 C.3            1 RES1               0.0000
     13 C13         44.3839  62.9149  16.4576 C.ar           1 RES1               0.0000
     14 C14         43.0234  64.3993  17.7323 C.ar           1 RES1               0.0000
     15 C15         41.2553  67.6951  14.0594 C.2            1 RES1               0.0000
     16 C16         43.7319  63.2208  17.6331 C.ar           1 RES1               0.0000
     17 O17         40.2632  68.4130  13.9730 O.2            1 RES1               0.0000
     18 H18         45.7069  65.8247  13.9372 H              1 RES1               0.0000
     19 H19         44.7408  64.8973  12.7758 H              1 RES1               0.0000
     20 H20         44.8459  63.5278  14.4649 H              1 RES1               0.0000
     21 H21         42.4026  66.1935  16.7591 H              1 RES1               0.0000
     22 H22         40.3662  66.0743  13.1922 H              1 RES1               0.0000
     23 H23         42.4408  69.0672  14.9912 H              1 RES1               0.0000
     24 H24         45.7790  66.8642  11.6942 H              1 RES1               0.0000
     25 H25         44.0238  67.0196  11.6854 H              1 RES1               0.0000
     26 H26         44.9842  67.9416  12.8399 H              1 RES1               0.0000
     27 H27         44.9417  61.9880  16.3739 H              1 RES1               0.0000
     28 H28         42.5082  64.6438  18.6554 H              1 RES1               0.0000
     29 H29         43.7757  62.5379  18.4751 H              1 RES1               0.0000
@<TRIPOS>BOND
    1    1    2 1     
    2    1    3 1     
    3    1    4 1     
    4    1    5 1     
    5    2    6 ar    
    6    2    7 ar    
    7    3    8 1     
    8    3    9 2     
    9    4   10 1     
   10    4   11 2     
   11    5   12 1     
   12    5   18 1     
   13    5   19 1     
   14    6   13 ar    
   15    6   20 1     
   16    7   14 ar    
   17    7   21 1     
   18    8   15 1     
   19    8   22 1     
   20   10   15 1     
   21   10   23 1     
   22   12   24 1     
   23   12   25 1     
   24   12   26 1     
   25   13   16 ar    
   26   13   27 1     
   27   14   16 ar    
   28   14   28 1     
   29   15   17 2     
   30   16   29 1     
@<TRIPOS>SUBSTRUCTURE
      1 RES1           1
@<TRIPOS>SET
DONOR_HYDROGENS      STATIC     ATOMS    <user>   **** ""
2 22 23
ATOM$RED        STATIC     ATOMS    COLORGROUP SYSTEM
2 22 23
@<TRIPOS>COMMENT
> <Gold.Version>
2022.3.0

> <Gold.Id.Protein>
unknown|4r3c_clean|pdb

> <Gold.Protein.RotatedTorsions>
[  649  644  642  639 ] final   25.73 input   60.03 | X-H torsion
[   62   61   59   56 ] final   24.60 input   59.99 | X-H torsion
[  665  660  659  658 ] final   52.48 input   59.98 | X-H torsion

> <Gold.Protein.ActiveResidues>
 PRO6    THR7    PHE8    TYR9    PRO21   GLU22   ARG23   TYR24   GLN25   ASN26  
 PHE42   ASP43   THR44   LYS45   THR46   GLY47  

> <Gold.Protein.RotatedAtoms>
   38.1660   70.1909   13.4964 H   0  0  0  0  0  0  0  0  0  0  0  0  # atno 62   bound_to 61  
   46.9876   63.6058   18.0086 H   0  0  0  0  0  0  0  0  0  0  0  0  # atno 649  bound_to 644 
   49.5034   64.1833   10.3556 H   0  0  0  0  0  0  0  0  0  0  0  0  # atno 665  bound_to 660 
   48.8289   63.1723    9.2282 H   0  0  0  0  0  0  0  0  0  0  0  0  # atno 666  bound_to 660 
   47.8577   64.1315   10.1682 H   0  0  0  0  0  0  0  0  0  0  0  0  # atno 667  bound_to 660 
   46.4495   64.7029   19.0832 LP  0  0  0  0  0  0  0  0  0  0  0  0  # atno 5661 bound_to 644 
   45.4326   63.5729   18.4869 LP  0  0  0  0  0  0  0  0  0  0  0  0  # atno 5662 bound_to 644 
   36.9522   70.7986   14.3940 LP  0  0  0  0  0  0  0  0  0  0  0  0  # atno 5677 bound_to 61  
   37.5342   69.3052   14.7066 LP  0  0  0  0  0  0  0  0  0  0  0  0  # atno 5678 bound_to 61  

> <Gold.Score>
     Fitness  S(hb_ext) S(vdw_ext)  S(hb_int)    S(int)      intcor
     32.15       1.82      22.47       0.00      -0.56      -0.76

> <Gold.Goldscore.Fitness>
32.1505

> <Gold.Goldscore.Internal.Vdw>
-0.7141

> <Gold.Goldscore.Internal.Torsion>
-0.6094

> <Gold.Goldscore.External.Vdw>
22.4706

> <Gold.Goldscore.Internal.HBond>
0.0000

> <Gold.Goldscore.External.HBond>
1.8184

> <Gold.Goldscore.Internal.Correction>
-0.7585

> <Gold.Goldscore.Hbonds>
donor molecule, donor type, donor heavy atom, donor atom, acceptor molecule, acceptor atom, score
      P1  H   338   353       L1    11  0.04
      P1  H    55    67       L1    17  0.59
      L1  H    10    23       P1    58  0.28

> <Gold.Goldscore.Internal.Vdw.Weighted>
-0.7141

> <Gold.Goldscore.Internal.Torsion.Weighted>
-0.6094

> <Gold.Goldscore.External.Vdw.Weighted>
30.8971

> <Gold.Goldscore.Internal.HBond.Weighted>
0.0000

> <Gold.Goldscore.External.HBond.Weighted>
1.8184

> <Gold.Goldscore.Internal.Correction.Weighted>
-0.7585

> <Gold.Rescore>
     Score     S(PLP)   S(hbond)     S(cho)   S(metal)  DE(clash)   DE(tors)     intcor
     32.26     -29.67       1.61       0.00       0.00       0.00       1.12       ----

> <Gold.PLP.Fitness>
32.2639

> <Gold.PLP.PLP>
-29.6653

> <Gold.PLP.part.hbond>
-3.5791

> <Gold.PLP.part.metal>
0.0000

> <Gold.PLP.part.buried>
0.2272

> <Gold.PLP.part.nonpolar>
-27.6399

> <Gold.PLP.part.repulsive>
0.3141

> <Gold.PLP.ligand.clash>
0.0000

> <Gold.PLP.ligand.torsion>
1.1151

> <Gold.PLP.Chemscore.Hbond>
1.6096

> <Gold.PLP.Chemscore.CHOScore>
0.0000

> <Gold.PLP.Chemscore.Metal>
0.0000

> <Gold.Chemscore.Hbonds>
donor molecule, donor type, donor heavy atom, donor atom, acceptor molecule, acceptor atom, score
      P1  H   338   353       L1    11  0.56
      P1  H    55    67       L1    17  0.84

> <Gold.PLP.Chemscore.Internal.Correction>
   9.000000E+99

