#       Name:                CT1002167954
#       Creating user name   hitesit
#       Creation time:       Sun Apr 16 02:21:54 2023


#       File generated by GOLD software.
#

@<TRIPOS>MOLECULE
CT1002167954|ligand_prepared|mol2|1|dock6
    29    30     1
SMALL
NO_CHARGES


@<TRIPOS>ATOM
      1 C1          43.7789  64.9327  14.0394 C.3            1 RES1               0.0000
      2 C2          44.7002  65.9597  13.3500 C.ar           1 RES1               0.0000
      3 C3          44.6271  64.2431  15.1040 C.2            1 RES1               0.0000
      4 C4          42.6012  65.7236  14.5982 C.2            1 RES1               0.0000
      5 C5          43.2192  63.8542  13.0827 C.3            1 RES1               0.0000
      6 C6          44.7122  67.2891  13.7612 C.ar           1 RES1               0.0000
      7 C7          45.5440  65.5927  12.3050 C.ar           1 RES1               0.0000
      8 N8          44.3956  64.5721  16.4071 N.am           1 RES1               0.0000
      9 O9          45.5124  63.4522  14.8023 O.2            1 RES1               0.0000
     10 N10         42.4544  65.7809  15.9594 N.am           1 RES1               0.0000
     11 O11         41.8087  66.3114  13.8725 O.2            1 RES1               0.0000
     12 C12         42.0764  63.0437  13.6738 C.3            1 RES1               0.0000
     13 C13         45.5399  68.2176  13.1520 C.ar           1 RES1               0.0000
     14 C14         46.3708  66.5229  11.6970 C.ar           1 RES1               0.0000
     15 C15         43.3157  65.2667  16.8900 C.2            1 RES1               0.0000
     16 C16         46.3700  67.8351  12.1199 C.ar           1 RES1               0.0000
     17 O17         43.1443  65.4061  18.0976 O.2            1 RES1               0.0000
     18 H18         42.8679  64.3435  12.1659 H              1 RES1               0.0000
     19 H19         44.0316  63.1703  12.8076 H              1 RES1               0.0000
     20 H20         44.0640  67.6092  14.5702 H              1 RES1               0.0000
     21 H21         45.5606  64.5662  11.9550 H              1 RES1               0.0000
     22 H22         45.0896  64.2743  17.0853 H              1 RES1               0.0000
     23 H23         41.6262  66.2504  16.3117 H              1 RES1               0.0000
     24 H24         41.7211  62.3018  12.9618 H              1 RES1               0.0000
     25 H25         42.3977  62.5233  14.5736 H              1 RES1               0.0000
     26 H26         41.2408  63.6895  13.9358 H              1 RES1               0.0000
     27 H27         45.5345  69.2494  13.4876 H              1 RES1               0.0000
     28 H28         47.0220  66.2175  10.8846 H              1 RES1               0.0000
     29 H29         47.0186  68.5625  11.6430 H              1 RES1               0.0000
@<TRIPOS>BOND
    1    1    2 1     
    2    1    3 1     
    3    1    4 1     
    4    1    5 1     
    5    2    6 ar    
    6    2    7 ar    
    7    3    8 1     
    8    3    9 2     
    9    4   10 1     
   10    4   11 2     
   11    5   12 1     
   12    5   18 1     
   13    5   19 1     
   14    6   13 ar    
   15    6   20 1     
   16    7   14 ar    
   17    7   21 1     
   18    8   15 1     
   19    8   22 1     
   20   10   15 1     
   21   10   23 1     
   22   12   24 1     
   23   12   25 1     
   24   12   26 1     
   25   13   16 ar    
   26   13   27 1     
   27   14   16 ar    
   28   14   28 1     
   29   15   17 2     
   30   16   29 1     
@<TRIPOS>SUBSTRUCTURE
      1 RES1           1
@<TRIPOS>SET
DONOR_HYDROGENS      STATIC     ATOMS    <user>   **** ""
2 22 23
ATOM$RED        STATIC     ATOMS    COLORGROUP SYSTEM
2 22 23
@<TRIPOS>COMMENT
> <Gold.Version>
2022.3.0

> <Gold.Id.Protein>
unknown|4r3c_clean|pdb

> <Gold.Protein.RotatedTorsions>
[  649  644  642  639 ] final -157.40 input   60.03 | X-H torsion
[   62   61   59   56 ] final  -51.56 input   59.99 | X-H torsion
[  665  660  659  658 ] final  100.16 input   59.98 | X-H torsion

> <Gold.Protein.ActiveResidues>
 PRO6    THR7    PHE8    TYR9    PRO21   GLU22   ARG23   TYR24   GLN25   ASN26  
 PHE42   ASP43   THR44   LYS45   THR46   GLY47  

> <Gold.Protein.RotatedAtoms>
   37.3759   70.9525   13.8564 H   0  0  0  0  0  0  0  0  0  0  0  0  # atno 62   bound_to 61  
   45.5655   64.2754   19.0249 H   0  0  0  0  0  0  0  0  0  0  0  0  # atno 649  bound_to 644 
   49.6655   63.6581    9.8110 H   0  0  0  0  0  0  0  0  0  0  0  0  # atno 665  bound_to 660 
   48.0937   63.3647    9.3733 H   0  0  0  0  0  0  0  0  0  0  0  0  # atno 666  bound_to 660 
   48.4305   64.4638   10.5672 H   0  0  0  0  0  0  0  0  0  0  0  0  # atno 667  bound_to 660 
   46.1824   63.2198   17.9510 LP  0  0  0  0  0  0  0  0  0  0  0  0  # atno 5661 bound_to 644 
   47.1315   64.3818   18.5958 LP  0  0  0  0  0  0  0  0  0  0  0  0  # atno 5662 bound_to 644 
   37.0526   69.7694   14.9260 LP  0  0  0  0  0  0  0  0  0  0  0  0  # atno 5677 bound_to 61  
   38.2294   69.5676   13.8120 LP  0  0  0  0  0  0  0  0  0  0  0  0  # atno 5678 bound_to 61  

> <Gold.Score>
     Fitness  S(hb_ext) S(vdw_ext)  S(hb_int)    S(int)      intcor
     26.86       0.38      19.87       0.00      -0.83      -0.77

> <Gold.Goldscore.Fitness>
26.8594

> <Gold.Goldscore.Internal.Vdw>
-0.9621

> <Gold.Goldscore.Internal.Torsion>
-0.6371

> <Gold.Goldscore.External.Vdw>
19.8668

> <Gold.Goldscore.Internal.HBond>
0.0000

> <Gold.Goldscore.External.HBond>
0.3765

> <Gold.Goldscore.Internal.Correction>
-0.7653

> <Gold.Goldscore.Hbonds>
donor molecule, donor type, donor heavy atom, donor atom, acceptor molecule, acceptor atom, score
      P1  H   644   649       L1    17  0.14
      L1  H     8    22       P1   644  0.05

> <Gold.Goldscore.Internal.Vdw.Weighted>
-0.9621

> <Gold.Goldscore.Internal.Torsion.Weighted>
-0.6371

> <Gold.Goldscore.External.Vdw.Weighted>
27.3168

> <Gold.Goldscore.Internal.HBond.Weighted>
0.0000

> <Gold.Goldscore.External.HBond.Weighted>
0.3765

> <Gold.Goldscore.Internal.Correction.Weighted>
-0.7653

> <Gold.Rescore>
     Score     S(PLP)   S(hbond)     S(cho)   S(metal)  DE(clash)   DE(tors)     intcor
     28.88     -28.17       1.00       0.00       0.00       1.64       0.32       ----

> <Gold.PLP.Fitness>
28.8759

> <Gold.PLP.PLP>
-28.1696

> <Gold.PLP.part.hbond>
-2.0000

> <Gold.PLP.part.metal>
0.0000

> <Gold.PLP.part.buried>
-4.4395

> <Gold.PLP.part.nonpolar>
-22.9758

> <Gold.PLP.part.repulsive>
0.2633

> <Gold.PLP.ligand.clash>
1.6448

> <Gold.PLP.ligand.torsion>
0.3245

> <Gold.PLP.Chemscore.Hbond>
1.0000

> <Gold.PLP.Chemscore.CHOScore>
0.0000

> <Gold.PLP.Chemscore.Metal>
0.0000

> <Gold.PLP.Chemscore.Internal.Correction>
   9.000000E+99

