#       Name:                CT1002167954
#       Creating user name   hitesit
#       Creation time:       Sun Apr 16 02:21:51 2023


#       File generated by GOLD software.
#

@<TRIPOS>MOLECULE
CT1002167954|ligand_prepared|mol2|1|dock3
    29    30     1
SMALL
NO_CHARGES


@<TRIPOS>ATOM
      1 C1          42.4698  66.4967  14.4325 C.3            1 RES1               0.0000
      2 C2          43.5588  66.9656  13.4460 C.ar           1 RES1               0.0000
      3 C3          41.3876  67.5723  14.4189 C.2            1 RES1               0.0000
      4 C4          41.9997  65.1349  13.9334 C.2            1 RES1               0.0000
      5 C5          42.9739  66.3254  15.8844 C.3            1 RES1               0.0000
      6 C6          44.5987  67.7846  13.8754 C.ar           1 RES1               0.0000
      7 C7          43.5383  66.5857  12.1067 C.ar           1 RES1               0.0000
      8 N8          40.2192  67.2850  13.7770 N.am           1 RES1               0.0000
      9 O9          41.5716  68.6704  14.9296 O.2            1 RES1               0.0000
     10 N10         40.7093  65.0256  13.4856 N.am           1 RES1               0.0000
     11 O11         42.7402  64.1595  13.9083 O.2            1 RES1               0.0000
     12 C12         42.0013  65.5836  16.7877 C.3            1 RES1               0.0000
     13 C13         45.5842  68.2064  12.9983 C.ar           1 RES1               0.0000
     14 C14         44.5247  67.0088  11.2311 C.ar           1 RES1               0.0000
     15 C15         39.8071  66.0461  13.3561 C.2            1 RES1               0.0000
     16 C16         45.5482  67.8185  11.6759 C.ar           1 RES1               0.0000
     17 O17         38.6821  65.8792  12.8938 O.2            1 RES1               0.0000
     18 H18         43.9252  65.7794  15.8658 H              1 RES1               0.0000
     19 H19         43.1653  67.3178  16.3112 H              1 RES1               0.0000
     20 H20         44.6423  68.1021  14.9119 H              1 RES1               0.0000
     21 H21         42.7422  65.9500  11.7343 H              1 RES1               0.0000
     22 H22         39.5941  68.0632  13.5927 H              1 RES1               0.0000
     23 H23         40.3917  64.0974  13.2249 H              1 RES1               0.0000
     24 H24         42.4037  65.4910  17.7943 H              1 RES1               0.0000
     25 H25         41.0523  66.1123  16.8494 H              1 RES1               0.0000
     26 H26         41.8077  64.5830  16.4067 H              1 RES1               0.0000
     27 H27         46.3867  68.8446  13.3530 H              1 RES1               0.0000
     28 H28         44.4920  66.7016  10.1911 H              1 RES1               0.0000
     29 H29         46.3205  68.1486  10.9891 H              1 RES1               0.0000
@<TRIPOS>BOND
    1    1    2 1     
    2    1    3 1     
    3    1    4 1     
    4    1    5 1     
    5    2    6 ar    
    6    2    7 ar    
    7    3    8 1     
    8    3    9 2     
    9    4   10 1     
   10    4   11 2     
   11    5   12 1     
   12    5   18 1     
   13    5   19 1     
   14    6   13 ar    
   15    6   20 1     
   16    7   14 ar    
   17    7   21 1     
   18    8   15 1     
   19    8   22 1     
   20   10   15 1     
   21   10   23 1     
   22   12   24 1     
   23   12   25 1     
   24   12   26 1     
   25   13   16 ar    
   26   13   27 1     
   27   14   16 ar    
   28   14   28 1     
   29   15   17 2     
   30   16   29 1     
@<TRIPOS>SUBSTRUCTURE
      1 RES1           1
@<TRIPOS>SET
DONOR_HYDROGENS      STATIC     ATOMS    <user>   **** ""
2 22 23
ATOM$RED        STATIC     ATOMS    COLORGROUP SYSTEM
2 22 23
@<TRIPOS>COMMENT
> <Gold.Version>
2022.3.0

> <Gold.Id.Protein>
unknown|4r3c_clean|pdb

> <Gold.Protein.RotatedTorsions>
[  649  644  642  639 ] final   12.33 input   60.03 | X-H torsion
[   62   61   59   56 ] final   35.80 input   59.99 | X-H torsion
[  665  660  659  658 ] final  -88.46 input   59.98 | X-H torsion

> <Gold.Protein.ActiveResidues>
 PRO6    THR7    PHE8    TYR9    PRO21   GLU22   ARG23   TYR24   GLN25   ASN26  
 PHE42   ASP43   THR44   LYS45   THR46   GLY47  

> <Gold.Protein.RotatedAtoms>
   38.2191   70.0228   13.5446 H   0  0  0  0  0  0  0  0  0  0  0  0  # atno 62   bound_to 61  
   47.1038   63.7655   18.1019 H   0  0  0  0  0  0  0  0  0  0  0  0  # atno 649  bound_to 644 
   47.7753   63.9031    9.9188 H   0  0  0  0  0  0  0  0  0  0  0  0  # atno 665  bound_to 660 
   49.2514   64.3576   10.5209 H   0  0  0  0  0  0  0  0  0  0  0  0  # atno 666  bound_to 660 
   49.1614   63.2268    9.3126 H   0  0  0  0  0  0  0  0  0  0  0  0  # atno 667  bound_to 660 
   46.2366   64.6784   19.1327 LP  0  0  0  0  0  0  0  0  0  0  0  0  # atno 5661 bound_to 644 
   45.5285   63.4366   18.3434 LP  0  0  0  0  0  0  0  0  0  0  0  0  # atno 5662 bound_to 644 
   37.0348   70.8846   14.2537 LP  0  0  0  0  0  0  0  0  0  0  0  0  # atno 5677 bound_to 61  
   37.3980   69.3886   14.7983 LP  0  0  0  0  0  0  0  0  0  0  0  0  # atno 5678 bound_to 61  

> <Gold.Score>
     Fitness  S(hb_ext) S(vdw_ext)  S(hb_int)    S(int)      intcor
     25.71       0.65      18.69       0.00      -0.65      -0.77

> <Gold.Goldscore.Fitness>
25.7135

> <Gold.Goldscore.Internal.Vdw>
-0.8031

> <Gold.Goldscore.Internal.Torsion>
-0.6081

> <Gold.Goldscore.External.Vdw>
18.6942

> <Gold.Goldscore.Internal.HBond>
0.0000

> <Gold.Goldscore.External.HBond>
0.6549

> <Gold.Goldscore.Internal.Correction>
-0.7653

> <Gold.Goldscore.Hbonds>
donor molecule, donor type, donor heavy atom, donor atom, acceptor molecule, acceptor atom, score
      P1  H    55    67       L1     9  0.23
      L1  H     8    22       P1    61  0.10

> <Gold.Goldscore.Internal.Vdw.Weighted>
-0.8031

> <Gold.Goldscore.Internal.Torsion.Weighted>
-0.6081

> <Gold.Goldscore.External.Vdw.Weighted>
25.7045

> <Gold.Goldscore.Internal.HBond.Weighted>
0.0000

> <Gold.Goldscore.External.HBond.Weighted>
0.6549

> <Gold.Goldscore.Internal.Correction.Weighted>
-0.7653

> <Gold.Rescore>
     Score     S(PLP)   S(hbond)     S(cho)   S(metal)  DE(clash)   DE(tors)     intcor
     26.04     -25.60       0.94       0.00       0.00       0.00       1.20       ----

> <Gold.PLP.Fitness>
26.0378

> <Gold.PLP.PLP>
-25.5968

> <Gold.PLP.part.hbond>
-1.0000

> <Gold.PLP.part.metal>
0.0000

> <Gold.PLP.part.buried>
-3.2726

> <Gold.PLP.part.nonpolar>
-22.7554

> <Gold.PLP.part.repulsive>
0.1689

> <Gold.PLP.ligand.clash>
0.0000

> <Gold.PLP.ligand.torsion>
1.1955

> <Gold.PLP.Chemscore.Hbond>
0.9440

> <Gold.PLP.Chemscore.CHOScore>
0.0000

> <Gold.PLP.Chemscore.Metal>
0.0000

> <Gold.Chemscore.Hbonds>
donor molecule, donor type, donor heavy atom, donor atom, acceptor molecule, acceptor atom, score
      P1  H    55    67       L1     9  0.86

> <Gold.PLP.Chemscore.Internal.Correction>
   9.000000E+99

