#       Name:                CT1002167954
#       Creating user name   hitesit
#       Creation time:       Sun Apr 16 02:21:54 2023


#       File generated by GOLD software.
#

@<TRIPOS>MOLECULE
CT1002167954|ligand_prepared|mol2|1|dock7
    29    30     1
SMALL
NO_CHARGES


@<TRIPOS>ATOM
      1 C1          43.4924  65.9252  14.3487 C.3            1 RES1               0.0000
      2 C2          43.6119  64.9664  15.5509 C.ar           1 RES1               0.0000
      3 C3          42.2760  65.4633  13.5516 C.2            1 RES1               0.0000
      4 C4          43.3577  67.3271  14.9328 C.2            1 RES1               0.0000
      5 C5          44.7250  65.9131  13.4149 C.3            1 RES1               0.0000
      6 C6          42.8823  65.1939  16.7140 C.ar           1 RES1               0.0000
      7 C7          44.4441  63.8509  15.5109 C.ar           1 RES1               0.0000
      8 N8          41.1460  66.2231  13.6263 N.am           1 RES1               0.0000
      9 O9          42.2956  64.4269  12.8991 O.2            1 RES1               0.0000
     10 N10         42.1763  67.9933  14.7374 N.am           1 RES1               0.0000
     11 O11         44.2579  67.8543  15.5747 O.2            1 RES1               0.0000
     12 C12         44.7511  67.0618  12.4190 C.3            1 RES1               0.0000
     13 C13         42.9788  64.3357  17.7968 C.ar           1 RES1               0.0000
     14 C14         44.5392  62.9940  16.5950 C.ar           1 RES1               0.0000
     15 C15         41.0532  67.4928  14.1370 C.2            1 RES1               0.0000
     16 C16         43.8068  63.2350  17.7379 C.ar           1 RES1               0.0000
     17 O17         40.0101  68.1340  14.0474 O.2            1 RES1               0.0000
     18 H18         45.6333  65.9571  14.0286 H              1 RES1               0.0000
     19 H19         44.7397  64.9658  12.8618 H              1 RES1               0.0000
     20 H20         42.2273  66.0563  16.7796 H              1 RES1               0.0000
     21 H21         45.0304  63.6420  14.6226 H              1 RES1               0.0000
     22 H22         40.2907  65.8089  13.2695 H              1 RES1               0.0000
     23 H23         42.1298  68.9511  15.0703 H              1 RES1               0.0000
     24 H24         45.6361  67.0058  11.7887 H              1 RES1               0.0000
     25 H25         43.8743  67.0342  11.7753 H              1 RES1               0.0000
     26 H26         44.7626  68.0196  12.9351 H              1 RES1               0.0000
     27 H27         42.4013  64.5306  18.6944 H              1 RES1               0.0000
     28 H28         45.1927  62.1293  16.5445 H              1 RES1               0.0000
     29 H29         43.8820  62.5627  18.5861 H              1 RES1               0.0000
@<TRIPOS>BOND
    1    1    2 1     
    2    1    3 1     
    3    1    4 1     
    4    1    5 1     
    5    2    6 ar    
    6    2    7 ar    
    7    3    8 1     
    8    3    9 2     
    9    4   10 1     
   10    4   11 2     
   11    5   12 1     
   12    5   18 1     
   13    5   19 1     
   14    6   13 ar    
   15    6   20 1     
   16    7   14 ar    
   17    7   21 1     
   18    8   15 1     
   19    8   22 1     
   20   10   15 1     
   21   10   23 1     
   22   12   24 1     
   23   12   25 1     
   24   12   26 1     
   25   13   16 ar    
   26   13   27 1     
   27   14   16 ar    
   28   14   28 1     
   29   15   17 2     
   30   16   29 1     
@<TRIPOS>SUBSTRUCTURE
      1 RES1           1
@<TRIPOS>SET
DONOR_HYDROGENS      STATIC     ATOMS    <user>   **** ""
2 22 23
ATOM$RED        STATIC     ATOMS    COLORGROUP SYSTEM
2 22 23
@<TRIPOS>COMMENT
> <Gold.Version>
2022.3.0

> <Gold.Id.Protein>
unknown|4r3c_clean|pdb

> <Gold.Protein.RotatedTorsions>
[  649  644  642  639 ] final   55.04 input   60.03 | X-H torsion
[   62   61   59   56 ] final   60.91 input   59.99 | X-H torsion
[  665  660  659  658 ] final   -5.14 input   59.98 | X-H torsion

> <Gold.Protein.ActiveResidues>
 PRO6    THR7    PHE8    TYR9    PRO21   GLU22   ARG23   TYR24   GLN25   ASN26  
 PHE42   ASP43   THR44   LYS45   THR46   GLY47  

> <Gold.Protein.RotatedAtoms>
   38.2446   69.6661   13.7389 H   0  0  0  0  0  0  0  0  0  0  0  0  # atno 62   bound_to 61  
   46.6132   63.3338   17.9075 H   0  0  0  0  0  0  0  0  0  0  0  0  # atno 649  bound_to 644 
   48.6701   64.4865   10.6104 H   0  0  0  0  0  0  0  0  0  0  0  0  # atno 665  bound_to 660 
   49.5855   63.5025    9.6399 H   0  0  0  0  0  0  0  0  0  0  0  0  # atno 666  bound_to 660 
   47.9338   63.4986    9.5023 H   0  0  0  0  0  0  0  0  0  0  0  0  # atno 667  bound_to 660 
   46.8699   64.6169   18.8748 LP  0  0  0  0  0  0  0  0  0  0  0  0  # atno 5661 bound_to 644 
   45.3892   63.9327   18.7970 LP  0  0  0  0  0  0  0  0  0  0  0  0  # atno 5662 bound_to 644 
   37.2855   70.9653   13.9398 LP  0  0  0  0  0  0  0  0  0  0  0  0  # atno 5677 bound_to 61  
   37.1217   69.6671   14.9167 LP  0  0  0  0  0  0  0  0  0  0  0  0  # atno 5678 bound_to 61  

> <Gold.Score>
     Fitness  S(hb_ext) S(vdw_ext)  S(hb_int)    S(int)      intcor
     31.78       1.72      22.05       0.00      -0.25      -0.76

> <Gold.Goldscore.Fitness>
31.7802

> <Gold.Goldscore.Internal.Vdw>
-0.3902

> <Gold.Goldscore.Internal.Torsion>
-0.6226

> <Gold.Goldscore.External.Vdw>
22.0459

> <Gold.Goldscore.Internal.HBond>
0.0000

> <Gold.Goldscore.External.HBond>
1.7213

> <Gold.Goldscore.Internal.Correction>
-0.7585

> <Gold.Goldscore.Hbonds>
donor molecule, donor type, donor heavy atom, donor atom, acceptor molecule, acceptor atom, score
      P1  H   338   353       L1    11  0.03
      P1  H    55    67       L1    17  0.51
      L1  H    10    23       P1    58  0.31

> <Gold.Goldscore.Internal.Vdw.Weighted>
-0.3902

> <Gold.Goldscore.Internal.Torsion.Weighted>
-0.6226

> <Gold.Goldscore.External.Vdw.Weighted>
30.3131

> <Gold.Goldscore.Internal.HBond.Weighted>
0.0000

> <Gold.Goldscore.External.HBond.Weighted>
1.7213

> <Gold.Goldscore.Internal.Correction.Weighted>
-0.7585

> <Gold.Rescore>
     Score     S(PLP)   S(hbond)     S(cho)   S(metal)  DE(clash)   DE(tors)     intcor
     33.49     -27.08       2.34       0.00       0.00       0.00       0.30       ----

> <Gold.PLP.Fitness>
33.4875

> <Gold.PLP.PLP>
-27.0765

> <Gold.PLP.part.hbond>
-3.6588

> <Gold.PLP.part.metal>
0.0000

> <Gold.PLP.part.buried>
1.1709

> <Gold.PLP.part.nonpolar>
-25.3199

> <Gold.PLP.part.repulsive>
0.3147

> <Gold.PLP.ligand.clash>
0.0000

> <Gold.PLP.ligand.torsion>
0.2985

> <Gold.PLP.Chemscore.Hbond>
2.3360

> <Gold.PLP.Chemscore.CHOScore>
0.0000

> <Gold.PLP.Chemscore.Metal>
0.0000

> <Gold.Chemscore.Hbonds>
donor molecule, donor type, donor heavy atom, donor atom, acceptor molecule, acceptor atom, score
      P1  H   338   353       L1    11  0.52
      P1  H    61    62       L1    17  0.21
      P1  H    55    67       L1    17  1.00

> <Gold.PLP.Chemscore.Internal.Correction>
   9.000000E+99

