#       Name:                CT1002167954
#       Creating user name   hitesit
#       Creation time:       Sun Apr 16 02:22:03 2023


#       File generated by GOLD software.
#

@<TRIPOS>MOLECULE
CT1002167954|ligand_prepared|mol2|1|dock2
    29    30     1
SMALL
NO_CHARGES


@<TRIPOS>ATOM
      1 C1          -5.8072  -0.3261   2.3343 C.3            1 RES1               0.0000
      2 C2          -6.4684  -0.2251   0.9446 C.ar           1 RES1               0.0000
      3 C3          -4.3285  -0.6088   2.0857 C.2            1 RES1               0.0000
      4 C4          -6.0778   1.0018   3.0330 C.2            1 RES1               0.0000
      5 C5          -6.3817  -1.4571   3.2188 C.3            1 RES1               0.0000
      6 C6          -6.4229   0.9640   0.2229 C.ar           1 RES1               0.0000
      7 C7          -7.1241  -1.3112   0.3710 C.ar           1 RES1               0.0000
      8 N8          -3.4463   0.4096   2.2967 N.am           1 RES1               0.0000
      9 O9          -3.9466  -1.6969   1.6728 O.2            1 RES1               0.0000
     10 N10         -5.0072   1.8101   3.3126 N.am           1 RES1               0.0000
     11 O11         -7.2102   1.3629   3.3290 O.2            1 RES1               0.0000
     12 C12         -5.9664  -1.3646   4.6787 C.3            1 RES1               0.0000
     13 C13         -7.0089   1.0628  -1.0282 C.ar           1 RES1               0.0000
     14 C14         -7.7097  -1.2101  -0.8801 C.ar           1 RES1               0.0000
     15 C15         -3.7071   1.5881   2.9486 C.2            1 RES1               0.0000
     16 C16         -7.6523  -0.0241  -1.5807 C.ar           1 RES1               0.0000
     17 O17         -2.8076   2.3884   3.1884 O.2            1 RES1               0.0000
     18 H18         -7.4767  -1.4291   3.1607 H              1 RES1               0.0000
     19 H19         -6.0492  -2.4225   2.8177 H              1 RES1               0.0000
     20 H20         -5.9231   1.8307   0.6426 H              1 RES1               0.0000
     21 H21         -7.1827  -2.2539   0.9044 H              1 RES1               0.0000
     22 H22         -2.5058   0.2833   1.9365 H              1 RES1               0.0000
     23 H23         -5.1970   2.6557   3.8411 H              1 RES1               0.0000
     24 H24         -6.3964  -2.1815   5.2545 H              1 RES1               0.0000
     25 H25         -4.8839  -1.4147   4.7757 H              1 RES1               0.0000
     26 H26         -6.3030  -0.4272   5.1168 H              1 RES1               0.0000
     27 H27         -6.9621   1.9989  -1.5748 H              1 RES1               0.0000
     28 H28         -8.2156  -2.0680  -1.3108 H              1 RES1               0.0000
     29 H29         -8.1110   0.0535  -2.5609 H              1 RES1               0.0000
@<TRIPOS>BOND
    1    1    2 1     
    2    1    3 1     
    3    1    4 1     
    4    1    5 1     
    5    2    6 ar    
    6    2    7 ar    
    7    3    8 1     
    8    3    9 2     
    9    4   10 1     
   10    4   11 2     
   11    5   12 1     
   12    5   18 1     
   13    5   19 1     
   14    6   13 ar    
   15    6   20 1     
   16    7   14 ar    
   17    7   21 1     
   18    8   15 1     
   19    8   22 1     
   20   10   15 1     
   21   10   23 1     
   22   12   24 1     
   23   12   25 1     
   24   12   26 1     
   25   13   16 ar    
   26   13   27 1     
   27   14   16 ar    
   28   14   28 1     
   29   15   17 2     
   30   16   29 1     
@<TRIPOS>SUBSTRUCTURE
      1 RES1           1
@<TRIPOS>SET
DONOR_HYDROGENS      STATIC     ATOMS    <user>   **** ""
2 22 23
ATOM$RED        STATIC     ATOMS    COLORGROUP SYSTEM
2 22 23
@<TRIPOS>COMMENT
> <Gold.Version>
2022.3.0

> <Gold.Id.Protein>
unknown|3iw5_clean|pdb

> <Gold.Protein.RotatedTorsions>
[ 3850 3845 3844 3841 ] final  -94.75 input   60.02 | X-H torsion
[ 3876 3871 3870 3867 ] final -102.70 input   59.98 | X-H torsion
[ 3945 3936 3935 3933 ] final   44.52 input   60.03 | X-H torsion
[ 3541 3531 3530 3529 ] final  155.50 input   59.98 | X-H torsion
[ 3992 3987 3986 3983 ] final   94.13 input   60.02 | X-H torsion

> <Gold.Protein.ActiveResidues>
 LEU195  TRP197  ASP227  HIS228  ILE229  ASP230  LEU232  LYS233  LEU236  PRO242 
 ILE250  SER252  SER254  ALA255  ARG256  ASN257  TYR258  ILE259  SER261  LEU262 

> <Gold.Protein.RotatedAtoms>
   -8.1205   12.6681   -3.6499 H   0  0  0  0  0  0  0  0  0  0  0  0  # atno 3541 bound_to 3531
   -9.5414   12.1622   -2.9630 H   0  0  0  0  0  0  0  0  0  0  0  0  # atno 3542 bound_to 3531
   -8.0928   11.7259   -2.2865 H   0  0  0  0  0  0  0  0  0  0  0  0  # atno 3543 bound_to 3531
   -5.9173   -6.5273    5.4395 H   0  0  0  0  0  0  0  0  0  0  0  0  # atno 3850 bound_to 3845
   -5.0203   -4.9260    7.8820 H   0  0  0  0  0  0  0  0  0  0  0  0  # atno 3876 bound_to 3871
   -9.2243    4.9027    2.3132 H   0  0  0  0  0  0  0  0  0  0  0  0  # atno 3945 bound_to 3936
  -14.0824    2.5858    4.9055 H   0  0  0  0  0  0  0  0  0  0  0  0  # atno 3992 bound_to 3987
   -4.3688   -6.6065    5.9344 LP  0  0  0  0  0  0  0  0  0  0  0  0  # atno 5440 bound_to 3845
   -5.5249   -7.4479    6.7231 LP  0  0  0  0  0  0  0  0  0  0  0  0  # atno 5441 bound_to 3845
   -5.2466   -3.3156    7.8166 LP  0  0  0  0  0  0  0  0  0  0  0  0  # atno 5444 bound_to 3871
   -6.0626   -4.2995    6.8004 LP  0  0  0  0  0  0  0  0  0  0  0  0  # atno 5445 bound_to 3871
  -10.6401    4.5317    1.6024 LP  0  0  0  0  0  0  0  0  0  0  0  0  # atno 5452 bound_to 3936
   -9.2336    4.0444    0.9310 LP  0  0  0  0  0  0  0  0  0  0  0  0  # atno 5453 bound_to 3936

> <Gold.Score>
     Fitness  S(hb_ext) S(vdw_ext)  S(hb_int)    S(int)      intcor
     26.48       0.00      19.41       0.00      -0.22      -0.77

> <Gold.Goldscore.Fitness>
26.4763

> <Gold.Goldscore.Internal.Vdw>
-0.3559

> <Gold.Goldscore.Internal.Torsion>
-0.6301

> <Gold.Goldscore.External.Vdw>
19.4136

> <Gold.Goldscore.Internal.HBond>
0.0000

> <Gold.Goldscore.External.HBond>
0.0000

> <Gold.Goldscore.Internal.Correction>
-0.7686

> <Gold.Goldscore.Internal.Vdw.Weighted>
-0.3559

> <Gold.Goldscore.Internal.Torsion.Weighted>
-0.6301

> <Gold.Goldscore.External.Vdw.Weighted>
26.6937

> <Gold.Goldscore.Internal.HBond.Weighted>
0.0000

> <Gold.Goldscore.External.HBond.Weighted>
0.0000

> <Gold.Goldscore.Internal.Correction.Weighted>
-0.7686

> <Gold.Rescore>
     Score     S(PLP)   S(hbond)     S(cho)   S(metal)  DE(clash)   DE(tors)     intcor
     32.77     -35.17       0.00       0.00       0.00       0.00       1.20       ----

> <Gold.PLP.Fitness>
32.7725

> <Gold.PLP.PLP>
-35.1744

> <Gold.PLP.part.hbond>
0.0000

> <Gold.PLP.part.metal>
0.0000

> <Gold.PLP.part.buried>
-3.0604

> <Gold.PLP.part.nonpolar>
-32.9976

> <Gold.PLP.part.repulsive>
0.0022

> <Gold.PLP.ligand.clash>
0.0000

> <Gold.PLP.ligand.torsion>
1.2009

> <Gold.PLP.Chemscore.Hbond>
0.0000

> <Gold.PLP.Chemscore.CHOScore>
0.0000

> <Gold.PLP.Chemscore.Metal>
0.0000

> <Gold.PLP.Chemscore.Internal.Correction>
   9.000000E+99

