#       Name:                CT1002167954
#       Creating user name   hitesit
#       Creation time:       Sun Apr 16 02:22:05 2023


#       File generated by GOLD software.
#

@<TRIPOS>MOLECULE
CT1002167954|ligand_prepared|mol2|1|dock5
    29    30     1
SMALL
NO_CHARGES


@<TRIPOS>ATOM
      1 C1          -4.3138  -1.3495   2.7426 C.3            1 RES1               0.0000
      2 C2          -5.3868  -0.9242   1.7196 C.ar           1 RES1               0.0000
      3 C3          -3.3586  -2.2793   2.0002 C.2            1 RES1               0.0000
      4 C4          -3.6667  -0.0624   3.2420 C.2            1 RES1               0.0000
      5 C5          -4.8821  -2.1046   3.9667 C.3            1 RES1               0.0000
      6 C6          -5.3131   0.3139   1.0885 C.ar           1 RES1               0.0000
      7 C7          -6.4530  -1.7589   1.3952 C.ar           1 RES1               0.0000
      8 N8          -2.1291  -1.7898   1.6704 N.am           1 RES1               0.0000
      9 O9          -3.6934  -3.4115   1.6741 O.2            1 RES1               0.0000
     10 N10         -2.3475   0.1523   2.9395 N.am           1 RES1               0.0000
     11 O11         -4.2917   0.7755   3.8803 O.2            1 RES1               0.0000
     12 C12         -3.8562  -2.3608   5.0595 C.3            1 RES1               0.0000
     13 C13         -6.2688   0.7024   0.1644 C.ar           1 RES1               0.0000
     14 C14         -7.4078  -1.3683   0.4709 C.ar           1 RES1               0.0000
     15 C15         -1.5578  -0.6387   2.1502 C.2            1 RES1               0.0000
     16 C16         -7.3164  -0.1384  -0.1453 C.ar           1 RES1               0.0000
     17 O17         -0.3956  -0.3509   1.8789 O.2            1 RES1               0.0000
     18 H18         -5.7094  -1.5209   4.3889 H              1 RES1               0.0000
     19 H19         -5.2879  -3.0669   3.6308 H              1 RES1               0.0000
     20 H20         -4.4972   0.9900   1.3213 H              1 RES1               0.0000
     21 H21         -6.5457  -2.7306   1.8683 H              1 RES1               0.0000
     22 H22         -1.5842  -2.3294   1.0056 H              1 RES1               0.0000
     23 H23         -1.9140   0.9781   3.3400 H              1 RES1               0.0000
     24 H24         -4.3069  -2.8932   5.8945 H              1 RES1               0.0000
     25 H25         -3.0311  -2.9606   4.6810 H              1 RES1               0.0000
     26 H26         -3.4500  -1.4237   5.4345 H              1 RES1               0.0000
     27 H27         -6.1931   1.6720  -0.3168 H              1 RES1               0.0000
     28 H28         -8.2310  -2.0331   0.2307 H              1 RES1               0.0000
     29 H29         -8.0648   0.1660  -0.8696 H              1 RES1               0.0000
@<TRIPOS>BOND
    1    1    2 1     
    2    1    3 1     
    3    1    4 1     
    4    1    5 1     
    5    2    6 ar    
    6    2    7 ar    
    7    3    8 1     
    8    3    9 2     
    9    4   10 1     
   10    4   11 2     
   11    5   12 1     
   12    5   18 1     
   13    5   19 1     
   14    6   13 ar    
   15    6   20 1     
   16    7   14 ar    
   17    7   21 1     
   18    8   15 1     
   19    8   22 1     
   20   10   15 1     
   21   10   23 1     
   22   12   24 1     
   23   12   25 1     
   24   12   26 1     
   25   13   16 ar    
   26   13   27 1     
   27   14   16 ar    
   28   14   28 1     
   29   15   17 2     
   30   16   29 1     
@<TRIPOS>SUBSTRUCTURE
      1 RES1           1
@<TRIPOS>SET
DONOR_HYDROGENS      STATIC     ATOMS    <user>   **** ""
2 22 23
ATOM$RED        STATIC     ATOMS    COLORGROUP SYSTEM
2 22 23
@<TRIPOS>COMMENT
> <Gold.Version>
2022.3.0

> <Gold.Id.Protein>
unknown|3iw5_clean|pdb

> <Gold.Protein.RotatedTorsions>
[ 3850 3845 3844 3841 ] final -171.86 input   60.02 | X-H torsion
[ 3876 3871 3870 3867 ] final   -5.20 input   59.98 | X-H torsion
[ 3945 3936 3935 3933 ] final   61.17 input   60.03 | X-H torsion
[ 3541 3531 3530 3529 ] final   31.75 input   59.98 | X-H torsion
[ 3992 3987 3986 3983 ] final   75.41 input   60.02 | X-H torsion

> <Gold.Protein.ActiveResidues>
 LEU195  TRP197  ASP227  HIS228  ILE229  ASP230  LEU232  LYS233  LEU236  PRO242 
 ILE250  SER252  SER254  ALA255  ARG256  ASN257  TYR258  ILE259  SER261  LEU262 

> <Gold.Protein.RotatedAtoms>
   -8.1475   11.7075   -2.2620 H   0  0  0  0  0  0  0  0  0  0  0  0  # atno 3541 bound_to 3531
   -8.0670   12.6505   -3.6226 H   0  0  0  0  0  0  0  0  0  0  0  0  # atno 3542 bound_to 3531
   -9.5407   12.1980   -3.0143 H   0  0  0  0  0  0  0  0  0  0  0  0  # atno 3543 bound_to 3531
   -4.7691   -6.3163    5.4573 H   0  0  0  0  0  0  0  0  0  0  0  0  # atno 3850 bound_to 3845
   -5.9628   -4.6446    6.8742 H   0  0  0  0  0  0  0  0  0  0  0  0  # atno 3876 bound_to 3871
   -9.0132    4.8054    2.1738 H   0  0  0  0  0  0  0  0  0  0  0  0  # atno 3945 bound_to 3936
  -14.1688    2.5202    4.6208 H   0  0  0  0  0  0  0  0  0  0  0  0  # atno 3992 bound_to 3987
   -4.8470   -7.3233    6.7336 LP  0  0  0  0  0  0  0  0  0  0  0  0  # atno 5440 bound_to 3845
   -6.2025   -6.9434    5.9060 LP  0  0  0  0  0  0  0  0  0  0  0  0  # atno 5441 bound_to 3845
   -4.8677   -4.6562    8.0782 LP  0  0  0  0  0  0  0  0  0  0  0  0  # atno 5444 bound_to 3871
   -5.4930   -3.2420    7.5532 LP  0  0  0  0  0  0  0  0  0  0  0  0  # atno 5445 bound_to 3871
  -10.5985    4.6730    1.8323 LP  0  0  0  0  0  0  0  0  0  0  0  0  # atno 5452 bound_to 3936
   -9.4879    4.0010    0.8415 LP  0  0  0  0  0  0  0  0  0  0  0  0  # atno 5453 bound_to 3936

> <Gold.Score>
     Fitness  S(hb_ext) S(vdw_ext)  S(hb_int)    S(int)      intcor
     27.13       1.57      19.43       0.00      -1.16      -0.76

> <Gold.Goldscore.Fitness>
27.1283

> <Gold.Goldscore.Internal.Vdw>
-1.4612

> <Gold.Goldscore.Internal.Torsion>
-0.4589

> <Gold.Goldscore.External.Vdw>
19.4347

> <Gold.Goldscore.Internal.HBond>
0.0000

> <Gold.Goldscore.External.HBond>
1.5666

> <Gold.Goldscore.Internal.Correction>
-0.7590

> <Gold.Goldscore.Hbonds>
donor molecule, donor type, donor heavy atom, donor atom, acceptor molecule, acceptor atom, score
      L1  H     8    22       P1  2925  0.78

> <Gold.Goldscore.Internal.Vdw.Weighted>
-1.4612

> <Gold.Goldscore.Internal.Torsion.Weighted>
-0.4589

> <Gold.Goldscore.External.Vdw.Weighted>
26.7228

> <Gold.Goldscore.Internal.HBond.Weighted>
0.0000

> <Gold.Goldscore.External.HBond.Weighted>
1.5666

> <Gold.Goldscore.Internal.Correction.Weighted>
-0.7590

> <Gold.Rescore>
     Score     S(PLP)   S(hbond)     S(cho)   S(metal)  DE(clash)   DE(tors)     intcor
     25.53     -25.17       0.93       0.00       0.00       0.96       0.73       ----

> <Gold.PLP.Fitness>
25.5320

> <Gold.PLP.PLP>
-25.1708

> <Gold.PLP.part.hbond>
-0.8502

> <Gold.PLP.part.metal>
0.0000

> <Gold.PLP.part.buried>
-0.4054

> <Gold.PLP.part.nonpolar>
-24.6269

> <Gold.PLP.part.repulsive>
0.1902

> <Gold.PLP.ligand.clash>
0.9560

> <Gold.PLP.ligand.torsion>
0.7308

> <Gold.PLP.Chemscore.Hbond>
0.9263

> <Gold.PLP.Chemscore.CHOScore>
0.0000

> <Gold.PLP.Chemscore.Metal>
0.0000

> <Gold.Chemscore.Hbonds>
donor molecule, donor type, donor heavy atom, donor atom, acceptor molecule, acceptor atom, score
      L1  H     8    22       P1  2925  0.73

> <Gold.PLP.Chemscore.Internal.Correction>
   9.000000E+99

