#       Name:                CT1002167954
#       Creating user name   hitesit
#       Creation time:       Sun Apr 16 02:22:09 2023


#       File generated by GOLD software.
#

@<TRIPOS>MOLECULE
CT1002167954|ligand_prepared|mol2|1|dock10
    29    30     1
SMALL
NO_CHARGES


@<TRIPOS>ATOM
      1 C1          -8.1116   1.1054  -1.8676 C.3            1 RES1               0.0000
      2 C2          -7.9522   0.2225  -3.1221 C.ar           1 RES1               0.0000
      3 C3          -8.8389   0.2520  -0.8326 C.2            1 RES1               0.0000
      4 C4          -6.7032   1.5182  -1.4546 C.2            1 RES1               0.0000
      5 C5          -8.9349   2.3920  -2.1094 C.3            1 RES1               0.0000
      6 C6          -7.4721   0.7618  -4.3118 C.ar           1 RES1               0.0000
      7 C7          -8.2780  -1.1311  -3.1044 C.ar           1 RES1               0.0000
      8 N8          -8.1099  -0.2286   0.2149 N.am           1 RES1               0.0000
      9 O9         -10.0251  -0.0278  -0.9549 O.2            1 RES1               0.0000
     10 N10         -6.2229   1.0541  -0.2581 N.am           1 RES1               0.0000
     11 O11         -5.9987   2.2275  -2.1624 O.2            1 RES1               0.0000
     12 C12         -8.8526   3.3958  -0.9703 C.3            1 RES1               0.0000
     13 C13         -7.3204  -0.0241  -5.4421 C.ar           1 RES1               0.0000
     14 C14         -8.1257  -1.9152  -4.2360 C.ar           1 RES1               0.0000
     15 C15         -6.8508   0.1745   0.5811 C.2            1 RES1               0.0000
     16 C16         -7.6466  -1.3631  -5.4049 C.ar           1 RES1               0.0000
     17 O17         -6.3315  -0.2394   1.6136 O.2            1 RES1               0.0000
     18 H18         -8.5783   2.8716  -3.0293 H              1 RES1               0.0000
     19 H19         -9.9856   2.1155  -2.2611 H              1 RES1               0.0000
     20 H20         -7.2125   1.8141  -4.3608 H              1 RES1               0.0000
     21 H21         -8.6578  -1.5866  -2.1962 H              1 RES1               0.0000
     22 H22         -8.5407  -0.9549   0.7782 H              1 RES1               0.0000
     23 H23         -5.3130   1.3961   0.0342 H              1 RES1               0.0000
     24 H24         -9.4478   4.2794  -1.1910 H              1 RES1               0.0000
     25 H25         -9.2231   2.9602  -0.0447 H              1 RES1               0.0000
     26 H26         -7.8241   3.7118  -0.8083 H              1 RES1               0.0000
     27 H27         -6.9442   0.4155  -6.3599 H              1 RES1               0.0000
     28 H28         -8.3843  -2.9684  -4.2023 H              1 RES1               0.0000
     29 H29         -7.5273  -1.9787  -6.2903 H              1 RES1               0.0000
@<TRIPOS>BOND
    1    1    2 1     
    2    1    3 1     
    3    1    4 1     
    4    1    5 1     
    5    2    6 ar    
    6    2    7 ar    
    7    3    8 1     
    8    3    9 2     
    9    4   10 1     
   10    4   11 2     
   11    5   12 1     
   12    5   18 1     
   13    5   19 1     
   14    6   13 ar    
   15    6   20 1     
   16    7   14 ar    
   17    7   21 1     
   18    8   15 1     
   19    8   22 1     
   20   10   15 1     
   21   10   23 1     
   22   12   24 1     
   23   12   25 1     
   24   12   26 1     
   25   13   16 ar    
   26   13   27 1     
   27   14   16 ar    
   28   14   28 1     
   29   15   17 2     
   30   16   29 1     
@<TRIPOS>SUBSTRUCTURE
      1 RES1           1
@<TRIPOS>SET
DONOR_HYDROGENS      STATIC     ATOMS    <user>   **** ""
2 22 23
ATOM$RED        STATIC     ATOMS    COLORGROUP SYSTEM
2 22 23
@<TRIPOS>COMMENT
> <Gold.Version>
2022.3.0

> <Gold.Id.Protein>
unknown|3iw5_clean|pdb

> <Gold.Protein.RotatedTorsions>
[ 3850 3845 3844 3841 ] final  168.89 input   60.02 | X-H torsion
[ 3876 3871 3870 3867 ] final  -32.92 input   59.98 | X-H torsion
[ 3945 3936 3935 3933 ] final -102.56 input   60.03 | X-H torsion
[ 3541 3531 3530 3529 ] final   54.31 input   59.98 | X-H torsion
[ 3992 3987 3986 3983 ] final -145.69 input   60.02 | X-H torsion

> <Gold.Protein.ActiveResidues>
 LEU195  TRP197  ASP227  HIS228  ILE229  ASP230  LEU232  LYS233  LEU236  PRO242 
 ILE250  SER252  SER254  ALA255  ARG256  ASN257  TYR258  ILE259  SER261  LEU262 

> <Gold.Protein.RotatedAtoms>
   -7.8545   11.8444   -2.4507 H   0  0  0  0  0  0  0  0  0  0  0  0  # atno 3541 bound_to 3531
   -8.4152   12.7234   -3.7390 H   0  0  0  0  0  0  0  0  0  0  0  0  # atno 3542 bound_to 3531
   -9.4854   11.9882   -2.7092 H   0  0  0  0  0  0  0  0  0  0  0  0  # atno 3543 bound_to 3531
   -4.5409   -6.4186    5.6459 H   0  0  0  0  0  0  0  0  0  0  0  0  # atno 3850 bound_to 3845
   -5.7364   -4.9688    7.0863 H   0  0  0  0  0  0  0  0  0  0  0  0  # atno 3876 bound_to 3871
  -10.5343    4.2999    1.2438 H   0  0  0  0  0  0  0  0  0  0  0  0  # atno 3945 bound_to 3936
  -13.2448    1.3510    5.5456 H   0  0  0  0  0  0  0  0  0  0  0  0  # atno 3992 bound_to 3987
   -5.1441   -7.4178    6.7802 LP  0  0  0  0  0  0  0  0  0  0  0  0  # atno 5440 bound_to 3845
   -6.1350   -6.7459    5.6696 LP  0  0  0  0  0  0  0  0  0  0  0  0  # atno 5441 bound_to 3845
   -4.8070   -4.2244    8.1957 LP  0  0  0  0  0  0  0  0  0  0  0  0  # atno 5444 bound_to 3871
   -5.7816   -3.3476    7.2221 LP  0  0  0  0  0  0  0  0  0  0  0  0  # atno 5445 bound_to 3871
   -8.9115    4.1926    1.1940 LP  0  0  0  0  0  0  0  0  0  0  0  0  # atno 5452 bound_to 3936
   -9.6428    4.9907    2.4166 LP  0  0  0  0  0  0  0  0  0  0  0  0  # atno 5453 bound_to 3936

> <Gold.Score>
     Fitness  S(hb_ext) S(vdw_ext)  S(hb_int)    S(int)      intcor
     20.70       0.00      17.37       0.00      -3.19      -0.76

> <Gold.Goldscore.Fitness>
20.6959

> <Gold.Goldscore.Internal.Vdw>
-3.3642

> <Gold.Goldscore.Internal.Torsion>
-0.5881

> <Gold.Goldscore.External.Vdw>
17.3743

> <Gold.Goldscore.Internal.HBond>
0.0000

> <Gold.Goldscore.External.HBond>
0.0000

> <Gold.Goldscore.Internal.Correction>
-0.7585

> <Gold.Goldscore.Internal.Vdw.Weighted>
-3.3642

> <Gold.Goldscore.Internal.Torsion.Weighted>
-0.5881

> <Gold.Goldscore.External.Vdw.Weighted>
23.8897

> <Gold.Goldscore.Internal.HBond.Weighted>
0.0000

> <Gold.Goldscore.External.HBond.Weighted>
0.0000

> <Gold.Goldscore.Internal.Correction.Weighted>
-0.7585

> <Gold.Rescore>
     Score     S(PLP)   S(hbond)     S(cho)   S(metal)  DE(clash)   DE(tors)     intcor
     30.35     -32.50       0.00       0.00       0.00       1.33       0.41       ----

> <Gold.PLP.Fitness>
30.3484

> <Gold.PLP.PLP>
-32.4966

> <Gold.PLP.part.hbond>
0.0000

> <Gold.PLP.part.metal>
0.0000

> <Gold.PLP.part.buried>
3.4816

> <Gold.PLP.part.nonpolar>
-35.8721

> <Gold.PLP.part.repulsive>
0.0435

> <Gold.PLP.ligand.clash>
1.3323

> <Gold.PLP.ligand.torsion>
0.4079

> <Gold.PLP.Chemscore.Hbond>
0.0000

> <Gold.PLP.Chemscore.CHOScore>
0.0000

> <Gold.PLP.Chemscore.Metal>
0.0000

> <Gold.PLP.Chemscore.Internal.Correction>
   9.000000E+99

