#       Name:                CT1002167954
#       Creating user name   hitesit
#       Creation time:       Sun Apr 16 02:22:04 2023


#       File generated by GOLD software.
#

@<TRIPOS>MOLECULE
CT1002167954|ligand_prepared|mol2|1|dock3
    29    30     1
SMALL
NO_CHARGES


@<TRIPOS>ATOM
      1 C1          -5.5200   1.6531   1.7816 C.3            1 RES1               0.0000
      2 C2          -6.0675   0.2412   1.4888 C.ar           1 RES1               0.0000
      3 C3          -4.7316   1.5454   3.0836 C.2            1 RES1               0.0000
      4 C4          -4.6755   2.0422   0.5733 C.2            1 RES1               0.0000
      5 C5          -6.6201   2.7251   1.9608 C.3            1 RES1               0.0000
      6 C6          -6.9583   0.0299   0.4407 C.ar           1 RES1               0.0000
      7 C7          -5.6896  -0.8582   2.2551 C.ar           1 RES1               0.0000
      8 N8          -3.3707   1.5824   3.0031 N.am           1 RES1               0.0000
      9 O9          -5.2944   1.3906   4.1605 O.2            1 RES1               0.0000
     10 N10         -3.3267   2.1999   0.7567 N.am           1 RES1               0.0000
     11 O11         -5.1635   2.1974  -0.5393 O.2            1 RES1               0.0000
     12 C12         -6.0888   4.0826   2.3932 C.3            1 RES1               0.0000
     13 C13         -7.4512  -1.2351   0.1665 C.ar           1 RES1               0.0000
     14 C14         -6.1839  -2.1223   1.9794 C.ar           1 RES1               0.0000
     15 C15         -2.6316   1.9576   1.9101 C.2            1 RES1               0.0000
     16 C16         -7.0641  -2.3120   0.9353 C.ar           1 RES1               0.0000
     17 O17         -1.4112   2.0695   1.9823 O.2            1 RES1               0.0000
     18 H18         -7.1571   2.8421   1.0114 H              1 RES1               0.0000
     19 H19         -7.3385   2.3719   2.7109 H              1 RES1               0.0000
     20 H20         -7.2761   0.8658  -0.1736 H              1 RES1               0.0000
     21 H21         -4.9992  -0.7324   3.0822 H              1 RES1               0.0000
     22 H22         -2.8549   1.3053   3.8322 H              1 RES1               0.0000
     23 H23         -2.7911   2.5285  -0.0406 H              1 RES1               0.0000
     24 H24         -6.9014   4.7974   2.5042 H              1 RES1               0.0000
     25 H25         -5.5704   4.0081   3.3469 H              1 RES1               0.0000
     26 H26         -5.3900   4.4755   1.6574 H              1 RES1               0.0000
     27 H27         -8.1446  -1.3788  -0.6554 H              1 RES1               0.0000
     28 H28         -5.8771  -2.9669   2.5874 H              1 RES1               0.0000
     29 H29         -7.4500  -3.3029   0.7201 H              1 RES1               0.0000
@<TRIPOS>BOND
    1    1    2 1     
    2    1    3 1     
    3    1    4 1     
    4    1    5 1     
    5    2    6 ar    
    6    2    7 ar    
    7    3    8 1     
    8    3    9 2     
    9    4   10 1     
   10    4   11 2     
   11    5   12 1     
   12    5   18 1     
   13    5   19 1     
   14    6   13 ar    
   15    6   20 1     
   16    7   14 ar    
   17    7   21 1     
   18    8   15 1     
   19    8   22 1     
   20   10   15 1     
   21   10   23 1     
   22   12   24 1     
   23   12   25 1     
   24   12   26 1     
   25   13   16 ar    
   26   13   27 1     
   27   14   16 ar    
   28   14   28 1     
   29   15   17 2     
   30   16   29 1     
@<TRIPOS>SUBSTRUCTURE
      1 RES1           1
@<TRIPOS>SET
DONOR_HYDROGENS      STATIC     ATOMS    <user>   **** ""
2 22 23
ATOM$RED        STATIC     ATOMS    COLORGROUP SYSTEM
2 22 23
@<TRIPOS>COMMENT
> <Gold.Version>
2022.3.0

> <Gold.Id.Protein>
unknown|3iw5_clean|pdb

> <Gold.Protein.RotatedTorsions>
[ 3850 3845 3844 3841 ] final  -32.56 input   60.02 | X-H torsion
[ 3876 3871 3870 3867 ] final  128.32 input   59.98 | X-H torsion
[ 3945 3936 3935 3933 ] final  176.28 input   60.03 | X-H torsion
[ 3541 3531 3530 3529 ] final  167.39 input   59.98 | X-H torsion
[ 3992 3987 3986 3983 ] final  -43.12 input   60.02 | X-H torsion

> <Gold.Protein.ActiveResidues>
 LEU195  TRP197  ASP227  HIS228  ILE229  ASP230  LEU232  LYS233  LEU236  PRO242 
 ILE250  SER252  SER254  ALA255  ARG256  ASN257  TYR258  ILE259  SER261  LEU262 

> <Gold.Protein.RotatedAtoms>
   -8.3028   12.7097   -3.7157 H   0  0  0  0  0  0  0  0  0  0  0  0  # atno 3541 bound_to 3531
   -9.5176   12.0507   -2.8009 H   0  0  0  0  0  0  0  0  0  0  0  0  # atno 3542 bound_to 3531
   -7.9343   11.7959   -2.3828 H   0  0  0  0  0  0  0  0  0  0  0  0  # atno 3543 bound_to 3531
   -6.1593   -7.1323    6.1547 H   0  0  0  0  0  0  0  0  0  0  0  0  # atno 3850 bound_to 3845
   -5.3461   -3.2755    7.7154 H   0  0  0  0  0  0  0  0  0  0  0  0  # atno 3876 bound_to 3871
   -9.4125    4.0109    0.8682 H   0  0  0  0  0  0  0  0  0  0  0  0  # atno 3945 bound_to 3936
  -13.6684    1.0554    4.1785 H   0  0  0  0  0  0  0  0  0  0  0  0  # atno 3992 bound_to 3987
   -5.0534   -6.2690    5.3296 LP  0  0  0  0  0  0  0  0  0  0  0  0  # atno 5440 bound_to 3845
   -4.5968   -7.1765    6.6082 LP  0  0  0  0  0  0  0  0  0  0  0  0  # atno 5441 bound_to 3845
   -6.0342   -4.4436    6.8149 LP  0  0  0  0  0  0  0  0  0  0  0  0  # atno 5444 bound_to 3871
   -4.9472   -4.8328    7.9697 LP  0  0  0  0  0  0  0  0  0  0  0  0  # atno 5445 bound_to 3871
   -9.0653    4.8419    2.2233 LP  0  0  0  0  0  0  0  0  0  0  0  0  # atno 5452 bound_to 3936
  -10.6189    4.6325    1.7657 LP  0  0  0  0  0  0  0  0  0  0  0  0  # atno 5453 bound_to 3936

> <Gold.Score>
     Fitness  S(hb_ext) S(vdw_ext)  S(hb_int)    S(int)      intcor
     26.76       0.00      20.83       0.00      -1.88      -0.77

> <Gold.Goldscore.Fitness>
26.7565

> <Gold.Goldscore.Internal.Vdw>
-2.2161

> <Gold.Goldscore.Internal.Torsion>
-0.4298

> <Gold.Goldscore.External.Vdw>
20.8270

> <Gold.Goldscore.Internal.HBond>
0.0000

> <Gold.Goldscore.External.HBond>
0.0000

> <Gold.Goldscore.Internal.Correction>
-0.7653

> <Gold.Goldscore.Internal.Vdw.Weighted>
-2.2161

> <Gold.Goldscore.Internal.Torsion.Weighted>
-0.4298

> <Gold.Goldscore.External.Vdw.Weighted>
28.6371

> <Gold.Goldscore.Internal.HBond.Weighted>
0.0000

> <Gold.Goldscore.External.HBond.Weighted>
0.0000

> <Gold.Goldscore.Internal.Correction.Weighted>
-0.7653

> <Gold.Rescore>
     Score     S(PLP)   S(hbond)     S(cho)   S(metal)  DE(clash)   DE(tors)     intcor
     29.43     -31.00       0.00       0.00       0.00       1.23       0.17       ----

> <Gold.PLP.Fitness>
29.4309

> <Gold.PLP.PLP>
-30.9955

> <Gold.PLP.part.hbond>
0.0000

> <Gold.PLP.part.metal>
0.0000

> <Gold.PLP.part.buried>
-2.0624

> <Gold.PLP.part.nonpolar>
-29.4404

> <Gold.PLP.part.repulsive>
0.0000

> <Gold.PLP.ligand.clash>
1.2260

> <Gold.PLP.ligand.torsion>
0.1693

> <Gold.PLP.Chemscore.Hbond>
0.0000

> <Gold.PLP.Chemscore.CHOScore>
0.0000

> <Gold.PLP.Chemscore.Metal>
0.0000

> <Gold.PLP.Chemscore.Internal.Correction>
   9.000000E+99

