#       Name:                CT1002167954
#       Creating user name   hitesit
#       Creation time:       Sun Apr 16 02:22:02 2023


#       File generated by GOLD software.
#

@<TRIPOS>MOLECULE
CT1002167954|ligand_prepared|mol2|1|dock1
    29    30     1
SMALL
NO_CHARGES


@<TRIPOS>ATOM
      1 C1          -5.5017  -0.5837   2.9191 C.3            1 RES1               0.0000
      2 C2          -6.2032  -0.4277   1.5544 C.ar           1 RES1               0.0000
      3 C3          -4.4991   0.5622   3.0189 C.2            1 RES1               0.0000
      4 C4          -6.6032  -0.5402   3.9724 C.2            1 RES1               0.0000
      5 C5          -4.7388  -1.9192   3.0805 C.3            1 RES1               0.0000
      6 C6          -6.6918  -1.5412   0.8775 C.ar           1 RES1               0.0000
      7 C7          -6.3711   0.8211   0.9621 C.ar           1 RES1               0.0000
      8 N8          -4.8003   1.5938   3.8586 N.am           1 RES1               0.0000
      9 O9          -3.4788   0.5795   2.3415 O.2            1 RES1               0.0000
     10 N10         -6.6168   0.5172   4.8439 N.am           1 RES1               0.0000
     11 O11         -7.4692  -1.4034   4.0449 O.2            1 RES1               0.0000
     12 C12         -3.8683  -1.9814   4.3256 C.3            1 RES1               0.0000
     13 C13         -7.3280  -1.4107  -0.3459 C.ar           1 RES1               0.0000
     14 C14         -7.0075   0.9493  -0.2615 C.ar           1 RES1               0.0000
     15 C15         -5.7834   1.6020   4.8151 C.2            1 RES1               0.0000
     16 C16         -7.4867  -0.1655  -0.9159 C.ar           1 RES1               0.0000
     17 O17         -5.8926   2.5403   5.5993 O.2            1 RES1               0.0000
     18 H18         -5.4665  -2.7393   3.1170 H              1 RES1               0.0000
     19 H19         -4.1048  -2.0725   2.1984 H              1 RES1               0.0000
     20 H20         -6.5740  -2.5294   1.3094 H              1 RES1               0.0000
     21 H21         -6.0012   1.7119   1.4582 H              1 RES1               0.0000
     22 H22         -4.2430   2.4372   3.7667 H              1 RES1               0.0000
     23 H23         -7.3126   0.4933   5.5825 H              1 RES1               0.0000
     24 H24         -3.3557  -2.9389   4.3904 H              1 RES1               0.0000
     25 H25         -3.1166  -1.1950   4.3105 H              1 RES1               0.0000
     26 H26         -4.4701  -1.8578   5.2236 H              1 RES1               0.0000
     27 H27         -7.7021  -2.2913  -0.8575 H              1 RES1               0.0000
     28 H28         -7.1295   1.9312  -0.7068 H              1 RES1               0.0000
     29 H29         -7.9854  -0.0636  -1.8741 H              1 RES1               0.0000
@<TRIPOS>BOND
    1    1    2 1     
    2    1    3 1     
    3    1    4 1     
    4    1    5 1     
    5    2    6 ar    
    6    2    7 ar    
    7    3    8 1     
    8    3    9 2     
    9    4   10 1     
   10    4   11 2     
   11    5   12 1     
   12    5   18 1     
   13    5   19 1     
   14    6   13 ar    
   15    6   20 1     
   16    7   14 ar    
   17    7   21 1     
   18    8   15 1     
   19    8   22 1     
   20   10   15 1     
   21   10   23 1     
   22   12   24 1     
   23   12   25 1     
   24   12   26 1     
   25   13   16 ar    
   26   13   27 1     
   27   14   16 ar    
   28   14   28 1     
   29   15   17 2     
   30   16   29 1     
@<TRIPOS>SUBSTRUCTURE
      1 RES1           1
@<TRIPOS>SET
DONOR_HYDROGENS      STATIC     ATOMS    <user>   **** ""
2 22 23
ATOM$RED        STATIC     ATOMS    COLORGROUP SYSTEM
2 22 23
@<TRIPOS>COMMENT
> <Gold.Version>
2022.3.0

> <Gold.Id.Protein>
unknown|3iw5_clean|pdb

> <Gold.Protein.RotatedTorsions>
[ 3850 3845 3844 3841 ] final -144.02 input   60.02 | X-H torsion
[ 3876 3871 3870 3867 ] final   12.04 input   59.98 | X-H torsion
[ 3945 3936 3935 3933 ] final  108.44 input   60.03 | X-H torsion
[ 3541 3531 3530 3529 ] final   81.03 input   59.98 | X-H torsion
[ 3992 3987 3986 3983 ] final -112.40 input   60.02 | X-H torsion

> <Gold.Protein.ActiveResidues>
 LEU195  TRP197  ASP227  HIS228  ILE229  ASP230  LEU232  LYS233  LEU236  PRO242 
 ILE250  SER252  SER254  ALA255  ARG256  ASN257  TYR258  ILE259  SER261  LEU262 

> <Gold.Protein.RotatedAtoms>
   -7.6546   12.0717   -2.7731 H   0  0  0  0  0  0  0  0  0  0  0  0  # atno 3541 bound_to 3531
   -8.8565   12.7033   -3.7237 H   0  0  0  0  0  0  0  0  0  0  0  0  # atno 3542 bound_to 3531
   -9.2438   11.7811   -2.4023 H   0  0  0  0  0  0  0  0  0  0  0  0  # atno 3543 bound_to 3531
   -5.1903   -6.2776    5.3019 H   0  0  0  0  0  0  0  0  0  0  0  0  # atno 3850 bound_to 3845
   -6.0458   -4.3833    6.8131 H   0  0  0  0  0  0  0  0  0  0  0  0  # atno 3876 bound_to 3871
   -8.7658    4.4219    1.5781 H   0  0  0  0  0  0  0  0  0  0  0  0  # atno 3945 bound_to 3936
  -13.2384    0.9885    5.1501 H   0  0  0  0  0  0  0  0  0  0  0  0  # atno 3992 bound_to 3987
   -4.5089   -7.0989    6.5308 LP  0  0  0  0  0  0  0  0  0  0  0  0  # atno 5440 bound_to 3845
   -6.1165   -7.2067    6.2652 LP  0  0  0  0  0  0  0  0  0  0  0  0  # atno 5441 bound_to 3845
   -4.9741   -4.8755    7.9349 LP  0  0  0  0  0  0  0  0  0  0  0  0  # atno 5444 bound_to 3871
   -5.3030   -3.2858    7.7579 LP  0  0  0  0  0  0  0  0  0  0  0  0  # atno 5445 bound_to 3871
  -10.1056    4.9587    2.3292 LP  0  0  0  0  0  0  0  0  0  0  0  0  # atno 5452 bound_to 3936
  -10.2300    4.1016    0.9448 LP  0  0  0  0  0  0  0  0  0  0  0  0  # atno 5453 bound_to 3936

> <Gold.Score>
     Fitness  S(hb_ext) S(vdw_ext)  S(hb_int)    S(int)      intcor
     24.52       0.00      18.45       0.00      -0.85      -0.81

> <Gold.Goldscore.Fitness>
24.5189

> <Gold.Goldscore.Internal.Vdw>
-1.1510

> <Gold.Goldscore.Internal.Torsion>
-0.5082

> <Gold.Goldscore.External.Vdw>
18.4510

> <Gold.Goldscore.Internal.HBond>
0.0000

> <Gold.Goldscore.External.HBond>
0.0000

> <Gold.Goldscore.Internal.Correction>
-0.8080

> <Gold.Goldscore.Internal.Vdw.Weighted>
-1.1510

> <Gold.Goldscore.Internal.Torsion.Weighted>
-0.5082

> <Gold.Goldscore.External.Vdw.Weighted>
25.3701

> <Gold.Goldscore.Internal.HBond.Weighted>
0.0000

> <Gold.Goldscore.External.HBond.Weighted>
0.0000

> <Gold.Goldscore.Internal.Correction.Weighted>
-0.8080

> <Gold.Rescore>
     Score     S(PLP)   S(hbond)     S(cho)   S(metal)  DE(clash)   DE(tors)     intcor
     31.83     -33.29       0.00       0.00       0.00       1.27       0.10       ----

> <Gold.PLP.Fitness>
31.8274

> <Gold.PLP.PLP>
-33.2878

> <Gold.PLP.part.hbond>
0.0000

> <Gold.PLP.part.metal>
0.0000

> <Gold.PLP.part.buried>
-2.7996

> <Gold.PLP.part.nonpolar>
-31.0995

> <Gold.PLP.part.repulsive>
0.1201

> <Gold.PLP.ligand.clash>
1.2654

> <Gold.PLP.ligand.torsion>
0.0975

> <Gold.PLP.Chemscore.Hbond>
0.0000

> <Gold.PLP.Chemscore.CHOScore>
0.0000

> <Gold.PLP.Chemscore.Metal>
0.0000

> <Gold.PLP.Chemscore.Internal.Correction>
   9.000000E+99

