@<TRIPOS>MOLECULE
B:THR5
   297   299    20     0     1
SMALL
NO_CHARGES
****
Generated from the CSD

@<TRIPOS>ATOM
     1 N      -10.3960 -13.5040  18.7270   N.3       1 THR5   0.0000
     2 CA     -11.5370 -13.6750  17.8390   C.3       1 THR5   0.0000
     3 C      -11.4730 -12.6970  16.6720   C.2       1 THR5   0.0000
     4 O      -10.8490 -11.6260  16.7770   O.2       1 THR5   0.0000
     5 CB     -12.8550 -13.4870  18.6020   C.3       1 THR5   0.0000
     6 CG2    -12.7830 -14.2050  19.9650   C.3       1 THR5   0.0000
     7 OG1    -13.0780 -12.0910  18.8240   O.3       1 THR5   0.0000
     8 N      -12.0980 -13.0910  15.5600   N.am      2 THR6   0.0000
     9 CA     -12.1710 -12.2280  14.3850   C.3       2 THR6   0.0000
    10 C      -12.9590 -10.9630  14.6880   C.2       2 THR6   0.0000
    11 O      -12.5980  -9.8750  14.2310   O.2       2 THR6   0.0000
    12 CB     -12.8150 -12.9760  13.2120   C.3       2 THR6   0.0000
    13 CG2    -12.6970 -12.1560  11.8990   C.3       2 THR6   0.0000
    14 OG1    -12.1680 -14.2400  13.0500   O.3       2 THR6   0.0000
    15 N      -14.0470 -11.0880  15.4510   N.am      3 TYR7   0.0000
    16 CA     -14.7980  -9.9100  15.8610   C.3       3 TYR7   0.0000
    17 C      -13.9050  -8.9360  16.6300   C.2       3 TYR7   0.0000
    18 O      -13.8840  -7.7340  16.3460   O.2       3 TYR7   0.0000
    19 CB     -16.0130 -10.3350  16.6970   C.3       3 TYR7   0.0000
    20 CG     -16.6420  -9.1930  17.4520   C.ar      3 TYR7   0.0000
    21 CD1    -17.4870  -8.2890  16.8190   C.ar      3 TYR7   0.0000
    22 CD2    -16.3700  -9.0090  18.8010   C.ar      3 TYR7   0.0000
    23 CE1    -18.0530  -7.2370  17.5210   C.ar      3 TYR7   0.0000
    24 CE2    -16.9250  -7.9620  19.5070   C.ar      3 TYR7   0.0000
    25 CZ     -17.7660  -7.0780  18.8650   C.ar      3 TYR7   0.0000
    26 OH     -18.3070  -6.0300  19.5980   O.3       3 TYR7   0.0000
    27 N      -13.1370  -9.4480  17.5960   N.am      4 ALA8   0.0000
    28 CA     -12.2230  -8.5910  18.3450   C.3       4 ALA8   0.0000
    29 C      -11.1930  -7.9320  17.4270   C.2       4 ALA8   0.0000
    30 O      -10.8420  -6.7590  17.6230   O.2       4 ALA8   0.0000
    31 CB     -11.5300  -9.3980  19.4490   C.3       4 ALA8   0.0000
    32 N      -10.6800  -8.6720  16.4320   N.am      5 ASP9   0.0000
    33 CA      -9.7460  -8.0740  15.4710   C.3       5 ASP9   0.0000
    34 C      -10.4210  -6.9740  14.6620   C.2       5 ASP9   0.0000
    35 O       -9.8250  -5.9170  14.4080   O.2       5 ASP9   0.0000
    36 CB      -9.1700  -9.1360  14.5310   C.3       5 ASP9   0.0000
    37 CG      -8.2120 -10.0970  15.2340   C.ar      5 ASP9   0.0000
    38 OD1     -7.6830  -9.7470  16.3100   O.co2     5 ASP9   0.0000
    39 OD2     -7.9930 -11.2170  14.7170   O.co2     5 ASP9   0.0000
    40 N      -11.6710  -7.1950  14.2550   N.am      6 PHE10   0.0000
    41 CA     -12.3850  -6.1510  13.5310   C.3       6 PHE10   0.0000
    42 C      -12.5620  -4.9000  14.3890   C.2       6 PHE10   0.0000
    43 O      -12.1790  -3.7970  13.9830   O.2       6 PHE10   0.0000
    44 CB     -13.7340  -6.6670  13.0510   C.3       6 PHE10   0.0000
    45 CG     -14.5250  -5.6370  12.3140   C.ar      6 PHE10   0.0000
    46 CD1    -14.0680  -5.1370  11.1030   C.ar      6 PHE10   0.0000
    47 CD2    -15.7080  -5.1440  12.8400   C.ar      6 PHE10   0.0000
    48 CE1    -14.7910  -4.1670  10.4170   C.ar      6 PHE10   0.0000
    49 CE2    -16.4340  -4.1850  12.1650   C.ar      6 PHE10   0.0000
    50 CZ     -15.9770  -3.6930  10.9420   C.ar      6 PHE10   0.0000
    51 N      -13.1100  -5.0600  15.5960   N.am      7 ILE11   0.0000
    52 CA     -13.4180  -3.9210  16.4650   C.3       7 ILE11   0.0000
    53 C      -12.1680  -3.1210  16.8020   C.2       7 ILE11   0.0000
    54 O      -12.2280  -1.8950  16.9800   O.2       7 ILE11   0.0000
    55 CB     -14.1360  -4.4360  17.7310   C.3       7 ILE11   0.0000
    56 CG1    -15.5010  -4.9700  17.3310   C.3       7 ILE11   0.0000
    57 CG2    -14.3020  -3.3340  18.7620   C.3       7 ILE11   0.0000
    58 CD1    -16.2710  -3.9760  16.5010   C.3       7 ILE11   0.0000
    59 N      -11.0220  -3.7880  16.8950   N.am      8 ALA12   0.0000
    60 CA      -9.7750  -3.0900  17.1600   C.3       8 ALA12   0.0000
    61 C       -9.1590  -2.4730  15.9040   C.2       8 ALA12   0.0000
    62 O       -8.1500  -1.7700  16.0180   O.2       8 ALA12   0.0000
    63 CB      -8.7740  -4.0450  17.8170   C.3       8 ALA12   0.0000
    64 N       -9.7350  -2.7160  14.7240   N.am      9 SER13   0.0000
    65 CA      -9.1740  -2.2230  13.4730   C.3       9 SER13   0.0000
    66 C       -9.5830  -0.7700  13.2200   C.2       9 SER13   0.0000
    67 O      -10.4670  -0.2160  13.8780   O.2       9 SER13   0.0000
    68 CB      -9.6300  -3.0980  12.3060   C.3       9 SER13   0.0000
    69 OG     -10.9260  -2.7120  11.8690   O.3       9 SER13   0.0000
    70 N       -8.9350  -0.1530  12.2330   N.am     10 GLY14   0.0000
    71 CA      -9.2420   1.2040  11.8360   C.3      10 GLY14   0.0000
    72 C      -10.4030   1.3600  10.8760   C.2      10 GLY14   0.0000
    73 O      -10.6840   2.4820  10.4330   O.2      10 GLY14   0.0000
    74 N      -11.1050   0.2820  10.5430   N.am     11 ARG15   0.0000
    75 CA     -12.1240   0.3470   9.4990   C.3      11 ARG15   0.0000
    76 C      -13.4920  -0.0930  10.0080   C.2      11 ARG15   0.0000
    77 O      -14.2530  -0.7850   9.3130   O.2      11 ARG15   0.0000
    78 CB     -11.6780  -0.4480   8.2720   C.3      11 ARG15   0.0000
    79 CG     -10.4260   0.1840   7.6310   C.3      11 ARG15   0.0000
    80 CD     -10.1080  -0.3470   6.2530   C.3      11 ARG15   0.0000
    81 NE     -11.1570  -0.0870   5.2690   N.2      11 ARG15   0.0000
    82 CZ     -11.2350   1.0170   4.5210   C.ar     11 ARG15   0.0000
    83 NH1    -10.3380   1.9890   4.6580   N.2      11 ARG15   0.0000
    84 NH2    -12.2190   1.1510   3.6350   N.2      11 ARG15   0.0000
    85 N      -13.8480   0.3640  11.2140   N.am     12 THR16   0.0000
    86 CA     -15.1570   0.0920  11.7850   C.3      12 THR16   0.0000
    87 C      -16.1210   1.2570  11.6400   C.2      12 THR16   0.0000
    88 O      -17.3220   1.0730  11.8610   O.2      12 THR16   0.0000
    89 CB     -15.0260  -0.2760  13.2740   C.3      12 THR16   0.0000
    90 CG2    -13.8750  -1.2520  13.4630   C.3      12 THR16   0.0000
    91 OG1    -14.7450   0.8990  14.0470   O.3      12 THR16   0.0000
    92 N      -15.6290   2.4460  11.2910   N.am     13 GLY17   0.0000
    93 CA     -16.4890   3.5670  10.9700   C.3      13 GLY17   0.0000
    94 C      -16.9600   3.5180   9.5310   C.2      13 GLY17   0.0000
    95 O      -16.6860   2.5790   8.7830   O.2      13 GLY17   0.0000
    96 N      -17.7260   4.5420   9.1620   N.am     14 ARG18   0.0000
    97 CA     -18.2050   4.6970   7.7920   C.3      14 ARG18   0.0000
    98 C      -17.0350   4.7020   6.8120   C.2      14 ARG18   0.0000
    99 O      -16.0310   5.3900   7.0250   O.2      14 ARG18   0.0000
   100 CB     -19.0140   5.9970   7.6810   C.3      14 ARG18   0.0000
   101 CG     -20.2250   6.0560   8.5880   C.3      14 ARG18   0.0000
   102 CD     -21.1790   7.2120   8.2440   C.3      14 ARG18   0.0000
   103 NE     -22.5420   6.9200   8.6780   N.2      14 ARG18   0.0000
   104 CZ     -22.9270   6.8580   9.9630   C.ar     14 ARG18   0.0000
   105 NH1    -22.0550   7.0850  10.9590   N.2      14 ARG18   0.0000
   106 NH2    -24.1960   6.5550  10.2860   N.2      14 ARG18   0.0000
   107 N      -17.1380   3.8940   5.7610   N.am     15 ARG19   0.0000
   108 CA     -16.0420   3.7160   4.8160   C.3      15 ARG19   0.0000
   109 C      -16.2840   4.5770   3.5850   C.2      15 ARG19   0.0000
   110 O      -17.3610   4.5190   2.9760   O.2      15 ARG19   0.0000
   111 CB     -15.8790   2.2420   4.4320   C.3      15 ARG19   0.0000
   112 CG     -15.5120   1.3570   5.6600   C.3      15 ARG19   0.0000
   113 CD     -15.9990  -0.0910   5.5320   C.3      15 ARG19   0.0000
   114 NE     -17.4570  -0.2250   5.5790   N.2      15 ARG19   0.0000
   115 CZ     -18.1100  -1.3720   5.8060   C.ar     15 ARG19   0.0000
   116 NH1    -17.4350  -2.4870   6.0420   N.2      15 ARG19   0.0000
   117 NH2    -19.4390  -1.4080   5.7930   N.2      15 ARG19   0.0000
   118 N      -15.2830   5.3830   3.2430   N.am     16 ASN20   0.0000
   119 CA     -15.2980   6.1770   2.0220   C.3      16 ASN20   0.0000
   120 C      -15.1530   5.2870   0.8020   C.2      16 ASN20   0.0000
   121 O      -14.4380   4.2780   0.8280   O.2      16 ASN20   0.0000
   122 CB     -14.1530   7.1850   2.0390   C.3      16 ASN20   0.0000
   123 CG     -14.2470   8.1460   3.2040   C.2      16 ASN20   0.0000
   124 ND2    -13.1020   8.5110   3.7670   N.am     16 ASN20   0.0000
   125 OD1    -15.3410   8.5590   3.5930   O.2      16 ASN20   0.0000
   126 N      -15.8350   5.6730  -0.2700   N.am     17 ALA21   0.0000
   127 CA     -15.5790   5.0950  -1.5770   C.3      17 ALA21   0.0000
   128 C      -14.1990   5.5110  -2.0760   C.2      17 ALA21   0.0000
   129 O      -13.6270   6.5120  -1.6450   O.2      17 ALA21   0.0000
   130 CB     -16.6460   5.5330  -2.5820   C.3      17 ALA21   0.0000
   131 N      -13.6630   4.7300  -2.9760   N.am     18 ILE22   0.0000
   132 CA     -12.4650   5.1460  -3.6910   C.3      18 ILE22   0.0000
   133 C      -12.9160   5.8100  -4.9800   C.2      18 ILE22   0.0000
   134 O      -13.9460   5.4440  -5.5640   O.2      18 ILE22   0.0000
   135 CB     -11.5220   3.9610  -3.9720   C.3      18 ILE22   0.0000
   136 CG1    -12.0880   3.1130  -5.1140   C.3      18 ILE22   0.0000
   137 CG2    -11.3120   3.1540  -2.7240   C.3      18 ILE22   0.0000
   138 CD1    -11.5100   1.7490  -5.2180   C.3      18 ILE22   0.0000
   139 N      -12.1600   6.8210  -5.4110   N.am     19 HIS23   0.0000
   140 CA     -12.4230   7.5220  -6.6660   C.3      19 HIS23   0.0000
   141 C      -11.2940   7.3240  -7.6670   C.2      19 HIS23   0.0000
   142 O      -11.2650   8.0200  -8.6910   O.2      19 HIS23   0.0000
   143 CB     -12.6260   9.0290  -6.4350   C.3      19 HIS23   0.0000
   144 CG     -13.5020   9.3640  -5.2660   C.2      19 HIS23   0.0000
   145 CD2    -13.2160   9.4960  -3.9470   C.2      19 HIS23   0.0000
   146 ND1    -14.8500   9.6270  -5.3930   N.pl3    19 HIS23   0.0000
   147 CE1    -15.3590   9.8990  -4.2040   C.2      19 HIS23   0.0000
   148 NE2    -14.3890   9.8240  -3.3090   N.2      19 HIS23   0.0000
   149 N      -10.3630   6.4110  -7.3900   N.am     20 ASP24   0.0000
   150 CA      -9.1160   6.2920  -8.1440   C.3      20 ASP24   0.0000
   151 C       -8.3230   7.6000  -8.0180   C.2      20 ASP24   0.0000
   152 O       -7.8910   7.9650  -6.9140   O.2      20 ASP24   0.0000
   153 CB      -9.3870   5.9460  -9.6170   C.3      20 ASP24   0.0000
   154 CG      -8.1740   5.3500 -10.3190   C.ar     20 ASP24   0.0000
   155 OD1     -7.2120   4.9410  -9.6310   O.co2    20 ASP24   0.0000
   156 OD2     -8.1880   5.2860 -11.5660   O.co2    20 ASP24   0.0000
   157 OXT     -8.1070   8.3240  -9.0000   O.3      20 ASP24   0.0000
   158 H1     -13.6762 -13.8983  18.0169   H         1 THR5   0.0000
   159 H2     -11.9665 -13.7877  20.5524   H         1 THR5   0.0000
   160 H3     -13.7221 -14.0660  20.4986   H         1 THR5   0.0000
   161 H4     -12.6096 -15.2683  19.8064   H         1 THR5   0.0000
   162 H5     -13.1295 -11.6211  17.9508   H         1 THR5   0.0000
   163 H6     -12.5309 -14.0086  15.5311   H         2 THR6   0.0000
   164 H7     -11.1587 -11.9449  14.1005   H         2 THR6   0.0000
   165 H8     -10.3926 -12.5581  19.0952   H         1 THR5   0.0000
   166 H9     -10.4622 -14.1654  19.4941   H         1 THR5   0.0000
   167 H10    -11.5127 -14.6879  17.4399   H         1 THR5   0.0000
   168 H11    -19.2980  -6.0916  19.5817   H         3 TYR7   0.0000
   169 H12    -13.1894 -10.4387  17.8103   H         4 ALA8   0.0000
   170 H13    -12.8081  -7.8035  18.8178   H         4 ALA8   0.0000
   171 H14    -10.9673 -10.2161  19.0018   H         4 ALA8   0.0000
   172 H15    -10.8511  -8.7496  20.0009   H         4 ALA8   0.0000
   173 H16    -12.2793  -9.8015  20.1285   H         4 ALA8   0.0000
   174 H17    -10.9391  -9.6494  16.3437   H         5 ASP9   0.0000
   175 H18     -8.9224  -7.6300  16.0282   H         5 ASP9   0.0000
   176 H19     -9.6555  -4.1383  12.6271   H         9 SER13   0.0000
   177 H20     -8.9271  -2.9898  11.4813   H         9 SER13   0.0000
   178 H21     -8.6317  -8.6342  13.7283   H         5 ASP9   0.0000
   179 H22     -9.9935  -9.7117  14.1112   H         5 ASP9   0.0000
   180 H23    -12.1220  -8.0836  14.4479   H         6 PHE10   0.0000
   181 H24    -11.7949  -5.8812  12.6564   H         6 PHE10   0.0000
   182 H25    -14.3091  -6.9920  13.9168   H         6 PHE10   0.0000
   183 H26    -13.5653  -7.5145  12.3883   H         6 PHE10   0.0000
   184 H27    -13.1333  -5.5081  10.6853   H         6 PHE10   0.0000
   185 H28    -16.0687  -5.5178  13.7971   H         6 PHE10   0.0000
   186 H29    -14.4224  -3.7819   9.4674   H         6 PHE10   0.0000
   187 H30    -17.3655  -3.8112  12.5874   H         6 PHE10   0.0000
   188 H31    -16.5519  -2.9400  10.4049   H         6 PHE10   0.0000
   189 H32    -13.3195  -5.9984  15.9213   H         7 ILE11   0.0000
   190 H33    -14.1043  -3.2654  15.9311   H         7 ILE11   0.0000
   191 H34    -13.5516  -5.2451  18.1666   H         7 ILE11   0.0000
   192 H35    -16.0703  -5.1922  18.2324   H         7 ILE11   0.0000
   193 H36    -15.3664  -5.8827  16.7524   H         7 ILE11   0.0000
   194 H37    -14.8923  -2.5241  18.3358   H         7 ILE11   0.0000
   195 H38    -14.8106  -3.7312  19.6392   H         7 ILE11   0.0000
   196 H39    -13.3222  -2.9562  19.0505   H         7 ILE11   0.0000
   197 H40    -15.7129  -3.7515  15.5932   H         7 ILE11   0.0000
   198 H41    -17.2399  -4.3971  16.2367   H         7 ILE11   0.0000
   199 H42    -16.4168  -3.0610  17.0732   H         7 ILE11   0.0000
   200 H43    -11.0177  -4.7964  16.7796   H         8 ALA12   0.0000
   201 H44     -9.9830  -2.2848  17.8631   H         8 ALA12   0.0000
   202 H45    -13.8683 -13.1424  13.4328   H         2 THR6   0.0000
   203 H46    -11.6459 -11.9859  11.6705   H         2 THR6   0.0000
   204 H47    -13.1611 -12.7082  11.0832   H         2 THR6   0.0000
   205 H48    -13.2012 -11.1987  12.0223   H         2 THR6   0.0000
   206 H49    -12.2697 -14.7729  13.8817   H         2 THR6   0.0000
   207 H50    -14.3525 -12.0095  15.7471   H         3 TYR7   0.0000
   208 H51    -15.1593  -9.4070  14.9653   H         3 TYR7   0.0000
   209 H52    -15.6930 -11.0896  17.4141   H         3 TYR7   0.0000
   210 H53    -16.7601 -10.7621  16.0297   H         3 TYR7   0.0000
   211 H54    -17.7067  -8.4089  15.7592   H         3 TYR7   0.0000
   212 H55    -15.7057  -9.7047  19.3116   H         3 TYR7   0.0000
   213 H56    -18.7202  -6.5390  17.0175   H         3 TYR7   0.0000
   214 H57    -16.7003  -7.8344  20.5649   H         3 TYR7   0.0000
   215 H58    -19.9247  -2.2822   5.9662   H        15 ARG19   0.0000
   216 H59    -14.4772   5.4474   3.8568   H        16 ASN20   0.0000
   217 H60    -16.2432   6.7142   1.9593   H        16 ASN20   0.0000
   218 H61    -14.1761   7.7560   1.1120   H        16 ASN20   0.0000
   219 H62    -13.2110   6.6430   2.1080   H        16 ASN20   0.0000
   220 H63    -13.1049   9.1539   4.5525   H        16 ASN20   0.0000
   221 H64    -12.2234   8.1473   3.4121   H        16 ASN20   0.0000
   222 H65    -16.5501   6.3869  -0.1737   H        17 ALA21   0.0000
   223 H66    -15.6061   4.0098  -1.4900   H        17 ALA21   0.0000
   224 H67    -10.5586   4.3588  -4.2874   H        18 ILE22   0.0000
   225 H68    -11.8976   3.6347  -6.0508   H        18 ILE22   0.0000
   226 H69    -13.1623   3.0159  -4.9645   H        18 ILE22   0.0000
   227 H70    -12.2694   2.7708  -2.3741   H        18 ILE22   0.0000
   228 H71    -10.6441   2.3210  -2.9384   H        18 ILE22   0.0000
   229 H72    -10.8701   3.7847  -1.9540   H        18 ILE22   0.0000
   230 H73    -11.7006   1.2027  -4.2954   H        18 ILE22   0.0000
   231 H74    -11.9698   1.2226  -6.0531   H        18 ILE22   0.0000
   232 H75    -10.4358   1.8215  -5.3817   H        18 ILE22   0.0000
   233 H76    -11.3707   7.1151  -4.8447   H        19 HIS23   0.0000
   234 H77    -13.3369   7.1169  -7.0980   H        19 HIS23   0.0000
   235 H78    -13.0768   9.4532  -7.3310   H        19 HIS23   0.0000
   236 H79    -11.6499   9.4828  -6.2701   H        19 HIS23   0.0000
   237 H80    -12.2405   9.3665  -3.4807   H        19 HIS23   0.0000
   238 H81    -15.3703   9.6137  -6.2644   H        19 HIS23   0.0000
   239 H82    -16.3999  10.1432  -3.9969   H        19 HIS23   0.0000
   240 H83    -10.5273   5.7694  -6.6208   H        20 ASP24   0.0000
   241 H84     -8.5253   5.4889  -7.7058   H        20 ASP24   0.0000
   242 H85     -9.6786   6.8558 -10.1396   H        20 ASP24   0.0000
   243 H86    -10.2023   5.2254  -9.6603   H        20 ASP24   0.0000
   244 H87     -8.9711   8.6204  -9.3892   H        20 ASP24   0.0000
   245 H88     -8.5817  -4.8843  17.1502   H         8 ALA12   0.0000
   246 H89     -7.8424  -3.5160  18.0128   H         8 ALA12   0.0000
   247 H90     -9.1861  -4.4137  18.7551   H         8 ALA12   0.0000
   248 H91    -10.5906  -3.2614  14.6978   H         9 SER13   0.0000
   249 H92     -8.0880  -2.2708  13.5379   H         9 SER13   0.0000
   250 H93    -16.6379   6.6184  -2.6701   H        17 ALA21   0.0000
   251 H94    -16.4341   5.0884  -3.5533   H        17 ALA21   0.0000
   252 H95    -17.6255   5.2040  -2.2380   H        17 ALA21   0.0000
   253 H96    -14.0840   3.8287  -3.1777   H        18 ILE22   0.0000
   254 H97    -11.9340   5.8799  -3.0866   H        18 ILE22   0.0000
   255 H98    -10.9068  -1.7645  11.5726   H         9 SER13   0.0000
   256 H99     -8.2001  -0.6524  11.7423   H        10 GLY14   0.0000
   257 H100    -8.3560   1.6222  11.3605   H        10 GLY14   0.0000
   258 H101    -9.4732   1.7719  12.7360   H        10 GLY14   0.0000
   259 H102   -10.9309  -0.5969  11.0199   H        11 ARG15   0.0000
   260 H103   -12.2110   1.3893   9.1957   H        11 ARG15   0.0000
   261 H104   -12.4855  -0.4587   7.5415   H        11 ARG15   0.0000
   262 H105   -11.4474  -1.4688   8.5732   H        11 ARG15   0.0000
   263 H106    -9.5731  -0.0123   8.2791   H        11 ARG15   0.0000
   264 H107   -10.5850   1.2587   7.5558   H        11 ARG15   0.0000
   265 H108    -9.9621  -1.4238   6.3243   H        11 ARG15   0.0000
   266 H109    -9.1879   0.1219   5.9073   H        11 ARG15   0.0000
   267 H110   -10.4040   2.8248   4.0859   H        11 ARG15   0.0000
   268 H111   -12.2791   1.9895   3.0662   H        11 ARG15   0.0000
   269 H112   -13.1841   0.9173  11.7463   H        12 THR16   0.0000
   270 H113   -15.5815  -0.7639  11.2623   H        12 THR16   0.0000
   271 H114   -15.9525  -0.7304  13.6219   H        12 THR16   0.0000
   272 H115   -12.9488  -0.7913  13.1227   H        12 THR16   0.0000
   273 H116   -13.7865  -1.5091  14.5175   H        12 THR16   0.0000
   274 H117   -14.0655  -2.1545  12.8841   H        12 THR16   0.0000
   275 H118   -15.4841   1.5528  13.9360   H        12 THR16   0.0000
   276 H119   -14.6224   2.5695  11.2489   H        13 GLY17   0.0000
   277 H120   -15.9371   4.4922  11.1293   H        13 GLY17   0.0000
   278 H121   -17.3575   3.5448  11.6265   H        13 GLY17   0.0000
   279 H122   -17.9852   5.2369   9.8550   H        14 ARG18   0.0000
   280 H123   -18.8572   3.8583   7.5530   H        14 ARG18   0.0000
   281 H124   -19.3535   6.1007   6.6515   H        14 ARG18   0.0000
   282 H125   -18.3584   6.8293   7.9327   H        14 ARG18   0.0000
   283 H126   -19.8837   6.1817   9.6145   H        14 ARG18   0.0000
   284 H127   -20.7708   5.1178   8.4993   H        14 ARG18   0.0000
   285 H128   -21.1751   7.3667   7.1661   H        14 ARG18   0.0000
   286 H129   -20.8341   8.1170   8.7419   H        14 ARG18   0.0000
   287 H130   -22.3631   7.0340  11.9248   H        14 ARG18   0.0000
   288 H131   -24.4749   6.5112  11.2609   H        14 ARG18   0.0000
   289 H132   -18.0044   3.3866   5.6123   H        15 ARG19   0.0000
   290 H133   -15.1213   4.0499   5.2922   H        15 ARG19   0.0000
   291 H134   -15.0877   2.1576   3.6886   H        15 ARG19   0.0000
   292 H135   -16.8156   1.8835   4.0075   H        15 ARG19   0.0000
   293 H136   -15.9625   1.7957   6.5491   H        15 ARG19   0.0000
   294 H137   -14.4284   1.3488   5.7685   H        15 ARG19   0.0000
   295 H138   -15.5733  -0.6711   6.3495   H        15 ARG19   0.0000
   296 H139   -15.6469  -0.4901   4.5819   H        15 ARG19   0.0000
   297 H140   -17.9326  -3.3548   6.2137   H        15 ARG19   0.0000
@<TRIPOS>BOND
     1     1     2    1
     2     2     3    1
     3     3     4    2
     4     2     5    1
     5     5     6    1
     6     5     7    1
     7     3     8   am
     8     8     9    1
     9     9    10    1
    10    10    11    2
    11     9    12    1
    12    12    13    1
    13    12    14    1
    14    10    15   am
    15    15    16    1
    16    16    17    1
    17    17    18    2
    18    16    19    1
    19    19    20    1
    20    20    21   ar
    21    20    22   ar
    22    21    23   ar
    23    22    24   ar
    24    23    25   ar
    25    24    25   ar
    26    25    26    1
    27    17    27   am
    28    27    28    1
    29    28    29    1
    30    29    30    2
    31    28    31    1
    32    29    32   am
    33    32    33    1
    34    33    34    1
    35    34    35    2
    36    33    36    1
    37    36    37    1
    38    37    38   ar
    39    37    39   ar
    40    34    40   am
    41    40    41    1
    42    41    42    1
    43    42    43    2
    44    41    44    1
    45    44    45    1
    46    45    46   ar
    47    45    47   ar
    48    46    48   ar
    49    47    49   ar
    50    48    50   ar
    51    49    50   ar
    52    42    51   am
    53    51    52    1
    54    52    53    1
    55    53    54    2
    56    52    55    1
    57    55    56    1
    58    55    57    1
    59    56    58    1
    60    53    59   am
    61    59    60    1
    62    60    61    1
    63    61    62    2
    64    60    63    1
    65    61    64   am
    66    64    65    1
    67    65    66    1
    68    66    67    2
    69    65    68    1
    70    68    69    1
    71    66    70   am
    72    70    71    1
    73    71    72    1
    74    72    73    2
    75    72    74   am
    76    74    75    1
    77    75    76    1
    78    76    77    2
    79    75    78    1
    80    78    79    1
    81    79    80    1
    82    80    81    1
    83    81    82   ar
    84    82    83   ar
    85    82    84   ar
    86    76    85   am
    87    85    86    1
    88    86    87    1
    89    87    88    2
    90    86    89    1
    91    89    90    1
    92    89    91    1
    93    87    92   am
    94    92    93    1
    95    93    94    1
    96    94    95    2
    97    94    96   am
    98    96    97    1
    99    97    98    1
   100    98    99    2
   101    97   100    1
   102   100   101    1
   103   101   102    1
   104   102   103    1
   105   103   104   ar
   106   104   105   ar
   107   104   106   ar
   108    98   107   am
   109   107   108    1
   110   108   109    1
   111   109   110    2
   112   108   111    1
   113   111   112    1
   114   112   113    1
   115   113   114    1
   116   114   115   ar
   117   115   116   ar
   118   115   117   ar
   119   109   118   am
   120   118   119    1
   121   119   120    1
   122   120   121    2
   123   119   122    1
   124   122   123    1
   125   123   124   am
   126   123   125    2
   127   120   126   am
   128   126   127    1
   129   127   128    1
   130   128   129    2
   131   127   130    1
   132   128   131   am
   133   131   132    1
   134   132   133    1
   135   133   134    2
   136   132   135    1
   137   135   136    1
   138   135   137    1
   139   136   138    1
   140   133   139   am
   141   139   140    1
   142   140   141    1
   143   141   142    2
   144   140   143    1
   145   143   144    1
   146   144   145    2
   147   144   146    1
   148   146   147    1
   149   145   148    1
   150   147   148    2
   151   141   149   am
   152   149   150    1
   153   150   151    1
   154   151   152    2
   155   150   153    1
   156   153   154    1
   157   154   155   ar
   158   154   156   ar
   159   151   157    1
   160     5   158    1
   161     6   159    1
   162     6   160    1
   163     6   161    1
   164     7   162    1
   165     8   163    1
   166     9   164    1
   167     1   165    1
   168     1   166    1
   169     2   167    1
   170    26   168    1
   171    27   169    1
   172    28   170    1
   173    31   171    1
   174    31   172    1
   175    31   173    1
   176    32   174    1
   177    33   175    1
   178    68   176    1
   179    68   177    1
   180    36   178    1
   181    36   179    1
   182    40   180    1
   183    41   181    1
   184    44   182    1
   185    44   183    1
   186    46   184    1
   187    47   185    1
   188    48   186    1
   189    49   187    1
   190    50   188    1
   191    51   189    1
   192    52   190    1
   193    55   191    1
   194    56   192    1
   195    56   193    1
   196    57   194    1
   197    57   195    1
   198    57   196    1
   199    58   197    1
   200    58   198    1
   201    58   199    1
   202    59   200    1
   203    60   201    1
   204    12   202    1
   205    13   203    1
   206    13   204    1
   207    13   205    1
   208    14   206    1
   209    15   207    1
   210    16   208    1
   211    19   209    1
   212    19   210    1
   213    21   211    1
   214    22   212    1
   215    23   213    1
   216    24   214    1
   217   117   215    1
   218   118   216    1
   219   119   217    1
   220   122   218    1
   221   122   219    1
   222   124   220    1
   223   124   221    1
   224   126   222    1
   225   127   223    1
   226   135   224    1
   227   136   225    1
   228   136   226    1
   229   137   227    1
   230   137   228    1
   231   137   229    1
   232   138   230    1
   233   138   231    1
   234   138   232    1
   235   139   233    1
   236   140   234    1
   237   143   235    1
   238   143   236    1
   239   145   237    1
   240   146   238    1
   241   147   239    1
   242   149   240    1
   243   150   241    1
   244   153   242    1
   245   153   243    1
   246   157   244    1
   247    63   245    1
   248    63   246    1
   249    63   247    1
   250    64   248    1
   251    65   249    1
   252   130   250    1
   253   130   251    1
   254   130   252    1
   255   131   253    1
   256   132   254    1
   257    69   255    1
   258    70   256    1
   259    71   257    1
   260    71   258    1
   261    74   259    1
   262    75   260    1
   263    78   261    1
   264    78   262    1
   265    79   263    1
   266    79   264    1
   267    80   265    1
   268    80   266    1
   269    83   267    1
   270    84   268    1
   271    85   269    1
   272    86   270    1
   273    89   271    1
   274    90   272    1
   275    90   273    1
   276    90   274    1
   277    91   275    1
   278    92   276    1
   279    93   277    1
   280    93   278    1
   281    96   279    1
   282    97   280    1
   283   100   281    1
   284   100   282    1
   285   101   283    1
   286   101   284    1
   287   102   285    1
   288   102   286    1
   289   105   287    1
   290   106   288    1
   291   107   289    1
   292   108   290    1
   293   111   291    1
   294   111   292    1
   295   112   293    1
   296   112   294    1
   297   113   295    1
   298   113   296    1
   299   116   297    1
@<TRIPOS>SUBSTRUCTURE
     1 THR5        1 GROUP             0 B     THR     0  
     2 THR6        8 GROUP             0 B     THR     0  
     3 TYR7       15 GROUP             0 B     TYR     0  
     4 ALA8       27 GROUP             0 B     ALA     0  
     5 ASP9       32 GROUP             0 B     ASP     0  
     6 PHE10      40 GROUP             0 B     PHE     0  
     7 ILE11      51 GROUP             0 B     ILE     0  
     8 ALA12      59 GROUP             0 B     ALA     0  
     9 SER13      64 GROUP             0 B     SER     0  
    10 GLY14      70 GROUP             0 B     GLY     0  
    11 ARG15      74 GROUP             0 B     ARG     0  
    12 THR16      85 GROUP             0 B     THR     0  
    13 GLY17      92 GROUP             0 B     GLY     0  
    14 ARG18      96 GROUP             0 B     ARG     0  
    15 ARG19     107 GROUP             0 B     ARG     0  
    16 ASN20     118 GROUP             0 B     ASN     0  
    17 ALA21     126 GROUP             0 B     ALA     0  
    18 ILE22     131 GROUP             0 B     ILE     0  
    19 HIS23     139 GROUP             0 B     HIS     0  
    20 ASP24     149 GROUP             0 B     ASP     0  
@<TRIPOS>SET
CCDC_LIGAND STATIC ATOMS
297 1 2 3 4 5 6 7 8 9 \
10 11 12 13 14 15 16 17 18 19 \
20 21 22 23 24 25 26 27 28 29 \
30 31 32 33 34 35 36 37 38 39 \
40 41 42 43 44 45 46 47 48 49 \
50 51 52 53 54 55 56 57 58 59 \
60 61 62 63 64 65 66 67 68 69 \
70 71 72 73 74 75 76 77 78 79 \
80 81 82 83 84 85 86 87 88 89 \
90 91 92 93 94 95 96 97 98 99 \
100 101 102 103 104 105 106 107 108 109 \
110 111 112 113 114 115 116 117 118 119 \
120 121 122 123 124 125 126 127 128 129 \
130 131 132 133 134 135 136 137 138 139 \
140 141 142 143 144 145 146 147 148 149 \
150 151 152 153 154 155 156 157 158 159 \
160 161 162 163 164 165 166 167 168 169 \
170 171 172 173 174 175 176 177 178 179 \
180 181 182 183 184 185 186 187 188 189 \
190 191 192 193 194 195 196 197 198 199 \
200 201 202 203 204 205 206 207 208 209 \
210 211 212 213 214 215 216 217 218 219 \
220 221 222 223 224 225 226 227 228 229 \
230 231 232 233 234 235 236 237 238 239 \
240 241 242 243 244 245 246 247 248 249 \
250 251 252 253 254 255 256 257 258 259 \
260 261 262 263 264 265 266 267 268 269 \
270 271 272 273 274 275 276 277 278 279 \
280 281 282 283 284 285 286 287 288 289 \
290 291 292 293 294 295 296 297 
