#       Name:                GA Fitting Points
#       Creating user name   hitesit
#       Creation time:       Sun Apr 16 02:21:37 2023


#       Fitting Points Used by GA Software.
#

@<TRIPOS>MOLECULE
GA Fitting Points
  4342    0    0
SMALL
NO_CHARGES


@<TRIPOS>ATOM
      1 ****         4.2500   8.5000   8.0000 Du        
      2 ****         4.2500   8.5000   8.2500 Du        
      3 ****         4.2500   8.7500   8.0000 Du        
      4 ****         4.2500   8.7500   8.2500 Du        
      5 ****         4.5000   8.2500   8.2500 Du        
      6 ****         4.5000   8.5000   8.2500 Du        
      7 ****         4.7500   6.7500   6.7500 Du        
      8 ****         4.7500   8.2500   8.2500 Du        
      9 ****         4.7500   8.5000   9.0000 Du        
     10 ****         4.7500   8.7500   9.0000 Du        
     11 ****         5.0000   6.7500   6.7500 Du        
     12 ****         5.0000   6.7500   7.0000 Du        
     13 ****         5.0000   8.0000   8.2500 Du        
     14 ****         5.0000   8.2500   9.0000 Du        
     15 ****         5.0000   8.5000   8.7500 Du        
     16 ****         5.0000   8.5000   9.0000 Du        
     17 ****         5.0000   8.5000   9.2500 Du        
     18 ****         5.0000   8.7500   9.0000 Du        
     19 ****         5.0000   8.7500   9.2500 Du        
     20 ****         5.2500   5.5000   6.2500 Du        
     21 ****         5.2500   5.5000   6.5000 Du        
     22 ****         5.2500   5.7500   6.2500 Du        
     23 ****         5.2500   5.7500   6.5000 Du        
     24 ****         5.2500   6.0000   6.2500 Du        
     25 ****         5.2500   6.0000   6.5000 Du        
     26 ****         5.2500   6.0000   6.7500 Du        
     27 ****         5.2500   6.2500   6.2500 Du        
     28 ****         5.2500   6.2500   6.5000 Du        
     29 ****         5.2500   6.2500   6.7500 Du        
     30 ****         5.2500   6.5000   6.0000 Du        
     31 ****         5.2500   6.5000   6.2500 Du        
     32 ****         5.2500   8.0000   9.0000 Du        
     33 ****         5.2500   8.0000   9.2500 Du        
     34 ****         5.2500   8.2500   9.0000 Du        
     35 ****         5.2500   8.2500   9.2500 Du        
     36 ****         5.2500   8.5000   8.7500 Du        
     37 ****         5.2500   8.5000   9.0000 Du        
     38 ****         5.2500   8.5000   9.2500 Du        
     39 ****         5.2500   8.5000   9.5000 Du        
     40 ****         5.2500   8.5000   9.7500 Du        
     41 ****         5.2500   8.7500   9.0000 Du        
     42 ****         5.2500   8.7500   9.2500 Du        
     43 ****         5.2500   8.7500   9.5000 Du        
     44 ****         5.5000   5.5000   6.2500 Du        
     45 ****         5.5000   5.5000   6.5000 Du        
     46 ****         5.5000   5.7500   6.2500 Du        
     47 ****         5.5000   5.7500   6.5000 Du        
     48 ****         5.5000   5.7500   6.7500 Du        
     49 ****         5.5000   6.0000   6.2500 Du        
     50 ****         5.5000   6.0000   6.5000 Du        
     51 ****         5.5000   6.0000   6.7500 Du        
     52 ****         5.5000   6.2500   6.2500 Du        
     53 ****         5.5000   6.2500   6.5000 Du        
     54 ****         5.5000   6.2500   6.7500 Du        
     55 ****         5.5000   6.5000   6.0000 Du        
     56 ****         5.5000   6.5000   6.2500 Du        
     57 ****         5.5000   6.5000   6.5000 Du        
     58 ****         5.5000   6.5000   6.7500 Du        
     59 ****         5.5000   6.5000   7.0000 Du        
     60 ****         5.5000   6.5000   7.2500 Du        
     61 ****         5.5000   6.7500   6.7500 Du        
     62 ****         5.5000   6.7500   7.0000 Du        
     63 ****         5.5000   6.7500   7.2500 Du        
     64 ****         5.5000   7.0000   7.2500 Du        
     65 ****         5.5000   7.5000   8.7500 Du        
     66 ****         5.5000   7.5000   9.0000 Du        
     67 ****         5.5000   7.5000   9.2500 Du        
     68 ****         5.5000   7.5000  10.0000 Du        
     69 ****         5.5000   7.7500   8.7500 Du        
     70 ****         5.5000   7.7500   9.0000 Du        
     71 ****         5.5000   7.7500   9.2500 Du        
     72 ****         5.5000   7.7500   9.5000 Du        
     73 ****         5.5000   7.7500   9.7500 Du        
     74 ****         5.5000   7.7500  10.0000 Du        
     75 ****         5.5000   8.0000   8.5000 Du        
     76 ****         5.5000   8.0000   8.7500 Du        
     77 ****         5.5000   8.0000   9.0000 Du        
     78 ****         5.5000   8.0000   9.2500 Du        
     79 ****         5.5000   8.0000   9.5000 Du        
     80 ****         5.5000   8.0000   9.7500 Du        
     81 ****         5.5000   8.0000  10.0000 Du        
     82 ****         5.5000   8.0000  10.2500 Du        
     83 ****         5.5000   8.2500   8.7500 Du        
     84 ****         5.5000   8.2500   9.0000 Du        
     85 ****         5.5000   8.2500   9.2500 Du        
     86 ****         5.5000   8.2500   9.5000 Du        
     87 ****         5.5000   8.2500   9.7500 Du        
     88 ****         5.5000   8.2500  10.0000 Du        
     89 ****         5.5000   8.5000   8.7500 Du        
     90 ****         5.5000   8.5000   9.0000 Du        
     91 ****         5.5000   8.5000   9.2500 Du        
     92 ****         5.5000   8.5000   9.5000 Du        
     93 ****         5.5000   8.5000   9.7500 Du        
     94 ****         5.5000   8.7500   9.0000 Du        
     95 ****         5.5000   8.7500   9.2500 Du        
     96 ****         5.5000   8.7500   9.5000 Du        
     97 ****         5.7500   4.7500   6.2500 Du        
     98 ****         5.7500   4.7500   6.5000 Du        
     99 ****         5.7500   4.7500   6.7500 Du        
    100 ****         5.7500   5.0000   6.0000 Du        
    101 ****         5.7500   5.0000   6.2500 Du        
    102 ****         5.7500   5.0000   6.5000 Du        
    103 ****         5.7500   5.0000   6.7500 Du        
    104 ****         5.7500   5.2500   5.7500 Du        
    105 ****         5.7500   5.2500   6.0000 Du        
    106 ****         5.7500   5.2500   6.2500 Du        
    107 ****         5.7500   5.2500   6.5000 Du        
    108 ****         5.7500   5.2500   6.7500 Du        
    109 ****         5.7500   5.5000   5.7500 Du        
    110 ****         5.7500   5.5000   6.0000 Du        
    111 ****         5.7500   5.5000   6.2500 Du        
    112 ****         5.7500   5.5000   6.5000 Du        
    113 ****         5.7500   5.5000   6.7500 Du        
    114 ****         5.7500   5.5000   7.0000 Du        
    115 ****         5.7500   5.7500   5.7500 Du        
    116 ****         5.7500   5.7500   6.0000 Du        
    117 ****         5.7500   5.7500   6.2500 Du        
    118 ****         5.7500   5.7500   6.5000 Du        
    119 ****         5.7500   5.7500   6.7500 Du        
    120 ****         5.7500   5.7500   7.0000 Du        
    121 ****         5.7500   6.0000   5.7500 Du        
    122 ****         5.7500   6.0000   6.0000 Du        
    123 ****         5.7500   6.0000   6.2500 Du        
    124 ****         5.7500   6.0000   6.5000 Du        
    125 ****         5.7500   6.0000   6.7500 Du        
    126 ****         5.7500   6.0000   7.0000 Du        
    127 ****         5.7500   6.0000   7.2500 Du        
    128 ****         5.7500   6.2500   6.0000 Du        
    129 ****         5.7500   6.2500   6.2500 Du        
    130 ****         5.7500   6.2500   6.5000 Du        
    131 ****         5.7500   6.2500   6.7500 Du        
    132 ****         5.7500   6.2500   7.0000 Du        
    133 ****         5.7500   6.2500   7.2500 Du        
    134 ****         5.7500   6.5000   6.2500 Du        
    135 ****         5.7500   6.5000   6.5000 Du        
    136 ****         5.7500   6.5000   6.7500 Du        
    137 ****         5.7500   6.5000   7.0000 Du        
    138 ****         5.7500   6.5000   7.2500 Du        
    139 ****         5.7500   6.7500   6.7500 Du        
    140 ****         5.7500   6.7500   7.0000 Du        
    141 ****         5.7500   6.7500   7.2500 Du        
    142 ****         5.7500   6.7500   7.5000 Du        
    143 ****         5.7500   6.7500   7.7500 Du        
    144 ****         5.7500   6.7500   8.0000 Du        
    145 ****         5.7500   7.0000   7.2500 Du        
    146 ****         5.7500   7.0000   7.7500 Du        
    147 ****         5.7500   7.0000   8.0000 Du        
    148 ****         5.7500   7.0000   8.5000 Du        
    149 ****         5.7500   7.2500   8.0000 Du        
    150 ****         5.7500   7.2500   8.2500 Du        
    151 ****         5.7500   7.2500   8.5000 Du        
    152 ****         5.7500   7.2500   8.7500 Du        
    153 ****         5.7500   7.2500   9.0000 Du        
    154 ****         5.7500   7.2500   9.2500 Du        
    155 ****         5.7500   7.2500  10.2500 Du        
    156 ****         5.7500   7.2500  10.7500 Du        
    157 ****         5.7500   7.5000   8.0000 Du        
    158 ****         5.7500   7.5000   8.2500 Du        
    159 ****         5.7500   7.5000   8.5000 Du        
    160 ****         5.7500   7.5000   8.7500 Du        
    161 ****         5.7500   7.5000   9.0000 Du        
    162 ****         5.7500   7.5000   9.2500 Du        
    163 ****         5.7500   7.5000   9.5000 Du        
    164 ****         5.7500   7.5000   9.7500 Du        
    165 ****         5.7500   7.5000  10.0000 Du        
    166 ****         5.7500   7.5000  10.2500 Du        
    167 ****         5.7500   7.5000  10.5000 Du        
    168 ****         5.7500   7.5000  10.7500 Du        
    169 ****         5.7500   7.5000  11.0000 Du        
    170 ****         5.7500   7.7500   8.2500 Du        
    171 ****         5.7500   7.7500   8.5000 Du        
    172 ****         5.7500   7.7500   8.7500 Du        
    173 ****         5.7500   7.7500   9.0000 Du        
    174 ****         5.7500   7.7500   9.2500 Du        
    175 ****         5.7500   7.7500   9.5000 Du        
    176 ****         5.7500   7.7500   9.7500 Du        
    177 ****         5.7500   7.7500  10.0000 Du        
    178 ****         5.7500   7.7500  10.2500 Du        
    179 ****         5.7500   7.7500  10.5000 Du        
    180 ****         5.7500   7.7500  10.7500 Du        
    181 ****         5.7500   7.7500  11.0000 Du        
    182 ****         5.7500   8.0000   8.5000 Du        
    183 ****         5.7500   8.0000   8.7500 Du        
    184 ****         5.7500   8.0000   9.0000 Du        
    185 ****         5.7500   8.0000   9.2500 Du        
    186 ****         5.7500   8.0000   9.5000 Du        
    187 ****         5.7500   8.0000   9.7500 Du        
    188 ****         5.7500   8.0000  10.0000 Du        
    189 ****         5.7500   8.0000  10.2500 Du        
    190 ****         5.7500   8.0000  10.5000 Du        
    191 ****         5.7500   8.2500   8.7500 Du        
    192 ****         5.7500   8.2500   9.0000 Du        
    193 ****         5.7500   8.2500   9.2500 Du        
    194 ****         5.7500   8.2500   9.5000 Du        
    195 ****         5.7500   8.2500   9.7500 Du        
    196 ****         5.7500   8.2500  10.0000 Du        
    197 ****         5.7500   8.2500  10.2500 Du        
    198 ****         5.7500   8.5000   9.0000 Du        
    199 ****         5.7500   8.5000   9.2500 Du        
    200 ****         5.7500   8.5000   9.5000 Du        
    201 ****         5.7500   8.5000   9.7500 Du        
    202 ****         5.7500   8.5000  10.0000 Du        
    203 ****         5.7500   8.7500   9.2500 Du        
    204 ****         5.7500   8.7500   9.5000 Du        
    205 ****         5.7500   8.7500   9.7500 Du        
    206 ****         6.0000   4.7500   6.5000 Du        
    207 ****         6.0000   4.7500   6.7500 Du        
    208 ****         6.0000   5.0000   6.0000 Du        
    209 ****         6.0000   5.0000   6.2500 Du        
    210 ****         6.0000   5.0000   6.5000 Du        
    211 ****         6.0000   5.0000   6.7500 Du        
    212 ****         6.0000   5.0000   7.0000 Du        
    213 ****         6.0000   5.2500   6.0000 Du        
    214 ****         6.0000   5.2500   6.2500 Du        
    215 ****         6.0000   5.2500   6.5000 Du        
    216 ****         6.0000   5.2500   6.7500 Du        
    217 ****         6.0000   5.2500   7.0000 Du        
    218 ****         6.0000   5.2500   7.2500 Du        
    219 ****         6.0000   5.5000   6.0000 Du        
    220 ****         6.0000   5.5000   6.2500 Du        
    221 ****         6.0000   5.5000   6.5000 Du        
    222 ****         6.0000   5.5000   6.7500 Du        
    223 ****         6.0000   5.5000   7.0000 Du        
    224 ****         6.0000   5.5000   7.2500 Du        
    225 ****         6.0000   5.5000   7.5000 Du        
    226 ****         6.0000   5.7500   6.0000 Du        
    227 ****         6.0000   5.7500   6.2500 Du        
    228 ****         6.0000   5.7500   6.5000 Du        
    229 ****         6.0000   5.7500   6.7500 Du        
    230 ****         6.0000   5.7500   7.0000 Du        
    231 ****         6.0000   5.7500   7.2500 Du        
    232 ****         6.0000   6.0000   6.0000 Du        
    233 ****         6.0000   6.0000   6.2500 Du        
    234 ****         6.0000   6.0000   6.5000 Du        
    235 ****         6.0000   6.0000   6.7500 Du        
    236 ****         6.0000   6.0000   7.0000 Du        
    237 ****         6.0000   6.0000   7.2500 Du        
    238 ****         6.0000   6.0000   7.5000 Du        
    239 ****         6.0000   6.0000   7.7500 Du        
    240 ****         6.0000   6.2500   6.2500 Du        
    241 ****         6.0000   6.2500   6.5000 Du        
    242 ****         6.0000   6.2500   6.7500 Du        
    243 ****         6.0000   6.2500   7.0000 Du        
    244 ****         6.0000   6.2500   7.2500 Du        
    245 ****         6.0000   6.2500   7.5000 Du        
    246 ****         6.0000   6.2500   7.7500 Du        
    247 ****         6.0000   6.2500   8.0000 Du        
    248 ****         6.0000   6.2500  12.5000 Du        
    249 ****         6.0000   6.2500  12.7500 Du        
    250 ****         6.0000   6.2500  13.0000 Du        
    251 ****         6.0000   6.5000   6.5000 Du        
    252 ****         6.0000   6.5000   6.7500 Du        
    253 ****         6.0000   6.5000   7.0000 Du        
    254 ****         6.0000   6.5000   7.2500 Du        
    255 ****         6.0000   6.5000   7.5000 Du        
    256 ****         6.0000   6.5000   7.7500 Du        
    257 ****         6.0000   6.5000   8.0000 Du        
    258 ****         6.0000   6.5000  12.0000 Du        
    259 ****         6.0000   6.5000  12.2500 Du        
    260 ****         6.0000   6.5000  13.0000 Du        
    261 ****         6.0000   6.7500   6.7500 Du        
    262 ****         6.0000   6.7500   7.0000 Du        
    263 ****         6.0000   6.7500   7.2500 Du        
    264 ****         6.0000   6.7500   7.5000 Du        
    265 ****         6.0000   6.7500   7.7500 Du        
    266 ****         6.0000   6.7500   8.0000 Du        
    267 ****         6.0000   6.7500   8.2500 Du        
    268 ****         6.0000   6.7500   8.5000 Du        
    269 ****         6.0000   6.7500   8.7500 Du        
    270 ****         6.0000   6.7500  10.0000 Du        
    271 ****         6.0000   6.7500  11.2500 Du        
    272 ****         6.0000   6.7500  11.7500 Du        
    273 ****         6.0000   6.7500  12.0000 Du        
    274 ****         6.0000   6.7500  12.2500 Du        
    275 ****         6.0000   6.7500  12.5000 Du        
    276 ****         6.0000   6.7500  12.7500 Du        
    277 ****         6.0000   6.7500  13.0000 Du        
    278 ****         6.0000   7.0000   7.2500 Du        
    279 ****         6.0000   7.0000   7.5000 Du        
    280 ****         6.0000   7.0000   7.7500 Du        
    281 ****         6.0000   7.0000   8.0000 Du        
    282 ****         6.0000   7.0000   8.2500 Du        
    283 ****         6.0000   7.0000   8.5000 Du        
    284 ****         6.0000   7.0000   8.7500 Du        
    285 ****         6.0000   7.0000   9.0000 Du        
    286 ****         6.0000   7.0000   9.2500 Du        
    287 ****         6.0000   7.0000   9.7500 Du        
    288 ****         6.0000   7.0000  10.0000 Du        
    289 ****         6.0000   7.0000  10.2500 Du        
    290 ****         6.0000   7.0000  10.5000 Du        
    291 ****         6.0000   7.0000  10.7500 Du        
    292 ****         6.0000   7.0000  11.0000 Du        
    293 ****         6.0000   7.0000  11.2500 Du        
    294 ****         6.0000   7.0000  11.7500 Du        
    295 ****         6.0000   7.0000  12.0000 Du        
    296 ****         6.0000   7.0000  12.2500 Du        
    297 ****         6.0000   7.0000  12.5000 Du        
    298 ****         6.0000   7.0000  12.7500 Du        
    299 ****         6.0000   7.0000  13.0000 Du        
    300 ****         6.0000   7.2500   7.7500 Du        
    301 ****         6.0000   7.2500   8.0000 Du        
    302 ****         6.0000   7.2500   8.2500 Du        
    303 ****         6.0000   7.2500   8.5000 Du        
    304 ****         6.0000   7.2500   8.7500 Du        
    305 ****         6.0000   7.2500   9.0000 Du        
    306 ****         6.0000   7.2500   9.2500 Du        
    307 ****         6.0000   7.2500   9.5000 Du        
    308 ****         6.0000   7.2500   9.7500 Du        
    309 ****         6.0000   7.2500  10.0000 Du        
    310 ****         6.0000   7.2500  10.2500 Du        
    311 ****         6.0000   7.2500  10.5000 Du        
    312 ****         6.0000   7.2500  10.7500 Du        
    313 ****         6.0000   7.2500  11.0000 Du        
    314 ****         6.0000   7.2500  11.2500 Du        
    315 ****         6.0000   7.2500  11.5000 Du        
    316 ****         6.0000   7.2500  11.7500 Du        
    317 ****         6.0000   7.2500  12.0000 Du        
    318 ****         6.0000   7.2500  12.2500 Du        
    319 ****         6.0000   7.5000   8.0000 Du        
    320 ****         6.0000   7.5000   8.2500 Du        
    321 ****         6.0000   7.5000   8.5000 Du        
    322 ****         6.0000   7.5000   8.7500 Du        
    323 ****         6.0000   7.5000   9.0000 Du        
    324 ****         6.0000   7.5000   9.2500 Du        
    325 ****         6.0000   7.5000   9.5000 Du        
    326 ****         6.0000   7.5000   9.7500 Du        
    327 ****         6.0000   7.5000  10.0000 Du        
    328 ****         6.0000   7.5000  10.2500 Du        
    329 ****         6.0000   7.5000  10.5000 Du        
    330 ****         6.0000   7.5000  10.7500 Du        
    331 ****         6.0000   7.5000  11.0000 Du        
    332 ****         6.0000   7.5000  11.2500 Du        
    333 ****         6.0000   7.5000  11.5000 Du        
    334 ****         6.0000   7.5000  11.7500 Du        
    335 ****         6.0000   7.7500   8.0000 Du        
    336 ****         6.0000   7.7500   8.2500 Du        
    337 ****         6.0000   7.7500   8.5000 Du        
    338 ****         6.0000   7.7500   8.7500 Du        
    339 ****         6.0000   7.7500   9.0000 Du        
    340 ****         6.0000   7.7500   9.2500 Du        
    341 ****         6.0000   7.7500   9.5000 Du        
    342 ****         6.0000   7.7500   9.7500 Du        
    343 ****         6.0000   7.7500  10.0000 Du        
    344 ****         6.0000   7.7500  10.2500 Du        
    345 ****         6.0000   7.7500  10.5000 Du        
    346 ****         6.0000   7.7500  10.7500 Du        
    347 ****         6.0000   7.7500  11.0000 Du        
    348 ****         6.0000   8.0000   8.5000 Du        
    349 ****         6.0000   8.0000   8.7500 Du        
    350 ****         6.0000   8.0000   9.0000 Du        
    351 ****         6.0000   8.0000   9.2500 Du        
    352 ****         6.0000   8.0000   9.5000 Du        
    353 ****         6.0000   8.0000   9.7500 Du        
    354 ****         6.0000   8.0000  10.0000 Du        
    355 ****         6.0000   8.0000  10.2500 Du        
    356 ****         6.0000   8.0000  10.5000 Du        
    357 ****         6.0000   8.0000  10.7500 Du        
    358 ****         6.0000   8.2500   8.7500 Du        
    359 ****         6.0000   8.2500   9.0000 Du        
    360 ****         6.0000   8.2500   9.2500 Du        
    361 ****         6.0000   8.2500   9.5000 Du        
    362 ****         6.0000   8.2500   9.7500 Du        
    363 ****         6.0000   8.2500  10.0000 Du        
    364 ****         6.0000   8.2500  10.2500 Du        
    365 ****         6.0000   8.5000   9.0000 Du        
    366 ****         6.0000   8.5000   9.2500 Du        
    367 ****         6.0000   8.5000   9.5000 Du        
    368 ****         6.0000   8.5000   9.7500 Du        
    369 ****         6.0000   8.5000  10.0000 Du        
    370 ****         6.0000   8.7500   9.2500 Du        
    371 ****         6.0000   8.7500   9.5000 Du        
    372 ****         6.0000   8.7500   9.7500 Du        
    373 ****         6.2500   4.7500   6.5000 Du        
    374 ****         6.2500   4.7500   6.7500 Du        
    375 ****         6.2500   5.0000   6.5000 Du        
    376 ****         6.2500   5.0000   6.7500 Du        
    377 ****         6.2500   5.0000   7.0000 Du        
    378 ****         6.2500   5.2500   6.2500 Du        
    379 ****         6.2500   5.2500   6.5000 Du        
    380 ****         6.2500   5.2500   6.7500 Du        
    381 ****         6.2500   5.2500   7.0000 Du        
    382 ****         6.2500   5.2500   7.2500 Du        
    383 ****         6.2500   5.5000   6.2500 Du        
    384 ****         6.2500   5.5000   6.5000 Du        
    385 ****         6.2500   5.5000   6.7500 Du        
    386 ****         6.2500   5.5000   7.0000 Du        
    387 ****         6.2500   5.5000   7.2500 Du        
    388 ****         6.2500   5.5000   7.5000 Du        
    389 ****         6.2500   5.7500   6.0000 Du        
    390 ****         6.2500   5.7500   6.2500 Du        
    391 ****         6.2500   5.7500   6.5000 Du        
    392 ****         6.2500   5.7500   6.7500 Du        
    393 ****         6.2500   5.7500   7.0000 Du        
    394 ****         6.2500   5.7500   7.2500 Du        
    395 ****         6.2500   5.7500   7.5000 Du        
    396 ****         6.2500   5.7500   7.7500 Du        
    397 ****         6.2500   6.0000   6.2500 Du        
    398 ****         6.2500   6.0000   6.5000 Du        
    399 ****         6.2500   6.0000   6.7500 Du        
    400 ****         6.2500   6.0000   7.0000 Du        
    401 ****         6.2500   6.0000   7.2500 Du        
    402 ****         6.2500   6.0000   7.5000 Du        
    403 ****         6.2500   6.0000   7.7500 Du        
    404 ****         6.2500   6.0000   8.0000 Du        
    405 ****         6.2500   6.0000  12.0000 Du        
    406 ****         6.2500   6.0000  12.2500 Du        
    407 ****         6.2500   6.0000  12.5000 Du        
    408 ****         6.2500   6.0000  12.7500 Du        
    409 ****         6.2500   6.0000  13.0000 Du        
    410 ****         6.2500   6.0000  13.2500 Du        
    411 ****         6.2500   6.2500   6.2500 Du        
    412 ****         6.2500   6.2500   6.5000 Du        
    413 ****         6.2500   6.2500   6.7500 Du        
    414 ****         6.2500   6.2500   7.0000 Du        
    415 ****         6.2500   6.2500   7.2500 Du        
    416 ****         6.2500   6.2500   7.5000 Du        
    417 ****         6.2500   6.2500   7.7500 Du        
    418 ****         6.2500   6.2500   8.0000 Du        
    419 ****         6.2500   6.2500   8.2500 Du        
    420 ****         6.2500   6.2500  11.7500 Du        
    421 ****         6.2500   6.2500  12.0000 Du        
    422 ****         6.2500   6.2500  12.2500 Du        
    423 ****         6.2500   6.2500  12.5000 Du        
    424 ****         6.2500   6.2500  12.7500 Du        
    425 ****         6.2500   6.2500  13.0000 Du        
    426 ****         6.2500   6.2500  13.2500 Du        
    427 ****         6.2500   6.5000   6.5000 Du        
    428 ****         6.2500   6.5000   6.7500 Du        
    429 ****         6.2500   6.5000   7.0000 Du        
    430 ****         6.2500   6.5000   7.2500 Du        
    431 ****         6.2500   6.5000   7.5000 Du        
    432 ****         6.2500   6.5000   7.7500 Du        
    433 ****         6.2500   6.5000   8.0000 Du        
    434 ****         6.2500   6.5000   8.2500 Du        
    435 ****         6.2500   6.5000   8.5000 Du        
    436 ****         6.2500   6.5000  11.0000 Du        
    437 ****         6.2500   6.5000  11.2500 Du        
    438 ****         6.2500   6.5000  11.5000 Du        
    439 ****         6.2500   6.5000  11.7500 Du        
    440 ****         6.2500   6.5000  12.0000 Du        
    441 ****         6.2500   6.5000  12.2500 Du        
    442 ****         6.2500   6.5000  12.5000 Du        
    443 ****         6.2500   6.5000  12.7500 Du        
    444 ****         6.2500   6.5000  13.0000 Du        
    445 ****         6.2500   6.5000  13.2500 Du        
    446 ****         6.2500   6.7500   6.7500 Du        
    447 ****         6.2500   6.7500   7.0000 Du        
    448 ****         6.2500   6.7500   7.2500 Du        
    449 ****         6.2500   6.7500   7.5000 Du        
    450 ****         6.2500   6.7500   7.7500 Du        
    451 ****         6.2500   6.7500   8.0000 Du        
    452 ****         6.2500   6.7500   8.2500 Du        
    453 ****         6.2500   6.7500   8.5000 Du        
    454 ****         6.2500   6.7500   8.7500 Du        
    455 ****         6.2500   6.7500   9.0000 Du        
    456 ****         6.2500   6.7500   9.2500 Du        
    457 ****         6.2500   6.7500   9.5000 Du        
    458 ****         6.2500   6.7500   9.7500 Du        
    459 ****         6.2500   6.7500  10.0000 Du        
    460 ****         6.2500   6.7500  10.2500 Du        
    461 ****         6.2500   6.7500  10.5000 Du        
    462 ****         6.2500   6.7500  10.7500 Du        
    463 ****         6.2500   6.7500  11.0000 Du        
    464 ****         6.2500   6.7500  11.2500 Du        
    465 ****         6.2500   6.7500  11.5000 Du        
    466 ****         6.2500   6.7500  11.7500 Du        
    467 ****         6.2500   6.7500  12.0000 Du        
    468 ****         6.2500   6.7500  12.2500 Du        
    469 ****         6.2500   6.7500  12.5000 Du        
    470 ****         6.2500   6.7500  12.7500 Du        
    471 ****         6.2500   6.7500  13.0000 Du        
    472 ****         6.2500   6.7500  13.2500 Du        
    473 ****         6.2500   7.0000   7.2500 Du        
    474 ****         6.2500   7.0000   7.5000 Du        
    475 ****         6.2500   7.0000   7.7500 Du        
    476 ****         6.2500   7.0000   8.0000 Du        
    477 ****         6.2500   7.0000   8.2500 Du        
    478 ****         6.2500   7.0000   8.5000 Du        
    479 ****         6.2500   7.0000   8.7500 Du        
    480 ****         6.2500   7.0000   9.0000 Du        
    481 ****         6.2500   7.0000   9.2500 Du        
    482 ****         6.2500   7.0000   9.5000 Du        
    483 ****         6.2500   7.0000   9.7500 Du        
    484 ****         6.2500   7.0000  10.0000 Du        
    485 ****         6.2500   7.0000  10.2500 Du        
    486 ****         6.2500   7.0000  10.5000 Du        
    487 ****         6.2500   7.0000  10.7500 Du        
    488 ****         6.2500   7.0000  11.0000 Du        
    489 ****         6.2500   7.0000  11.2500 Du        
    490 ****         6.2500   7.0000  11.5000 Du        
    491 ****         6.2500   7.0000  11.7500 Du        
    492 ****         6.2500   7.0000  12.0000 Du        
    493 ****         6.2500   7.0000  12.2500 Du        
    494 ****         6.2500   7.0000  12.5000 Du        
    495 ****         6.2500   7.0000  12.7500 Du        
    496 ****         6.2500   7.0000  13.0000 Du        
    497 ****         6.2500   7.2500   7.7500 Du        
    498 ****         6.2500   7.2500   8.0000 Du        
    499 ****         6.2500   7.2500   8.2500 Du        
    500 ****         6.2500   7.2500   8.5000 Du        
    501 ****         6.2500   7.2500   8.7500 Du        
    502 ****         6.2500   7.2500   9.0000 Du        
    503 ****         6.2500   7.2500   9.2500 Du        
    504 ****         6.2500   7.2500   9.5000 Du        
    505 ****         6.2500   7.2500   9.7500 Du        
    506 ****         6.2500   7.2500  10.0000 Du        
    507 ****         6.2500   7.2500  10.2500 Du        
    508 ****         6.2500   7.2500  10.5000 Du        
    509 ****         6.2500   7.2500  10.7500 Du        
    510 ****         6.2500   7.2500  11.0000 Du        
    511 ****         6.2500   7.2500  11.2500 Du        
    512 ****         6.2500   7.2500  11.5000 Du        
    513 ****         6.2500   7.2500  11.7500 Du        
    514 ****         6.2500   7.2500  12.0000 Du        
    515 ****         6.2500   7.2500  12.2500 Du        
    516 ****         6.2500   7.5000   8.0000 Du        
    517 ****         6.2500   7.5000   8.2500 Du        
    518 ****         6.2500   7.5000   8.5000 Du        
    519 ****         6.2500   7.5000   8.7500 Du        
    520 ****         6.2500   7.5000   9.0000 Du        
    521 ****         6.2500   7.5000   9.2500 Du        
    522 ****         6.2500   7.5000   9.5000 Du        
    523 ****         6.2500   7.5000   9.7500 Du        
    524 ****         6.2500   7.5000  10.0000 Du        
    525 ****         6.2500   7.5000  10.2500 Du        
    526 ****         6.2500   7.5000  10.5000 Du        
    527 ****         6.2500   7.5000  10.7500 Du        
    528 ****         6.2500   7.5000  11.0000 Du        
    529 ****         6.2500   7.5000  11.2500 Du        
    530 ****         6.2500   7.5000  11.5000 Du        
    531 ****         6.2500   7.5000  11.7500 Du        
    532 ****         6.2500   7.7500   8.0000 Du        
    533 ****         6.2500   7.7500   8.2500 Du        
    534 ****         6.2500   7.7500   8.5000 Du        
    535 ****         6.2500   7.7500   8.7500 Du        
    536 ****         6.2500   7.7500   9.0000 Du        
    537 ****         6.2500   7.7500   9.2500 Du        
    538 ****         6.2500   7.7500   9.5000 Du        
    539 ****         6.2500   7.7500   9.7500 Du        
    540 ****         6.2500   7.7500  10.0000 Du        
    541 ****         6.2500   7.7500  10.2500 Du        
    542 ****         6.2500   7.7500  10.5000 Du        
    543 ****         6.2500   7.7500  10.7500 Du        
    544 ****         6.2500   7.7500  11.0000 Du        
    545 ****         6.2500   8.0000   8.5000 Du        
    546 ****         6.2500   8.0000   8.7500 Du        
    547 ****         6.2500   8.0000   9.0000 Du        
    548 ****         6.2500   8.0000   9.2500 Du        
    549 ****         6.2500   8.0000   9.5000 Du        
    550 ****         6.2500   8.0000   9.7500 Du        
    551 ****         6.2500   8.0000  10.0000 Du        
    552 ****         6.2500   8.0000  10.2500 Du        
    553 ****         6.2500   8.0000  10.5000 Du        
    554 ****         6.2500   8.0000  10.7500 Du        
    555 ****         6.2500   8.2500   8.7500 Du        
    556 ****         6.2500   8.2500   9.0000 Du        
    557 ****         6.2500   8.2500   9.2500 Du        
    558 ****         6.2500   8.2500   9.5000 Du        
    559 ****         6.2500   8.2500   9.7500 Du        
    560 ****         6.2500   8.2500  10.0000 Du        
    561 ****         6.2500   8.2500  10.2500 Du        
    562 ****         6.2500   8.5000   9.0000 Du        
    563 ****         6.2500   8.5000   9.2500 Du        
    564 ****         6.2500   8.5000   9.5000 Du        
    565 ****         6.2500   8.5000   9.7500 Du        
    566 ****         6.2500   8.5000  10.0000 Du        
    567 ****         6.2500   8.7500   9.2500 Du        
    568 ****         6.2500   8.7500   9.5000 Du        
    569 ****         6.2500   8.7500   9.7500 Du        
    570 ****         6.5000   4.7500   6.7500 Du        
    571 ****         6.5000   4.7500   7.0000 Du        
    572 ****         6.5000   5.0000   6.5000 Du        
    573 ****         6.5000   5.0000   6.7500 Du        
    574 ****         6.5000   5.0000   7.0000 Du        
    575 ****         6.5000   5.0000   7.2500 Du        
    576 ****         6.5000   5.2500   6.5000 Du        
    577 ****         6.5000   5.2500   6.7500 Du        
    578 ****         6.5000   5.2500   7.0000 Du        
    579 ****         6.5000   5.2500   7.2500 Du        
    580 ****         6.5000   5.2500   7.5000 Du        
    581 ****         6.5000   5.2500  13.0000 Du        
    582 ****         6.5000   5.5000   6.2500 Du        
    583 ****         6.5000   5.5000   6.5000 Du        
    584 ****         6.5000   5.5000   6.7500 Du        
    585 ****         6.5000   5.5000   7.0000 Du        
    586 ****         6.5000   5.5000   7.2500 Du        
    587 ****         6.5000   5.5000   7.5000 Du        
    588 ****         6.5000   5.5000   7.7500 Du        
    589 ****         6.5000   5.5000   8.0000 Du        
    590 ****         6.5000   5.5000  12.2500 Du        
    591 ****         6.5000   5.5000  12.5000 Du        
    592 ****         6.5000   5.5000  12.7500 Du        
    593 ****         6.5000   5.5000  13.0000 Du        
    594 ****         6.5000   5.5000  13.2500 Du        
    595 ****         6.5000   5.7500   6.2500 Du        
    596 ****         6.5000   5.7500   6.5000 Du        
    597 ****         6.5000   5.7500   6.7500 Du        
    598 ****         6.5000   5.7500   7.0000 Du        
    599 ****         6.5000   5.7500   7.2500 Du        
    600 ****         6.5000   5.7500   7.5000 Du        
    601 ****         6.5000   5.7500   7.7500 Du        
    602 ****         6.5000   5.7500   8.0000 Du        
    603 ****         6.5000   5.7500  12.0000 Du        
    604 ****         6.5000   5.7500  12.2500 Du        
    605 ****         6.5000   5.7500  12.5000 Du        
    606 ****         6.5000   5.7500  12.7500 Du        
    607 ****         6.5000   5.7500  13.0000 Du        
    608 ****         6.5000   5.7500  13.2500 Du        
    609 ****         6.5000   5.7500  13.5000 Du        
    610 ****         6.5000   6.0000   6.2500 Du        
    611 ****         6.5000   6.0000   6.5000 Du        
    612 ****         6.5000   6.0000   6.7500 Du        
    613 ****         6.5000   6.0000   7.0000 Du        
    614 ****         6.5000   6.0000   7.2500 Du        
    615 ****         6.5000   6.0000   7.5000 Du        
    616 ****         6.5000   6.0000   7.7500 Du        
    617 ****         6.5000   6.0000   8.0000 Du        
    618 ****         6.5000   6.0000   8.2500 Du        
    619 ****         6.5000   6.0000   8.5000 Du        
    620 ****         6.5000   6.0000  11.5000 Du        
    621 ****         6.5000   6.0000  11.7500 Du        
    622 ****         6.5000   6.0000  12.0000 Du        
    623 ****         6.5000   6.0000  12.2500 Du        
    624 ****         6.5000   6.0000  12.5000 Du        
    625 ****         6.5000   6.0000  12.7500 Du        
    626 ****         6.5000   6.0000  13.0000 Du        
    627 ****         6.5000   6.0000  13.2500 Du        
    628 ****         6.5000   6.0000  13.5000 Du        
    629 ****         6.5000   6.2500   6.2500 Du        
    630 ****         6.5000   6.2500   6.5000 Du        
    631 ****         6.5000   6.2500   6.7500 Du        
    632 ****         6.5000   6.2500   7.0000 Du        
    633 ****         6.5000   6.2500   7.2500 Du        
    634 ****         6.5000   6.2500   7.5000 Du        
    635 ****         6.5000   6.2500   7.7500 Du        
    636 ****         6.5000   6.2500   8.0000 Du        
    637 ****         6.5000   6.2500   8.2500 Du        
    638 ****         6.5000   6.2500   8.5000 Du        
    639 ****         6.5000   6.2500   8.7500 Du        
    640 ****         6.5000   6.2500   9.0000 Du        
    641 ****         6.5000   6.2500  10.2500 Du        
    642 ****         6.5000   6.2500  10.7500 Du        
    643 ****         6.5000   6.2500  11.0000 Du        
    644 ****         6.5000   6.2500  11.2500 Du        
    645 ****         6.5000   6.2500  11.5000 Du        
    646 ****         6.5000   6.2500  11.7500 Du        
    647 ****         6.5000   6.2500  12.0000 Du        
    648 ****         6.5000   6.2500  12.2500 Du        
    649 ****         6.5000   6.2500  12.5000 Du        
    650 ****         6.5000   6.2500  12.7500 Du        
    651 ****         6.5000   6.2500  13.0000 Du        
    652 ****         6.5000   6.2500  13.2500 Du        
    653 ****         6.5000   6.5000   6.5000 Du        
    654 ****         6.5000   6.5000   6.7500 Du        
    655 ****         6.5000   6.5000   7.0000 Du        
    656 ****         6.5000   6.5000   7.2500 Du        
    657 ****         6.5000   6.5000   7.5000 Du        
    658 ****         6.5000   6.5000   7.7500 Du        
    659 ****         6.5000   6.5000   8.0000 Du        
    660 ****         6.5000   6.5000   8.2500 Du        
    661 ****         6.5000   6.5000   8.5000 Du        
    662 ****         6.5000   6.5000   8.7500 Du        
    663 ****         6.5000   6.5000   9.0000 Du        
    664 ****         6.5000   6.5000   9.2500 Du        
    665 ****         6.5000   6.5000   9.5000 Du        
    666 ****         6.5000   6.5000   9.7500 Du        
    667 ****         6.5000   6.5000  10.0000 Du        
    668 ****         6.5000   6.5000  10.2500 Du        
    669 ****         6.5000   6.5000  10.5000 Du        
    670 ****         6.5000   6.5000  10.7500 Du        
    671 ****         6.5000   6.5000  11.0000 Du        
    672 ****         6.5000   6.5000  11.2500 Du        
    673 ****         6.5000   6.5000  11.5000 Du        
    674 ****         6.5000   6.5000  11.7500 Du        
    675 ****         6.5000   6.5000  12.0000 Du        
    676 ****         6.5000   6.5000  12.2500 Du        
    677 ****         6.5000   6.5000  12.5000 Du        
    678 ****         6.5000   6.5000  12.7500 Du        
    679 ****         6.5000   6.5000  13.0000 Du        
    680 ****         6.5000   6.5000  13.2500 Du        
    681 ****         6.5000   6.7500   6.7500 Du        
    682 ****         6.5000   6.7500   7.0000 Du        
    683 ****         6.5000   6.7500   7.2500 Du        
    684 ****         6.5000   6.7500   7.5000 Du        
    685 ****         6.5000   6.7500   7.7500 Du        
    686 ****         6.5000   6.7500   8.0000 Du        
    687 ****         6.5000   6.7500   8.2500 Du        
    688 ****         6.5000   6.7500   8.5000 Du        
    689 ****         6.5000   6.7500   8.7500 Du        
    690 ****         6.5000   6.7500   9.0000 Du        
    691 ****         6.5000   6.7500   9.2500 Du        
    692 ****         6.5000   6.7500   9.5000 Du        
    693 ****         6.5000   6.7500   9.7500 Du        
    694 ****         6.5000   6.7500  10.0000 Du        
    695 ****         6.5000   6.7500  10.2500 Du        
    696 ****         6.5000   6.7500  10.5000 Du        
    697 ****         6.5000   6.7500  10.7500 Du        
    698 ****         6.5000   6.7500  11.0000 Du        
    699 ****         6.5000   6.7500  11.2500 Du        
    700 ****         6.5000   6.7500  11.5000 Du        
    701 ****         6.5000   6.7500  11.7500 Du        
    702 ****         6.5000   6.7500  12.0000 Du        
    703 ****         6.5000   6.7500  12.2500 Du        
    704 ****         6.5000   6.7500  12.5000 Du        
    705 ****         6.5000   6.7500  12.7500 Du        
    706 ****         6.5000   6.7500  13.0000 Du        
    707 ****         6.5000   7.0000   7.0000 Du        
    708 ****         6.5000   7.0000   7.2500 Du        
    709 ****         6.5000   7.0000   7.5000 Du        
    710 ****         6.5000   7.0000   7.7500 Du        
    711 ****         6.5000   7.0000   8.0000 Du        
    712 ****         6.5000   7.0000   8.2500 Du        
    713 ****         6.5000   7.0000   8.5000 Du        
    714 ****         6.5000   7.0000   8.7500 Du        
    715 ****         6.5000   7.0000   9.0000 Du        
    716 ****         6.5000   7.0000   9.2500 Du        
    717 ****         6.5000   7.0000   9.5000 Du        
    718 ****         6.5000   7.0000   9.7500 Du        
    719 ****         6.5000   7.0000  10.0000 Du        
    720 ****         6.5000   7.0000  10.2500 Du        
    721 ****         6.5000   7.0000  10.5000 Du        
    722 ****         6.5000   7.0000  10.7500 Du        
    723 ****         6.5000   7.0000  11.0000 Du        
    724 ****         6.5000   7.0000  11.2500 Du        
    725 ****         6.5000   7.0000  11.5000 Du        
    726 ****         6.5000   7.0000  11.7500 Du        
    727 ****         6.5000   7.0000  12.0000 Du        
    728 ****         6.5000   7.0000  12.2500 Du        
    729 ****         6.5000   7.0000  12.5000 Du        
    730 ****         6.5000   7.0000  12.7500 Du        
    731 ****         6.5000   7.0000  13.0000 Du        
    732 ****         6.5000   7.2500   7.2500 Du        
    733 ****         6.5000   7.2500   7.5000 Du        
    734 ****         6.5000   7.2500   7.7500 Du        
    735 ****         6.5000   7.2500   8.0000 Du        
    736 ****         6.5000   7.2500   8.2500 Du        
    737 ****         6.5000   7.2500   8.5000 Du        
    738 ****         6.5000   7.2500   8.7500 Du        
    739 ****         6.5000   7.2500   9.0000 Du        
    740 ****         6.5000   7.2500   9.2500 Du        
    741 ****         6.5000   7.2500   9.5000 Du        
    742 ****         6.5000   7.2500   9.7500 Du        
    743 ****         6.5000   7.2500  10.0000 Du        
    744 ****         6.5000   7.2500  10.2500 Du        
    745 ****         6.5000   7.2500  10.5000 Du        
    746 ****         6.5000   7.2500  10.7500 Du        
    747 ****         6.5000   7.2500  11.0000 Du        
    748 ****         6.5000   7.2500  11.2500 Du        
    749 ****         6.5000   7.2500  11.5000 Du        
    750 ****         6.5000   7.2500  11.7500 Du        
    751 ****         6.5000   7.2500  12.0000 Du        
    752 ****         6.5000   7.2500  12.2500 Du        
    753 ****         6.5000   7.2500  12.5000 Du        
    754 ****         6.5000   7.5000   7.7500 Du        
    755 ****         6.5000   7.5000   8.0000 Du        
    756 ****         6.5000   7.5000   8.2500 Du        
    757 ****         6.5000   7.5000   8.5000 Du        
    758 ****         6.5000   7.5000   8.7500 Du        
    759 ****         6.5000   7.5000   9.0000 Du        
    760 ****         6.5000   7.5000   9.2500 Du        
    761 ****         6.5000   7.5000   9.5000 Du        
    762 ****         6.5000   7.5000   9.7500 Du        
    763 ****         6.5000   7.5000  10.0000 Du        
    764 ****         6.5000   7.5000  10.2500 Du        
    765 ****         6.5000   7.5000  10.5000 Du        
    766 ****         6.5000   7.5000  10.7500 Du        
    767 ****         6.5000   7.5000  11.0000 Du        
    768 ****         6.5000   7.5000  11.2500 Du        
    769 ****         6.5000   7.5000  11.5000 Du        
    770 ****         6.5000   7.5000  11.7500 Du        
    771 ****         6.5000   7.7500   8.0000 Du        
    772 ****         6.5000   7.7500   8.2500 Du        
    773 ****         6.5000   7.7500   8.5000 Du        
    774 ****         6.5000   7.7500   8.7500 Du        
    775 ****         6.5000   7.7500   9.0000 Du        
    776 ****         6.5000   7.7500   9.2500 Du        
    777 ****         6.5000   7.7500   9.5000 Du        
    778 ****         6.5000   7.7500   9.7500 Du        
    779 ****         6.5000   7.7500  10.0000 Du        
    780 ****         6.5000   7.7500  10.2500 Du        
    781 ****         6.5000   7.7500  10.5000 Du        
    782 ****         6.5000   7.7500  10.7500 Du        
    783 ****         6.5000   7.7500  11.0000 Du        
    784 ****         6.5000   7.7500  11.2500 Du        
    785 ****         6.5000   8.0000   8.2500 Du        
    786 ****         6.5000   8.0000   8.5000 Du        
    787 ****         6.5000   8.0000   8.7500 Du        
    788 ****         6.5000   8.0000   9.0000 Du        
    789 ****         6.5000   8.0000   9.2500 Du        
    790 ****         6.5000   8.0000   9.5000 Du        
    791 ****         6.5000   8.0000   9.7500 Du        
    792 ****         6.5000   8.0000  10.0000 Du        
    793 ****         6.5000   8.0000  10.2500 Du        
    794 ****         6.5000   8.0000  10.5000 Du        
    795 ****         6.5000   8.0000  10.7500 Du        
    796 ****         6.5000   8.2500   8.7500 Du        
    797 ****         6.5000   8.2500   9.0000 Du        
    798 ****         6.5000   8.2500   9.2500 Du        
    799 ****         6.5000   8.2500   9.5000 Du        
    800 ****         6.5000   8.2500   9.7500 Du        
    801 ****         6.5000   8.2500  10.0000 Du        
    802 ****         6.5000   8.2500  10.2500 Du        
    803 ****         6.5000   8.5000   9.0000 Du        
    804 ****         6.5000   8.5000   9.2500 Du        
    805 ****         6.5000   8.5000   9.5000 Du        
    806 ****         6.5000   8.5000   9.7500 Du        
    807 ****         6.5000   8.5000  10.0000 Du        
    808 ****         6.5000   8.7500   9.2500 Du        
    809 ****         6.5000   8.7500   9.5000 Du        
    810 ****         6.5000   8.7500   9.7500 Du        
    811 ****         6.7500   5.0000   6.7500 Du        
    812 ****         6.7500   5.0000   7.0000 Du        
    813 ****         6.7500   5.0000   7.2500 Du        
    814 ****         6.7500   5.0000  13.0000 Du        
    815 ****         6.7500   5.2500   6.5000 Du        
    816 ****         6.7500   5.2500   6.7500 Du        
    817 ****         6.7500   5.2500   7.0000 Du        
    818 ****         6.7500   5.2500   7.2500 Du        
    819 ****         6.7500   5.2500   7.5000 Du        
    820 ****         6.7500   5.2500   7.7500 Du        
    821 ****         6.7500   5.2500  12.7500 Du        
    822 ****         6.7500   5.2500  13.0000 Du        
    823 ****         6.7500   5.2500  13.2500 Du        
    824 ****         6.7500   5.5000   6.5000 Du        
    825 ****         6.7500   5.5000   6.7500 Du        
    826 ****         6.7500   5.5000   7.0000 Du        
    827 ****         6.7500   5.5000   7.2500 Du        
    828 ****         6.7500   5.5000   7.5000 Du        
    829 ****         6.7500   5.5000   7.7500 Du        
    830 ****         6.7500   5.5000   8.0000 Du        
    831 ****         6.7500   5.5000  12.2500 Du        
    832 ****         6.7500   5.5000  12.5000 Du        
    833 ****         6.7500   5.5000  12.7500 Du        
    834 ****         6.7500   5.5000  13.0000 Du        
    835 ****         6.7500   5.5000  13.2500 Du        
    836 ****         6.7500   5.7500   6.5000 Du        
    837 ****         6.7500   5.7500   6.7500 Du        
    838 ****         6.7500   5.7500   7.0000 Du        
    839 ****         6.7500   5.7500   7.2500 Du        
    840 ****         6.7500   5.7500   7.5000 Du        
    841 ****         6.7500   5.7500   7.7500 Du        
    842 ****         6.7500   5.7500   8.0000 Du        
    843 ****         6.7500   5.7500   8.2500 Du        
    844 ****         6.7500   5.7500   8.5000 Du        
    845 ****         6.7500   5.7500  11.7500 Du        
    846 ****         6.7500   5.7500  12.0000 Du        
    847 ****         6.7500   5.7500  12.2500 Du        
    848 ****         6.7500   5.7500  12.5000 Du        
    849 ****         6.7500   5.7500  12.7500 Du        
    850 ****         6.7500   5.7500  13.0000 Du        
    851 ****         6.7500   5.7500  13.2500 Du        
    852 ****         6.7500   5.7500  13.5000 Du        
    853 ****         6.7500   6.0000   6.2500 Du        
    854 ****         6.7500   6.0000   6.5000 Du        
    855 ****         6.7500   6.0000   6.7500 Du        
    856 ****         6.7500   6.0000   7.0000 Du        
    857 ****         6.7500   6.0000   7.2500 Du        
    858 ****         6.7500   6.0000   7.5000 Du        
    859 ****         6.7500   6.0000   7.7500 Du        
    860 ****         6.7500   6.0000   8.0000 Du        
    861 ****         6.7500   6.0000   8.2500 Du        
    862 ****         6.7500   6.0000   8.5000 Du        
    863 ****         6.7500   6.0000   8.7500 Du        
    864 ****         6.7500   6.0000  11.2500 Du        
    865 ****         6.7500   6.0000  11.5000 Du        
    866 ****         6.7500   6.0000  11.7500 Du        
    867 ****         6.7500   6.0000  12.0000 Du        
    868 ****         6.7500   6.0000  12.2500 Du        
    869 ****         6.7500   6.0000  12.5000 Du        
    870 ****         6.7500   6.0000  12.7500 Du        
    871 ****         6.7500   6.0000  13.0000 Du        
    872 ****         6.7500   6.0000  13.2500 Du        
    873 ****         6.7500   6.2500   6.5000 Du        
    874 ****         6.7500   6.2500   6.7500 Du        
    875 ****         6.7500   6.2500   7.0000 Du        
    876 ****         6.7500   6.2500   7.2500 Du        
    877 ****         6.7500   6.2500   7.5000 Du        
    878 ****         6.7500   6.2500   7.7500 Du        
    879 ****         6.7500   6.2500   8.0000 Du        
    880 ****         6.7500   6.2500   8.2500 Du        
    881 ****         6.7500   6.2500   8.5000 Du        
    882 ****         6.7500   6.2500   8.7500 Du        
    883 ****         6.7500   6.2500   9.0000 Du        
    884 ****         6.7500   6.2500   9.2500 Du        
    885 ****         6.7500   6.2500   9.7500 Du        
    886 ****         6.7500   6.2500  10.0000 Du        
    887 ****         6.7500   6.2500  10.2500 Du        
    888 ****         6.7500   6.2500  10.5000 Du        
    889 ****         6.7500   6.2500  10.7500 Du        
    890 ****         6.7500   6.2500  11.0000 Du        
    891 ****         6.7500   6.2500  11.2500 Du        
    892 ****         6.7500   6.2500  11.5000 Du        
    893 ****         6.7500   6.2500  11.7500 Du        
    894 ****         6.7500   6.2500  12.0000 Du        
    895 ****         6.7500   6.2500  12.2500 Du        
    896 ****         6.7500   6.2500  12.5000 Du        
    897 ****         6.7500   6.2500  12.7500 Du        
    898 ****         6.7500   6.2500  13.0000 Du        
    899 ****         6.7500   6.2500  13.2500 Du        
    900 ****         6.7500   6.5000   6.5000 Du        
    901 ****         6.7500   6.5000   6.7500 Du        
    902 ****         6.7500   6.5000   7.0000 Du        
    903 ****         6.7500   6.5000   7.2500 Du        
    904 ****         6.7500   6.5000   7.5000 Du        
    905 ****         6.7500   6.5000   7.7500 Du        
    906 ****         6.7500   6.5000   8.0000 Du        
    907 ****         6.7500   6.5000   8.2500 Du        
    908 ****         6.7500   6.5000   8.5000 Du        
    909 ****         6.7500   6.5000   8.7500 Du        
    910 ****         6.7500   6.5000   9.0000 Du        
    911 ****         6.7500   6.5000   9.2500 Du        
    912 ****         6.7500   6.5000   9.5000 Du        
    913 ****         6.7500   6.5000   9.7500 Du        
    914 ****         6.7500   6.5000  10.0000 Du        
    915 ****         6.7500   6.5000  10.2500 Du        
    916 ****         6.7500   6.5000  10.5000 Du        
    917 ****         6.7500   6.5000  10.7500 Du        
    918 ****         6.7500   6.5000  11.0000 Du        
    919 ****         6.7500   6.5000  11.2500 Du        
    920 ****         6.7500   6.5000  11.5000 Du        
    921 ****         6.7500   6.5000  11.7500 Du        
    922 ****         6.7500   6.5000  12.0000 Du        
    923 ****         6.7500   6.5000  12.2500 Du        
    924 ****         6.7500   6.5000  12.5000 Du        
    925 ****         6.7500   6.5000  12.7500 Du        
    926 ****         6.7500   6.5000  13.0000 Du        
    927 ****         6.7500   6.7500   6.7500 Du        
    928 ****         6.7500   6.7500   7.0000 Du        
    929 ****         6.7500   6.7500   7.2500 Du        
    930 ****         6.7500   6.7500   7.5000 Du        
    931 ****         6.7500   6.7500   7.7500 Du        
    932 ****         6.7500   6.7500   8.0000 Du        
    933 ****         6.7500   6.7500   8.2500 Du        
    934 ****         6.7500   6.7500   8.5000 Du        
    935 ****         6.7500   6.7500   8.7500 Du        
    936 ****         6.7500   6.7500   9.0000 Du        
    937 ****         6.7500   6.7500   9.2500 Du        
    938 ****         6.7500   6.7500   9.5000 Du        
    939 ****         6.7500   6.7500   9.7500 Du        
    940 ****         6.7500   6.7500  10.0000 Du        
    941 ****         6.7500   6.7500  10.2500 Du        
    942 ****         6.7500   6.7500  10.5000 Du        
    943 ****         6.7500   6.7500  10.7500 Du        
    944 ****         6.7500   6.7500  11.0000 Du        
    945 ****         6.7500   6.7500  11.2500 Du        
    946 ****         6.7500   6.7500  11.5000 Du        
    947 ****         6.7500   6.7500  11.7500 Du        
    948 ****         6.7500   6.7500  12.0000 Du        
    949 ****         6.7500   6.7500  12.2500 Du        
    950 ****         6.7500   6.7500  12.5000 Du        
    951 ****         6.7500   6.7500  12.7500 Du        
    952 ****         6.7500   6.7500  13.0000 Du        
    953 ****         6.7500   7.0000   7.0000 Du        
    954 ****         6.7500   7.0000   7.2500 Du        
    955 ****         6.7500   7.0000   7.5000 Du        
    956 ****         6.7500   7.0000   7.7500 Du        
    957 ****         6.7500   7.0000   8.0000 Du        
    958 ****         6.7500   7.0000   8.2500 Du        
    959 ****         6.7500   7.0000   8.5000 Du        
    960 ****         6.7500   7.0000   8.7500 Du        
    961 ****         6.7500   7.0000   9.0000 Du        
    962 ****         6.7500   7.0000   9.2500 Du        
    963 ****         6.7500   7.0000   9.5000 Du        
    964 ****         6.7500   7.0000   9.7500 Du        
    965 ****         6.7500   7.0000  10.0000 Du        
    966 ****         6.7500   7.0000  10.2500 Du        
    967 ****         6.7500   7.0000  10.5000 Du        
    968 ****         6.7500   7.0000  10.7500 Du        
    969 ****         6.7500   7.0000  11.0000 Du        
    970 ****         6.7500   7.0000  11.2500 Du        
    971 ****         6.7500   7.0000  11.5000 Du        
    972 ****         6.7500   7.0000  11.7500 Du        
    973 ****         6.7500   7.0000  12.0000 Du        
    974 ****         6.7500   7.0000  12.2500 Du        
    975 ****         6.7500   7.0000  12.5000 Du        
    976 ****         6.7500   7.0000  12.7500 Du        
    977 ****         6.7500   7.2500   7.2500 Du        
    978 ****         6.7500   7.2500   7.5000 Du        
    979 ****         6.7500   7.2500   7.7500 Du        
    980 ****         6.7500   7.2500   8.0000 Du        
    981 ****         6.7500   7.2500   8.2500 Du        
    982 ****         6.7500   7.2500   8.5000 Du        
    983 ****         6.7500   7.2500   8.7500 Du        
    984 ****         6.7500   7.2500   9.0000 Du        
    985 ****         6.7500   7.2500   9.2500 Du        
    986 ****         6.7500   7.2500   9.5000 Du        
    987 ****         6.7500   7.2500   9.7500 Du        
    988 ****         6.7500   7.2500  10.0000 Du        
    989 ****         6.7500   7.2500  10.2500 Du        
    990 ****         6.7500   7.2500  10.5000 Du        
    991 ****         6.7500   7.2500  10.7500 Du        
    992 ****         6.7500   7.2500  11.0000 Du        
    993 ****         6.7500   7.2500  11.2500 Du        
    994 ****         6.7500   7.2500  11.5000 Du        
    995 ****         6.7500   7.2500  11.7500 Du        
    996 ****         6.7500   7.2500  12.0000 Du        
    997 ****         6.7500   7.5000   7.5000 Du        
    998 ****         6.7500   7.5000   7.7500 Du        
    999 ****         6.7500   7.5000   8.0000 Du        
   1000 ****         6.7500   7.5000   8.2500 Du        
   1001 ****         6.7500   7.5000   8.5000 Du        
   1002 ****         6.7500   7.5000   8.7500 Du        
   1003 ****         6.7500   7.5000   9.0000 Du        
   1004 ****         6.7500   7.5000   9.2500 Du        
   1005 ****         6.7500   7.5000   9.5000 Du        
   1006 ****         6.7500   7.5000   9.7500 Du        
   1007 ****         6.7500   7.5000  10.0000 Du        
   1008 ****         6.7500   7.5000  10.2500 Du        
   1009 ****         6.7500   7.5000  10.5000 Du        
   1010 ****         6.7500   7.5000  10.7500 Du        
   1011 ****         6.7500   7.5000  11.0000 Du        
   1012 ****         6.7500   7.5000  11.2500 Du        
   1013 ****         6.7500   7.7500   8.0000 Du        
   1014 ****         6.7500   7.7500   8.2500 Du        
   1015 ****         6.7500   7.7500   8.5000 Du        
   1016 ****         6.7500   7.7500   8.7500 Du        
   1017 ****         6.7500   7.7500   9.0000 Du        
   1018 ****         6.7500   7.7500   9.2500 Du        
   1019 ****         6.7500   7.7500   9.5000 Du        
   1020 ****         6.7500   7.7500   9.7500 Du        
   1021 ****         6.7500   7.7500  10.0000 Du        
   1022 ****         6.7500   7.7500  10.2500 Du        
   1023 ****         6.7500   7.7500  10.5000 Du        
   1024 ****         6.7500   7.7500  10.7500 Du        
   1025 ****         6.7500   7.7500  11.0000 Du        
   1026 ****         6.7500   8.0000   8.2500 Du        
   1027 ****         6.7500   8.0000   8.5000 Du        
   1028 ****         6.7500   8.0000   8.7500 Du        
   1029 ****         6.7500   8.0000   9.0000 Du        
   1030 ****         6.7500   8.0000   9.2500 Du        
   1031 ****         6.7500   8.0000   9.5000 Du        
   1032 ****         6.7500   8.0000   9.7500 Du        
   1033 ****         6.7500   8.0000  10.0000 Du        
   1034 ****         6.7500   8.0000  10.2500 Du        
   1035 ****         6.7500   8.0000  10.5000 Du        
   1036 ****         6.7500   8.2500   8.5000 Du        
   1037 ****         6.7500   8.2500   8.7500 Du        
   1038 ****         6.7500   8.2500   9.0000 Du        
   1039 ****         6.7500   8.2500   9.2500 Du        
   1040 ****         6.7500   8.2500   9.5000 Du        
   1041 ****         6.7500   8.2500   9.7500 Du        
   1042 ****         6.7500   8.2500  10.0000 Du        
   1043 ****         6.7500   8.2500  10.2500 Du        
   1044 ****         6.7500   8.5000   9.0000 Du        
   1045 ****         6.7500   8.5000   9.2500 Du        
   1046 ****         6.7500   8.5000   9.5000 Du        
   1047 ****         6.7500   8.5000   9.7500 Du        
   1048 ****         6.7500   8.5000  10.0000 Du        
   1049 ****         6.7500   8.7500   9.2500 Du        
   1050 ****         6.7500   8.7500   9.5000 Du        
   1051 ****         6.7500   8.7500   9.7500 Du        
   1052 ****         7.0000   5.0000   7.0000 Du        
   1053 ****         7.0000   5.0000   7.2500 Du        
   1054 ****         7.0000   5.0000  13.0000 Du        
   1055 ****         7.0000   5.0000  13.2500 Du        
   1056 ****         7.0000   5.2500   6.7500 Du        
   1057 ****         7.0000   5.2500   7.0000 Du        
   1058 ****         7.0000   5.2500   7.2500 Du        
   1059 ****         7.0000   5.2500   7.5000 Du        
   1060 ****         7.0000   5.2500  12.7500 Du        
   1061 ****         7.0000   5.2500  13.0000 Du        
   1062 ****         7.0000   5.2500  13.2500 Du        
   1063 ****         7.0000   5.5000   6.5000 Du        
   1064 ****         7.0000   5.5000   6.7500 Du        
   1065 ****         7.0000   5.5000   7.0000 Du        
   1066 ****         7.0000   5.5000   7.2500 Du        
   1067 ****         7.0000   5.5000   7.5000 Du        
   1068 ****         7.0000   5.5000   7.7500 Du        
   1069 ****         7.0000   5.5000   8.0000 Du        
   1070 ****         7.0000   5.5000  12.2500 Du        
   1071 ****         7.0000   5.5000  12.5000 Du        
   1072 ****         7.0000   5.5000  12.7500 Du        
   1073 ****         7.0000   5.5000  13.0000 Du        
   1074 ****         7.0000   5.5000  13.2500 Du        
   1075 ****         7.0000   5.7500   6.5000 Du        
   1076 ****         7.0000   5.7500   6.7500 Du        
   1077 ****         7.0000   5.7500   7.0000 Du        
   1078 ****         7.0000   5.7500   7.2500 Du        
   1079 ****         7.0000   5.7500   7.5000 Du        
   1080 ****         7.0000   5.7500   7.7500 Du        
   1081 ****         7.0000   5.7500   8.0000 Du        
   1082 ****         7.0000   5.7500   8.2500 Du        
   1083 ****         7.0000   5.7500   8.5000 Du        
   1084 ****         7.0000   5.7500  12.0000 Du        
   1085 ****         7.0000   5.7500  12.2500 Du        
   1086 ****         7.0000   5.7500  12.5000 Du        
   1087 ****         7.0000   5.7500  12.7500 Du        
   1088 ****         7.0000   5.7500  13.0000 Du        
   1089 ****         7.0000   5.7500  13.2500 Du        
   1090 ****         7.0000   6.0000   6.5000 Du        
   1091 ****         7.0000   6.0000   6.7500 Du        
   1092 ****         7.0000   6.0000   7.0000 Du        
   1093 ****         7.0000   6.0000   7.2500 Du        
   1094 ****         7.0000   6.0000   7.5000 Du        
   1095 ****         7.0000   6.0000   7.7500 Du        
   1096 ****         7.0000   6.0000   8.0000 Du        
   1097 ****         7.0000   6.0000   8.2500 Du        
   1098 ****         7.0000   6.0000   8.5000 Du        
   1099 ****         7.0000   6.0000   8.7500 Du        
   1100 ****         7.0000   6.0000   9.0000 Du        
   1101 ****         7.0000   6.0000  11.5000 Du        
   1102 ****         7.0000   6.0000  11.7500 Du        
   1103 ****         7.0000   6.0000  12.0000 Du        
   1104 ****         7.0000   6.0000  12.2500 Du        
   1105 ****         7.0000   6.0000  12.5000 Du        
   1106 ****         7.0000   6.0000  12.7500 Du        
   1107 ****         7.0000   6.0000  13.0000 Du        
   1108 ****         7.0000   6.2500   6.5000 Du        
   1109 ****         7.0000   6.2500   6.7500 Du        
   1110 ****         7.0000   6.2500   7.0000 Du        
   1111 ****         7.0000   6.2500   7.2500 Du        
   1112 ****         7.0000   6.2500   7.5000 Du        
   1113 ****         7.0000   6.2500   7.7500 Du        
   1114 ****         7.0000   6.2500   8.0000 Du        
   1115 ****         7.0000   6.2500   8.2500 Du        
   1116 ****         7.0000   6.2500   8.5000 Du        
   1117 ****         7.0000   6.2500   8.7500 Du        
   1118 ****         7.0000   6.2500   9.0000 Du        
   1119 ****         7.0000   6.2500   9.2500 Du        
   1120 ****         7.0000   6.2500   9.5000 Du        
   1121 ****         7.0000   6.2500   9.7500 Du        
   1122 ****         7.0000   6.2500  10.0000 Du        
   1123 ****         7.0000   6.2500  10.2500 Du        
   1124 ****         7.0000   6.2500  10.7500 Du        
   1125 ****         7.0000   6.2500  11.0000 Du        
   1126 ****         7.0000   6.2500  11.2500 Du        
   1127 ****         7.0000   6.2500  11.5000 Du        
   1128 ****         7.0000   6.2500  11.7500 Du        
   1129 ****         7.0000   6.2500  12.0000 Du        
   1130 ****         7.0000   6.2500  12.2500 Du        
   1131 ****         7.0000   6.2500  12.5000 Du        
   1132 ****         7.0000   6.2500  12.7500 Du        
   1133 ****         7.0000   6.2500  13.0000 Du        
   1134 ****         7.0000   6.5000   6.5000 Du        
   1135 ****         7.0000   6.5000   6.7500 Du        
   1136 ****         7.0000   6.5000   7.0000 Du        
   1137 ****         7.0000   6.5000   7.2500 Du        
   1138 ****         7.0000   6.5000   7.5000 Du        
   1139 ****         7.0000   6.5000   7.7500 Du        
   1140 ****         7.0000   6.5000   8.0000 Du        
   1141 ****         7.0000   6.5000   8.2500 Du        
   1142 ****         7.0000   6.5000   8.5000 Du        
   1143 ****         7.0000   6.5000   8.7500 Du        
   1144 ****         7.0000   6.5000   9.0000 Du        
   1145 ****         7.0000   6.5000   9.2500 Du        
   1146 ****         7.0000   6.5000   9.5000 Du        
   1147 ****         7.0000   6.5000   9.7500 Du        
   1148 ****         7.0000   6.5000  10.0000 Du        
   1149 ****         7.0000   6.5000  10.2500 Du        
   1150 ****         7.0000   6.5000  10.5000 Du        
   1151 ****         7.0000   6.5000  10.7500 Du        
   1152 ****         7.0000   6.5000  11.0000 Du        
   1153 ****         7.0000   6.5000  11.2500 Du        
   1154 ****         7.0000   6.5000  11.5000 Du        
   1155 ****         7.0000   6.5000  11.7500 Du        
   1156 ****         7.0000   6.5000  12.0000 Du        
   1157 ****         7.0000   6.5000  12.2500 Du        
   1158 ****         7.0000   6.5000  12.5000 Du        
   1159 ****         7.0000   6.5000  12.7500 Du        
   1160 ****         7.0000   6.7500   6.7500 Du        
   1161 ****         7.0000   6.7500   7.0000 Du        
   1162 ****         7.0000   6.7500   7.2500 Du        
   1163 ****         7.0000   6.7500   7.5000 Du        
   1164 ****         7.0000   6.7500   7.7500 Du        
   1165 ****         7.0000   6.7500   8.0000 Du        
   1166 ****         7.0000   6.7500   8.2500 Du        
   1167 ****         7.0000   6.7500   8.5000 Du        
   1168 ****         7.0000   6.7500   8.7500 Du        
   1169 ****         7.0000   6.7500   9.0000 Du        
   1170 ****         7.0000   6.7500   9.2500 Du        
   1171 ****         7.0000   6.7500   9.5000 Du        
   1172 ****         7.0000   6.7500   9.7500 Du        
   1173 ****         7.0000   6.7500  10.0000 Du        
   1174 ****         7.0000   6.7500  10.2500 Du        
   1175 ****         7.0000   6.7500  10.5000 Du        
   1176 ****         7.0000   6.7500  10.7500 Du        
   1177 ****         7.0000   6.7500  11.0000 Du        
   1178 ****         7.0000   6.7500  11.2500 Du        
   1179 ****         7.0000   6.7500  11.5000 Du        
   1180 ****         7.0000   6.7500  11.7500 Du        
   1181 ****         7.0000   6.7500  12.0000 Du        
   1182 ****         7.0000   6.7500  12.2500 Du        
   1183 ****         7.0000   7.0000   7.0000 Du        
   1184 ****         7.0000   7.0000   7.2500 Du        
   1185 ****         7.0000   7.0000   7.5000 Du        
   1186 ****         7.0000   7.0000   7.7500 Du        
   1187 ****         7.0000   7.0000   8.0000 Du        
   1188 ****         7.0000   7.0000   8.2500 Du        
   1189 ****         7.0000   7.0000   8.5000 Du        
   1190 ****         7.0000   7.0000   8.7500 Du        
   1191 ****         7.0000   7.0000   9.0000 Du        
   1192 ****         7.0000   7.0000   9.2500 Du        
   1193 ****         7.0000   7.0000   9.5000 Du        
   1194 ****         7.0000   7.0000   9.7500 Du        
   1195 ****         7.0000   7.0000  10.0000 Du        
   1196 ****         7.0000   7.0000  10.2500 Du        
   1197 ****         7.0000   7.0000  10.5000 Du        
   1198 ****         7.0000   7.0000  10.7500 Du        
   1199 ****         7.0000   7.0000  11.0000 Du        
   1200 ****         7.0000   7.0000  11.2500 Du        
   1201 ****         7.0000   7.0000  11.5000 Du        
   1202 ****         7.0000   7.0000  11.7500 Du        
   1203 ****         7.0000   7.2500   7.2500 Du        
   1204 ****         7.0000   7.2500   7.5000 Du        
   1205 ****         7.0000   7.2500   7.7500 Du        
   1206 ****         7.0000   7.2500   8.0000 Du        
   1207 ****         7.0000   7.2500   8.2500 Du        
   1208 ****         7.0000   7.2500   8.5000 Du        
   1209 ****         7.0000   7.2500   8.7500 Du        
   1210 ****         7.0000   7.2500   9.0000 Du        
   1211 ****         7.0000   7.2500   9.2500 Du        
   1212 ****         7.0000   7.2500   9.5000 Du        
   1213 ****         7.0000   7.2500   9.7500 Du        
   1214 ****         7.0000   7.2500  10.0000 Du        
   1215 ****         7.0000   7.2500  10.2500 Du        
   1216 ****         7.0000   7.2500  10.5000 Du        
   1217 ****         7.0000   7.2500  10.7500 Du        
   1218 ****         7.0000   7.2500  11.0000 Du        
   1219 ****         7.0000   7.2500  11.2500 Du        
   1220 ****         7.0000   7.5000   7.5000 Du        
   1221 ****         7.0000   7.5000   7.7500 Du        
   1222 ****         7.0000   7.5000   8.0000 Du        
   1223 ****         7.0000   7.5000   8.2500 Du        
   1224 ****         7.0000   7.5000   8.5000 Du        
   1225 ****         7.0000   7.5000   8.7500 Du        
   1226 ****         7.0000   7.5000   9.0000 Du        
   1227 ****         7.0000   7.5000   9.2500 Du        
   1228 ****         7.0000   7.5000   9.5000 Du        
   1229 ****         7.0000   7.5000   9.7500 Du        
   1230 ****         7.0000   7.5000  10.0000 Du        
   1231 ****         7.0000   7.5000  10.2500 Du        
   1232 ****         7.0000   7.5000  10.5000 Du        
   1233 ****         7.0000   7.5000  10.7500 Du        
   1234 ****         7.0000   7.5000  11.0000 Du        
   1235 ****         7.0000   7.7500   7.7500 Du        
   1236 ****         7.0000   7.7500   8.0000 Du        
   1237 ****         7.0000   7.7500   8.2500 Du        
   1238 ****         7.0000   7.7500   8.5000 Du        
   1239 ****         7.0000   7.7500   8.7500 Du        
   1240 ****         7.0000   7.7500   9.0000 Du        
   1241 ****         7.0000   7.7500   9.2500 Du        
   1242 ****         7.0000   7.7500   9.5000 Du        
   1243 ****         7.0000   7.7500   9.7500 Du        
   1244 ****         7.0000   7.7500  10.0000 Du        
   1245 ****         7.0000   7.7500  10.2500 Du        
   1246 ****         7.0000   7.7500  10.5000 Du        
   1247 ****         7.0000   8.0000   8.2500 Du        
   1248 ****         7.0000   8.0000   8.5000 Du        
   1249 ****         7.0000   8.0000   8.7500 Du        
   1250 ****         7.0000   8.0000   9.0000 Du        
   1251 ****         7.0000   8.0000   9.2500 Du        
   1252 ****         7.0000   8.0000   9.5000 Du        
   1253 ****         7.0000   8.0000   9.7500 Du        
   1254 ****         7.0000   8.0000  10.0000 Du        
   1255 ****         7.0000   8.0000  10.2500 Du        
   1256 ****         7.0000   8.2500   8.5000 Du        
   1257 ****         7.0000   8.2500   8.7500 Du        
   1258 ****         7.0000   8.2500   9.0000 Du        
   1259 ****         7.0000   8.2500   9.2500 Du        
   1260 ****         7.0000   8.2500   9.5000 Du        
   1261 ****         7.0000   8.2500   9.7500 Du        
   1262 ****         7.0000   8.2500  10.0000 Du        
   1263 ****         7.0000   8.5000   9.0000 Du        
   1264 ****         7.0000   8.5000   9.2500 Du        
   1265 ****         7.0000   8.5000   9.5000 Du        
   1266 ****         7.0000   8.5000   9.7500 Du        
   1267 ****         7.0000   8.7500   9.2500 Du        
   1268 ****         7.0000   8.7500   9.5000 Du        
   1269 ****         7.2500   5.0000  13.0000 Du        
   1270 ****         7.2500   5.2500   6.7500 Du        
   1271 ****         7.2500   5.2500   7.0000 Du        
   1272 ****         7.2500   5.2500   7.2500 Du        
   1273 ****         7.2500   5.2500   7.5000 Du        
   1274 ****         7.2500   5.2500  12.7500 Du        
   1275 ****         7.2500   5.2500  13.0000 Du        
   1276 ****         7.2500   5.5000   6.7500 Du        
   1277 ****         7.2500   5.5000   7.0000 Du        
   1278 ****         7.2500   5.5000   7.2500 Du        
   1279 ****         7.2500   5.5000   7.5000 Du        
   1280 ****         7.2500   5.5000   7.7500 Du        
   1281 ****         7.2500   5.5000   8.0000 Du        
   1282 ****         7.2500   5.5000  12.5000 Du        
   1283 ****         7.2500   5.5000  12.7500 Du        
   1284 ****         7.2500   5.5000  13.0000 Du        
   1285 ****         7.2500   5.7500   6.5000 Du        
   1286 ****         7.2500   5.7500   6.7500 Du        
   1287 ****         7.2500   5.7500   7.0000 Du        
   1288 ****         7.2500   5.7500   7.2500 Du        
   1289 ****         7.2500   5.7500   7.5000 Du        
   1290 ****         7.2500   5.7500   7.7500 Du        
   1291 ****         7.2500   5.7500   8.0000 Du        
   1292 ****         7.2500   5.7500   8.2500 Du        
   1293 ****         7.2500   5.7500  12.0000 Du        
   1294 ****         7.2500   5.7500  12.2500 Du        
   1295 ****         7.2500   5.7500  12.5000 Du        
   1296 ****         7.2500   5.7500  12.7500 Du        
   1297 ****         7.2500   5.7500  13.0000 Du        
   1298 ****         7.2500   6.0000   6.5000 Du        
   1299 ****         7.2500   6.0000   6.7500 Du        
   1300 ****         7.2500   6.0000   7.0000 Du        
   1301 ****         7.2500   6.0000   7.2500 Du        
   1302 ****         7.2500   6.0000   7.5000 Du        
   1303 ****         7.2500   6.0000   7.7500 Du        
   1304 ****         7.2500   6.0000   8.0000 Du        
   1305 ****         7.2500   6.0000   8.2500 Du        
   1306 ****         7.2500   6.0000   8.5000 Du        
   1307 ****         7.2500   6.0000   8.7500 Du        
   1308 ****         7.2500   6.0000   9.0000 Du        
   1309 ****         7.2500   6.0000  11.7500 Du        
   1310 ****         7.2500   6.0000  12.0000 Du        
   1311 ****         7.2500   6.0000  12.2500 Du        
   1312 ****         7.2500   6.0000  12.5000 Du        
   1313 ****         7.2500   6.0000  12.7500 Du        
   1314 ****         7.2500   6.2500   6.5000 Du        
   1315 ****         7.2500   6.2500   6.7500 Du        
   1316 ****         7.2500   6.2500   7.0000 Du        
   1317 ****         7.2500   6.2500   7.2500 Du        
   1318 ****         7.2500   6.2500   7.5000 Du        
   1319 ****         7.2500   6.2500   7.7500 Du        
   1320 ****         7.2500   6.2500   8.0000 Du        
   1321 ****         7.2500   6.2500   8.2500 Du        
   1322 ****         7.2500   6.2500   8.5000 Du        
   1323 ****         7.2500   6.2500   8.7500 Du        
   1324 ****         7.2500   6.2500   9.0000 Du        
   1325 ****         7.2500   6.2500   9.2500 Du        
   1326 ****         7.2500   6.2500  11.5000 Du        
   1327 ****         7.2500   6.2500  11.7500 Du        
   1328 ****         7.2500   6.2500  12.0000 Du        
   1329 ****         7.2500   6.2500  12.2500 Du        
   1330 ****         7.2500   6.5000   6.5000 Du        
   1331 ****         7.2500   6.5000   6.7500 Du        
   1332 ****         7.2500   6.5000   7.0000 Du        
   1333 ****         7.2500   6.5000   7.2500 Du        
   1334 ****         7.2500   6.5000   7.5000 Du        
   1335 ****         7.2500   6.5000   7.7500 Du        
   1336 ****         7.2500   6.5000   8.0000 Du        
   1337 ****         7.2500   6.5000   8.2500 Du        
   1338 ****         7.2500   6.5000   8.5000 Du        
   1339 ****         7.2500   6.5000   8.7500 Du        
   1340 ****         7.2500   6.5000   9.0000 Du        
   1341 ****         7.2500   6.5000   9.2500 Du        
   1342 ****         7.2500   6.5000   9.5000 Du        
   1343 ****         7.2500   6.5000   9.7500 Du        
   1344 ****         7.2500   6.5000  10.0000 Du        
   1345 ****         7.2500   6.5000  10.2500 Du        
   1346 ****         7.2500   6.5000  10.5000 Du        
   1347 ****         7.2500   6.5000  10.7500 Du        
   1348 ****         7.2500   6.5000  11.0000 Du        
   1349 ****         7.2500   6.5000  11.2500 Du        
   1350 ****         7.2500   6.5000  11.5000 Du        
   1351 ****         7.2500   6.7500   6.7500 Du        
   1352 ****         7.2500   6.7500   7.0000 Du        
   1353 ****         7.2500   6.7500   7.2500 Du        
   1354 ****         7.2500   6.7500   7.5000 Du        
   1355 ****         7.2500   6.7500   7.7500 Du        
   1356 ****         7.2500   6.7500   8.0000 Du        
   1357 ****         7.2500   6.7500   8.2500 Du        
   1358 ****         7.2500   6.7500   8.5000 Du        
   1359 ****         7.2500   6.7500   8.7500 Du        
   1360 ****         7.2500   6.7500   9.0000 Du        
   1361 ****         7.2500   6.7500   9.2500 Du        
   1362 ****         7.2500   6.7500   9.5000 Du        
   1363 ****         7.2500   6.7500   9.7500 Du        
   1364 ****         7.2500   6.7500  10.0000 Du        
   1365 ****         7.2500   6.7500  10.2500 Du        
   1366 ****         7.2500   6.7500  10.5000 Du        
   1367 ****         7.2500   6.7500  10.7500 Du        
   1368 ****         7.2500   6.7500  11.0000 Du        
   1369 ****         7.2500   6.7500  11.2500 Du        
   1370 ****         7.2500   7.0000   7.0000 Du        
   1371 ****         7.2500   7.0000   7.2500 Du        
   1372 ****         7.2500   7.0000   7.5000 Du        
   1373 ****         7.2500   7.0000   7.7500 Du        
   1374 ****         7.2500   7.0000   8.0000 Du        
   1375 ****         7.2500   7.0000   8.2500 Du        
   1376 ****         7.2500   7.0000   8.5000 Du        
   1377 ****         7.2500   7.0000   8.7500 Du        
   1378 ****         7.2500   7.0000   9.0000 Du        
   1379 ****         7.2500   7.0000   9.2500 Du        
   1380 ****         7.2500   7.0000   9.5000 Du        
   1381 ****         7.2500   7.0000   9.7500 Du        
   1382 ****         7.2500   7.0000  10.0000 Du        
   1383 ****         7.2500   7.0000  10.2500 Du        
   1384 ****         7.2500   7.0000  10.5000 Du        
   1385 ****         7.2500   7.0000  10.7500 Du        
   1386 ****         7.2500   7.0000  11.0000 Du        
   1387 ****         7.2500   7.2500   7.2500 Du        
   1388 ****         7.2500   7.2500   7.5000 Du        
   1389 ****         7.2500   7.2500   7.7500 Du        
   1390 ****         7.2500   7.2500   8.0000 Du        
   1391 ****         7.2500   7.2500   8.2500 Du        
   1392 ****         7.2500   7.2500   8.5000 Du        
   1393 ****         7.2500   7.2500   8.7500 Du        
   1394 ****         7.2500   7.2500   9.0000 Du        
   1395 ****         7.2500   7.2500   9.2500 Du        
   1396 ****         7.2500   7.2500   9.5000 Du        
   1397 ****         7.2500   7.2500   9.7500 Du        
   1398 ****         7.2500   7.2500  10.0000 Du        
   1399 ****         7.2500   7.2500  10.2500 Du        
   1400 ****         7.2500   7.2500  10.5000 Du        
   1401 ****         7.2500   7.2500  10.7500 Du        
   1402 ****         7.2500   7.5000   7.5000 Du        
   1403 ****         7.2500   7.5000   7.7500 Du        
   1404 ****         7.2500   7.5000   8.0000 Du        
   1405 ****         7.2500   7.5000   8.2500 Du        
   1406 ****         7.2500   7.5000   8.5000 Du        
   1407 ****         7.2500   7.5000   8.7500 Du        
   1408 ****         7.2500   7.5000   9.0000 Du        
   1409 ****         7.2500   7.5000   9.2500 Du        
   1410 ****         7.2500   7.5000   9.5000 Du        
   1411 ****         7.2500   7.5000   9.7500 Du        
   1412 ****         7.2500   7.5000  10.0000 Du        
   1413 ****         7.2500   7.5000  10.2500 Du        
   1414 ****         7.2500   7.5000  10.5000 Du        
   1415 ****         7.2500   7.7500   7.7500 Du        
   1416 ****         7.2500   7.7500   8.0000 Du        
   1417 ****         7.2500   7.7500   8.2500 Du        
   1418 ****         7.2500   7.7500   8.5000 Du        
   1419 ****         7.2500   7.7500   8.7500 Du        
   1420 ****         7.2500   7.7500   9.0000 Du        
   1421 ****         7.2500   7.7500   9.2500 Du        
   1422 ****         7.2500   7.7500   9.5000 Du        
   1423 ****         7.2500   7.7500   9.7500 Du        
   1424 ****         7.2500   7.7500  10.0000 Du        
   1425 ****         7.2500   7.7500  10.2500 Du        
   1426 ****         7.2500   8.0000   8.0000 Du        
   1427 ****         7.2500   8.0000   8.2500 Du        
   1428 ****         7.2500   8.0000   8.5000 Du        
   1429 ****         7.2500   8.0000   8.7500 Du        
   1430 ****         7.2500   8.0000   9.0000 Du        
   1431 ****         7.2500   8.0000   9.2500 Du        
   1432 ****         7.2500   8.0000   9.5000 Du        
   1433 ****         7.2500   8.0000   9.7500 Du        
   1434 ****         7.2500   8.0000  10.0000 Du        
   1435 ****         7.2500   8.0000  10.2500 Du        
   1436 ****         7.2500   8.2500   8.5000 Du        
   1437 ****         7.2500   8.2500   8.7500 Du        
   1438 ****         7.2500   8.2500   9.0000 Du        
   1439 ****         7.2500   8.2500   9.2500 Du        
   1440 ****         7.2500   8.2500   9.5000 Du        
   1441 ****         7.2500   8.2500   9.7500 Du        
   1442 ****         7.2500   8.2500  10.0000 Du        
   1443 ****         7.2500   8.5000   8.7500 Du        
   1444 ****         7.2500   8.5000   9.0000 Du        
   1445 ****         7.2500   8.5000   9.2500 Du        
   1446 ****         7.2500   8.5000   9.5000 Du        
   1447 ****         7.2500   8.7500   9.2500 Du        
   1448 ****         7.5000   5.2500   7.0000 Du        
   1449 ****         7.5000   5.2500   7.2500 Du        
   1450 ****         7.5000   5.5000   6.7500 Du        
   1451 ****         7.5000   5.5000   7.0000 Du        
   1452 ****         7.5000   5.5000   7.2500 Du        
   1453 ****         7.5000   5.5000   7.5000 Du        
   1454 ****         7.5000   5.5000   7.7500 Du        
   1455 ****         7.5000   5.5000  12.7500 Du        
   1456 ****         7.5000   5.7500   6.7500 Du        
   1457 ****         7.5000   5.7500   7.0000 Du        
   1458 ****         7.5000   5.7500   7.2500 Du        
   1459 ****         7.5000   5.7500   7.5000 Du        
   1460 ****         7.5000   5.7500   7.7500 Du        
   1461 ****         7.5000   5.7500   8.0000 Du        
   1462 ****         7.5000   5.7500   8.2500 Du        
   1463 ****         7.5000   5.7500  12.5000 Du        
   1464 ****         7.5000   6.0000   6.5000 Du        
   1465 ****         7.5000   6.0000   6.7500 Du        
   1466 ****         7.5000   6.0000   7.0000 Du        
   1467 ****         7.5000   6.0000   7.2500 Du        
   1468 ****         7.5000   6.0000   7.5000 Du        
   1469 ****         7.5000   6.0000   7.7500 Du        
   1470 ****         7.5000   6.0000   8.0000 Du        
   1471 ****         7.5000   6.0000   8.2500 Du        
   1472 ****         7.5000   6.0000   8.5000 Du        
   1473 ****         7.5000   6.0000   8.7500 Du        
   1474 ****         7.5000   6.2500   6.5000 Du        
   1475 ****         7.5000   6.2500   6.7500 Du        
   1476 ****         7.5000   6.2500   7.0000 Du        
   1477 ****         7.5000   6.2500   7.2500 Du        
   1478 ****         7.5000   6.2500   7.5000 Du        
   1479 ****         7.5000   6.2500   7.7500 Du        
   1480 ****         7.5000   6.2500   8.0000 Du        
   1481 ****         7.5000   6.2500   8.2500 Du        
   1482 ****         7.5000   6.2500   8.5000 Du        
   1483 ****         7.5000   6.2500   8.7500 Du        
   1484 ****         7.5000   6.2500   9.0000 Du        
   1485 ****         7.5000   6.2500   9.2500 Du        
   1486 ****         7.5000   6.5000   6.5000 Du        
   1487 ****         7.5000   6.5000   6.7500 Du        
   1488 ****         7.5000   6.5000   7.0000 Du        
   1489 ****         7.5000   6.5000   7.2500 Du        
   1490 ****         7.5000   6.5000   7.5000 Du        
   1491 ****         7.5000   6.5000   7.7500 Du        
   1492 ****         7.5000   6.5000   8.0000 Du        
   1493 ****         7.5000   6.5000   8.2500 Du        
   1494 ****         7.5000   6.5000   8.5000 Du        
   1495 ****         7.5000   6.5000   8.7500 Du        
   1496 ****         7.5000   6.5000   9.0000 Du        
   1497 ****         7.5000   6.5000   9.2500 Du        
   1498 ****         7.5000   6.5000   9.5000 Du        
   1499 ****         7.5000   6.5000   9.7500 Du        
   1500 ****         7.5000   6.5000  10.0000 Du        
   1501 ****         7.5000   6.5000  10.2500 Du        
   1502 ****         7.5000   6.5000  10.5000 Du        
   1503 ****         7.5000   6.7500   6.7500 Du        
   1504 ****         7.5000   6.7500   7.0000 Du        
   1505 ****         7.5000   6.7500   7.2500 Du        
   1506 ****         7.5000   6.7500   7.5000 Du        
   1507 ****         7.5000   6.7500   7.7500 Du        
   1508 ****         7.5000   6.7500   8.0000 Du        
   1509 ****         7.5000   6.7500   8.2500 Du        
   1510 ****         7.5000   6.7500   8.5000 Du        
   1511 ****         7.5000   6.7500   8.7500 Du        
   1512 ****         7.5000   6.7500   9.0000 Du        
   1513 ****         7.5000   6.7500   9.2500 Du        
   1514 ****         7.5000   6.7500   9.5000 Du        
   1515 ****         7.5000   6.7500   9.7500 Du        
   1516 ****         7.5000   6.7500  10.0000 Du        
   1517 ****         7.5000   6.7500  10.2500 Du        
   1518 ****         7.5000   6.7500  10.5000 Du        
   1519 ****         7.5000   6.7500  10.7500 Du        
   1520 ****         7.5000   7.0000   7.0000 Du        
   1521 ****         7.5000   7.0000   7.2500 Du        
   1522 ****         7.5000   7.0000   7.5000 Du        
   1523 ****         7.5000   7.0000   7.7500 Du        
   1524 ****         7.5000   7.0000   8.0000 Du        
   1525 ****         7.5000   7.0000   8.2500 Du        
   1526 ****         7.5000   7.0000   8.5000 Du        
   1527 ****         7.5000   7.0000   8.7500 Du        
   1528 ****         7.5000   7.0000   9.0000 Du        
   1529 ****         7.5000   7.0000   9.2500 Du        
   1530 ****         7.5000   7.0000   9.5000 Du        
   1531 ****         7.5000   7.0000   9.7500 Du        
   1532 ****         7.5000   7.0000  10.0000 Du        
   1533 ****         7.5000   7.0000  10.2500 Du        
   1534 ****         7.5000   7.0000  10.5000 Du        
   1535 ****         7.5000   7.0000  10.7500 Du        
   1536 ****         7.5000   7.2500   7.2500 Du        
   1537 ****         7.5000   7.2500   7.5000 Du        
   1538 ****         7.5000   7.2500   7.7500 Du        
   1539 ****         7.5000   7.2500   8.0000 Du        
   1540 ****         7.5000   7.2500   8.2500 Du        
   1541 ****         7.5000   7.2500   8.5000 Du        
   1542 ****         7.5000   7.2500   8.7500 Du        
   1543 ****         7.5000   7.2500   9.0000 Du        
   1544 ****         7.5000   7.2500   9.2500 Du        
   1545 ****         7.5000   7.2500   9.5000 Du        
   1546 ****         7.5000   7.2500   9.7500 Du        
   1547 ****         7.5000   7.2500  10.0000 Du        
   1548 ****         7.5000   7.2500  10.2500 Du        
   1549 ****         7.5000   7.2500  10.5000 Du        
   1550 ****         7.5000   7.5000   7.5000 Du        
   1551 ****         7.5000   7.5000   7.7500 Du        
   1552 ****         7.5000   7.5000   8.0000 Du        
   1553 ****         7.5000   7.5000   8.2500 Du        
   1554 ****         7.5000   7.5000   8.5000 Du        
   1555 ****         7.5000   7.5000   8.7500 Du        
   1556 ****         7.5000   7.5000   9.0000 Du        
   1557 ****         7.5000   7.5000   9.2500 Du        
   1558 ****         7.5000   7.5000   9.5000 Du        
   1559 ****         7.5000   7.5000   9.7500 Du        
   1560 ****         7.5000   7.5000  10.0000 Du        
   1561 ****         7.5000   7.5000  10.2500 Du        
   1562 ****         7.5000   7.7500   7.7500 Du        
   1563 ****         7.5000   7.7500   8.0000 Du        
   1564 ****         7.5000   7.7500   8.2500 Du        
   1565 ****         7.5000   7.7500   8.5000 Du        
   1566 ****         7.5000   7.7500   8.7500 Du        
   1567 ****         7.5000   7.7500   9.0000 Du        
   1568 ****         7.5000   7.7500   9.2500 Du        
   1569 ****         7.5000   7.7500   9.5000 Du        
   1570 ****         7.5000   7.7500   9.7500 Du        
   1571 ****         7.5000   7.7500  10.0000 Du        
   1572 ****         7.5000   7.7500  10.2500 Du        
   1573 ****         7.5000   8.0000   8.0000 Du        
   1574 ****         7.5000   8.0000   8.2500 Du        
   1575 ****         7.5000   8.0000   8.5000 Du        
   1576 ****         7.5000   8.0000   8.7500 Du        
   1577 ****         7.5000   8.0000   9.0000 Du        
   1578 ****         7.5000   8.0000   9.2500 Du        
   1579 ****         7.5000   8.0000   9.5000 Du        
   1580 ****         7.5000   8.0000   9.7500 Du        
   1581 ****         7.5000   8.0000  10.0000 Du        
   1582 ****         7.5000   8.2500   8.2500 Du        
   1583 ****         7.5000   8.2500   8.5000 Du        
   1584 ****         7.5000   8.2500   8.7500 Du        
   1585 ****         7.5000   8.2500   9.0000 Du        
   1586 ****         7.5000   8.2500   9.2500 Du        
   1587 ****         7.5000   8.2500   9.5000 Du        
   1588 ****         7.5000   8.2500   9.7500 Du        
   1589 ****         7.5000   8.5000   8.7500 Du        
   1590 ****         7.5000   8.5000   9.0000 Du        
   1591 ****         7.5000   8.5000   9.2500 Du        
   1592 ****         7.5000   8.5000   9.5000 Du        
   1593 ****         7.5000   8.7500   9.2500 Du        
   1594 ****         7.5000  13.0000  17.0000 Du        
   1595 ****         7.5000  13.0000  17.2500 Du        
   1596 ****         7.7500   5.5000   6.7500 Du        
   1597 ****         7.7500   5.5000   7.0000 Du        
   1598 ****         7.7500   5.5000   7.2500 Du        
   1599 ****         7.7500   5.5000   7.5000 Du        
   1600 ****         7.7500   5.5000   7.7500 Du        
   1601 ****         7.7500   5.7500   6.7500 Du        
   1602 ****         7.7500   5.7500   7.0000 Du        
   1603 ****         7.7500   5.7500   7.2500 Du        
   1604 ****         7.7500   5.7500   7.5000 Du        
   1605 ****         7.7500   5.7500   7.7500 Du        
   1606 ****         7.7500   5.7500   8.0000 Du        
   1607 ****         7.7500   5.7500   8.2500 Du        
   1608 ****         7.7500   6.0000   6.7500 Du        
   1609 ****         7.7500   6.0000   7.0000 Du        
   1610 ****         7.7500   6.0000   7.2500 Du        
   1611 ****         7.7500   6.0000   7.5000 Du        
   1612 ****         7.7500   6.0000   7.7500 Du        
   1613 ****         7.7500   6.0000   8.0000 Du        
   1614 ****         7.7500   6.0000   8.2500 Du        
   1615 ****         7.7500   6.0000   8.5000 Du        
   1616 ****         7.7500   6.2500   6.7500 Du        
   1617 ****         7.7500   6.2500   7.0000 Du        
   1618 ****         7.7500   6.2500   7.2500 Du        
   1619 ****         7.7500   6.2500   7.5000 Du        
   1620 ****         7.7500   6.2500   7.7500 Du        
   1621 ****         7.7500   6.2500   8.0000 Du        
   1622 ****         7.7500   6.2500   8.2500 Du        
   1623 ****         7.7500   6.2500   8.5000 Du        
   1624 ****         7.7500   6.2500   8.7500 Du        
   1625 ****         7.7500   6.2500   9.0000 Du        
   1626 ****         7.7500   6.5000   6.7500 Du        
   1627 ****         7.7500   6.5000   7.0000 Du        
   1628 ****         7.7500   6.5000   7.2500 Du        
   1629 ****         7.7500   6.5000   7.5000 Du        
   1630 ****         7.7500   6.5000   7.7500 Du        
   1631 ****         7.7500   6.5000   8.0000 Du        
   1632 ****         7.7500   6.5000   8.2500 Du        
   1633 ****         7.7500   6.5000   8.5000 Du        
   1634 ****         7.7500   6.5000   8.7500 Du        
   1635 ****         7.7500   6.5000   9.0000 Du        
   1636 ****         7.7500   6.5000   9.2500 Du        
   1637 ****         7.7500   6.5000   9.5000 Du        
   1638 ****         7.7500   6.5000   9.7500 Du        
   1639 ****         7.7500   6.7500   6.7500 Du        
   1640 ****         7.7500   6.7500   7.0000 Du        
   1641 ****         7.7500   6.7500   7.2500 Du        
   1642 ****         7.7500   6.7500   7.5000 Du        
   1643 ****         7.7500   6.7500   7.7500 Du        
   1644 ****         7.7500   6.7500   8.0000 Du        
   1645 ****         7.7500   6.7500   8.2500 Du        
   1646 ****         7.7500   6.7500   8.5000 Du        
   1647 ****         7.7500   6.7500   8.7500 Du        
   1648 ****         7.7500   6.7500   9.0000 Du        
   1649 ****         7.7500   6.7500   9.2500 Du        
   1650 ****         7.7500   6.7500   9.5000 Du        
   1651 ****         7.7500   6.7500   9.7500 Du        
   1652 ****         7.7500   6.7500  10.0000 Du        
   1653 ****         7.7500   6.7500  10.2500 Du        
   1654 ****         7.7500   7.0000   7.0000 Du        
   1655 ****         7.7500   7.0000   7.2500 Du        
   1656 ****         7.7500   7.0000   7.5000 Du        
   1657 ****         7.7500   7.0000   7.7500 Du        
   1658 ****         7.7500   7.0000   8.0000 Du        
   1659 ****         7.7500   7.0000   8.2500 Du        
   1660 ****         7.7500   7.0000   8.5000 Du        
   1661 ****         7.7500   7.0000   8.7500 Du        
   1662 ****         7.7500   7.0000   9.0000 Du        
   1663 ****         7.7500   7.0000   9.2500 Du        
   1664 ****         7.7500   7.0000   9.5000 Du        
   1665 ****         7.7500   7.0000   9.7500 Du        
   1666 ****         7.7500   7.0000  10.0000 Du        
   1667 ****         7.7500   7.0000  10.2500 Du        
   1668 ****         7.7500   7.2500   7.2500 Du        
   1669 ****         7.7500   7.2500   7.5000 Du        
   1670 ****         7.7500   7.2500   7.7500 Du        
   1671 ****         7.7500   7.2500   8.0000 Du        
   1672 ****         7.7500   7.2500   8.2500 Du        
   1673 ****         7.7500   7.2500   8.5000 Du        
   1674 ****         7.7500   7.2500   8.7500 Du        
   1675 ****         7.7500   7.2500   9.0000 Du        
   1676 ****         7.7500   7.2500   9.2500 Du        
   1677 ****         7.7500   7.2500   9.5000 Du        
   1678 ****         7.7500   7.2500   9.7500 Du        
   1679 ****         7.7500   7.2500  10.0000 Du        
   1680 ****         7.7500   7.2500  10.2500 Du        
   1681 ****         7.7500   7.5000   7.5000 Du        
   1682 ****         7.7500   7.5000   7.7500 Du        
   1683 ****         7.7500   7.5000   8.0000 Du        
   1684 ****         7.7500   7.5000   8.2500 Du        
   1685 ****         7.7500   7.5000   8.5000 Du        
   1686 ****         7.7500   7.5000   8.7500 Du        
   1687 ****         7.7500   7.5000   9.0000 Du        
   1688 ****         7.7500   7.5000   9.2500 Du        
   1689 ****         7.7500   7.5000   9.5000 Du        
   1690 ****         7.7500   7.5000   9.7500 Du        
   1691 ****         7.7500   7.5000  10.0000 Du        
   1692 ****         7.7500   7.5000  10.2500 Du        
   1693 ****         7.7500   7.7500   7.7500 Du        
   1694 ****         7.7500   7.7500   8.0000 Du        
   1695 ****         7.7500   7.7500   8.2500 Du        
   1696 ****         7.7500   7.7500   8.5000 Du        
   1697 ****         7.7500   7.7500   8.7500 Du        
   1698 ****         7.7500   7.7500   9.0000 Du        
   1699 ****         7.7500   7.7500   9.2500 Du        
   1700 ****         7.7500   7.7500   9.5000 Du        
   1701 ****         7.7500   7.7500   9.7500 Du        
   1702 ****         7.7500   7.7500  10.0000 Du        
   1703 ****         7.7500   8.0000   7.7500 Du        
   1704 ****         7.7500   8.0000   8.0000 Du        
   1705 ****         7.7500   8.0000   8.2500 Du        
   1706 ****         7.7500   8.0000   8.5000 Du        
   1707 ****         7.7500   8.0000   8.7500 Du        
   1708 ****         7.7500   8.0000   9.0000 Du        
   1709 ****         7.7500   8.0000   9.2500 Du        
   1710 ****         7.7500   8.0000   9.5000 Du        
   1711 ****         7.7500   8.0000   9.7500 Du        
   1712 ****         7.7500   8.2500   8.2500 Du        
   1713 ****         7.7500   8.2500   8.5000 Du        
   1714 ****         7.7500   8.2500   8.7500 Du        
   1715 ****         7.7500   8.2500   9.0000 Du        
   1716 ****         7.7500   8.2500   9.2500 Du        
   1717 ****         7.7500   8.2500   9.5000 Du        
   1718 ****         7.7500   8.5000   8.7500 Du        
   1719 ****         7.7500   8.5000   9.0000 Du        
   1720 ****         7.7500   8.5000   9.2500 Du        
   1721 ****         7.7500  13.0000  17.0000 Du        
   1722 ****         7.7500  13.0000  17.2500 Du        
   1723 ****         7.7500  13.2500  16.7500 Du        
   1724 ****         7.7500  13.2500  17.0000 Du        
   1725 ****         7.7500  13.2500  17.2500 Du        
   1726 ****         8.0000   5.5000   7.0000 Du        
   1727 ****         8.0000   5.5000   7.2500 Du        
   1728 ****         8.0000   5.7500   7.0000 Du        
   1729 ****         8.0000   5.7500   7.2500 Du        
   1730 ****         8.0000   5.7500   7.5000 Du        
   1731 ****         8.0000   5.7500   7.7500 Du        
   1732 ****         8.0000   5.7500   8.0000 Du        
   1733 ****         8.0000   6.0000   6.7500 Du        
   1734 ****         8.0000   6.0000   7.0000 Du        
   1735 ****         8.0000   6.0000   7.2500 Du        
   1736 ****         8.0000   6.0000   7.5000 Du        
   1737 ****         8.0000   6.0000   7.7500 Du        
   1738 ****         8.0000   6.0000   8.0000 Du        
   1739 ****         8.0000   6.0000   8.2500 Du        
   1740 ****         8.0000   6.2500   6.7500 Du        
   1741 ****         8.0000   6.2500   7.0000 Du        
   1742 ****         8.0000   6.2500   7.2500 Du        
   1743 ****         8.0000   6.2500   7.5000 Du        
   1744 ****         8.0000   6.2500   7.7500 Du        
   1745 ****         8.0000   6.2500   8.0000 Du        
   1746 ****         8.0000   6.2500   8.2500 Du        
   1747 ****         8.0000   6.2500   8.5000 Du        
   1748 ****         8.0000   6.2500   8.7500 Du        
   1749 ****         8.0000   6.5000   7.0000 Du        
   1750 ****         8.0000   6.5000   7.2500 Du        
   1751 ****         8.0000   6.5000   7.5000 Du        
   1752 ****         8.0000   6.5000   7.7500 Du        
   1753 ****         8.0000   6.5000   8.0000 Du        
   1754 ****         8.0000   6.5000   8.2500 Du        
   1755 ****         8.0000   6.5000   8.5000 Du        
   1756 ****         8.0000   6.5000   8.7500 Du        
   1757 ****         8.0000   6.5000   9.0000 Du        
   1758 ****         8.0000   6.5000   9.2500 Du        
   1759 ****         8.0000   6.7500   7.0000 Du        
   1760 ****         8.0000   6.7500   7.2500 Du        
   1761 ****         8.0000   6.7500   7.5000 Du        
   1762 ****         8.0000   6.7500   7.7500 Du        
   1763 ****         8.0000   6.7500   8.0000 Du        
   1764 ****         8.0000   6.7500   8.2500 Du        
   1765 ****         8.0000   6.7500   8.5000 Du        
   1766 ****         8.0000   6.7500   8.7500 Du        
   1767 ****         8.0000   6.7500   9.0000 Du        
   1768 ****         8.0000   6.7500   9.2500 Du        
   1769 ****         8.0000   6.7500   9.5000 Du        
   1770 ****         8.0000   6.7500   9.7500 Du        
   1771 ****         8.0000   7.0000   7.2500 Du        
   1772 ****         8.0000   7.0000   7.5000 Du        
   1773 ****         8.0000   7.0000   7.7500 Du        
   1774 ****         8.0000   7.0000   8.0000 Du        
   1775 ****         8.0000   7.0000   8.2500 Du        
   1776 ****         8.0000   7.0000   8.5000 Du        
   1777 ****         8.0000   7.0000   8.7500 Du        
   1778 ****         8.0000   7.0000   9.0000 Du        
   1779 ****         8.0000   7.0000   9.2500 Du        
   1780 ****         8.0000   7.0000   9.5000 Du        
   1781 ****         8.0000   7.0000   9.7500 Du        
   1782 ****         8.0000   7.0000  10.0000 Du        
   1783 ****         8.0000   7.2500   7.5000 Du        
   1784 ****         8.0000   7.2500   7.7500 Du        
   1785 ****         8.0000   7.2500   8.0000 Du        
   1786 ****         8.0000   7.2500   8.2500 Du        
   1787 ****         8.0000   7.2500   8.5000 Du        
   1788 ****         8.0000   7.2500   8.7500 Du        
   1789 ****         8.0000   7.2500   9.0000 Du        
   1790 ****         8.0000   7.2500   9.2500 Du        
   1791 ****         8.0000   7.2500   9.5000 Du        
   1792 ****         8.0000   7.2500   9.7500 Du        
   1793 ****         8.0000   7.2500  10.0000 Du        
   1794 ****         8.0000   7.5000   7.5000 Du        
   1795 ****         8.0000   7.5000   7.7500 Du        
   1796 ****         8.0000   7.5000   8.0000 Du        
   1797 ****         8.0000   7.5000   8.2500 Du        
   1798 ****         8.0000   7.5000   8.5000 Du        
   1799 ****         8.0000   7.5000   8.7500 Du        
   1800 ****         8.0000   7.5000   9.0000 Du        
   1801 ****         8.0000   7.5000   9.2500 Du        
   1802 ****         8.0000   7.5000   9.5000 Du        
   1803 ****         8.0000   7.5000   9.7500 Du        
   1804 ****         8.0000   7.5000  10.0000 Du        
   1805 ****         8.0000   7.7500   7.7500 Du        
   1806 ****         8.0000   7.7500   8.0000 Du        
   1807 ****         8.0000   7.7500   8.2500 Du        
   1808 ****         8.0000   7.7500   8.5000 Du        
   1809 ****         8.0000   7.7500   8.7500 Du        
   1810 ****         8.0000   7.7500   9.0000 Du        
   1811 ****         8.0000   7.7500   9.2500 Du        
   1812 ****         8.0000   7.7500   9.5000 Du        
   1813 ****         8.0000   7.7500   9.7500 Du        
   1814 ****         8.0000   8.0000   8.0000 Du        
   1815 ****         8.0000   8.0000   8.2500 Du        
   1816 ****         8.0000   8.0000   8.5000 Du        
   1817 ****         8.0000   8.0000   8.7500 Du        
   1818 ****         8.0000   8.0000   9.0000 Du        
   1819 ****         8.0000   8.0000   9.2500 Du        
   1820 ****         8.0000   8.0000   9.5000 Du        
   1821 ****         8.0000   8.0000   9.7500 Du        
   1822 ****         8.0000   8.2500   8.2500 Du        
   1823 ****         8.0000   8.2500   8.5000 Du        
   1824 ****         8.0000   8.2500   8.7500 Du        
   1825 ****         8.0000   8.2500   9.0000 Du        
   1826 ****         8.0000   8.2500   9.2500 Du        
   1827 ****         8.0000   8.5000   8.7500 Du        
   1828 ****         8.0000   8.5000   9.0000 Du        
   1829 ****         8.0000  13.0000  17.0000 Du        
   1830 ****         8.0000  13.0000  17.2500 Du        
   1831 ****         8.0000  13.2500  16.7500 Du        
   1832 ****         8.0000  13.2500  17.0000 Du        
   1833 ****         8.0000  13.2500  17.2500 Du        
   1834 ****         8.2500   6.0000   7.2500 Du        
   1835 ****         8.2500   6.0000   7.5000 Du        
   1836 ****         8.2500   6.0000   7.7500 Du        
   1837 ****         8.2500   6.0000   8.0000 Du        
   1838 ****         8.2500   6.2500   7.2500 Du        
   1839 ****         8.2500   6.2500   7.5000 Du        
   1840 ****         8.2500   6.2500   7.7500 Du        
   1841 ****         8.2500   6.2500   8.0000 Du        
   1842 ****         8.2500   6.2500   8.2500 Du        
   1843 ****         8.2500   6.2500   8.5000 Du        
   1844 ****         8.2500   6.5000   7.5000 Du        
   1845 ****         8.2500   6.5000   7.7500 Du        
   1846 ****         8.2500   6.5000   8.0000 Du        
   1847 ****         8.2500   6.5000   8.2500 Du        
   1848 ****         8.2500   6.5000   8.5000 Du        
   1849 ****         8.2500   6.5000   8.7500 Du        
   1850 ****         8.2500   6.7500   7.5000 Du        
   1851 ****         8.2500   6.7500   7.7500 Du        
   1852 ****         8.2500   6.7500   8.0000 Du        
   1853 ****         8.2500   6.7500   8.2500 Du        
   1854 ****         8.2500   6.7500   8.5000 Du        
   1855 ****         8.2500   6.7500   8.7500 Du        
   1856 ****         8.2500   6.7500   9.0000 Du        
   1857 ****         8.2500   6.7500   9.2500 Du        
   1858 ****         8.2500   7.0000   7.5000 Du        
   1859 ****         8.2500   7.0000   7.7500 Du        
   1860 ****         8.2500   7.0000   8.0000 Du        
   1861 ****         8.2500   7.0000   8.2500 Du        
   1862 ****         8.2500   7.0000   8.5000 Du        
   1863 ****         8.2500   7.0000   8.7500 Du        
   1864 ****         8.2500   7.0000   9.0000 Du        
   1865 ****         8.2500   7.0000   9.2500 Du        
   1866 ****         8.2500   7.0000   9.5000 Du        
   1867 ****         8.2500   7.2500   7.7500 Du        
   1868 ****         8.2500   7.2500   8.0000 Du        
   1869 ****         8.2500   7.2500   8.2500 Du        
   1870 ****         8.2500   7.2500   8.5000 Du        
   1871 ****         8.2500   7.2500   8.7500 Du        
   1872 ****         8.2500   7.2500   9.0000 Du        
   1873 ****         8.2500   7.2500   9.2500 Du        
   1874 ****         8.2500   7.2500   9.5000 Du        
   1875 ****         8.2500   7.2500   9.7500 Du        
   1876 ****         8.2500   7.5000   7.7500 Du        
   1877 ****         8.2500   7.5000   8.0000 Du        
   1878 ****         8.2500   7.5000   8.2500 Du        
   1879 ****         8.2500   7.5000   8.5000 Du        
   1880 ****         8.2500   7.5000   8.7500 Du        
   1881 ****         8.2500   7.5000   9.0000 Du        
   1882 ****         8.2500   7.5000   9.2500 Du        
   1883 ****         8.2500   7.5000   9.5000 Du        
   1884 ****         8.2500   7.5000   9.7500 Du        
   1885 ****         8.2500   7.7500   8.0000 Du        
   1886 ****         8.2500   7.7500   8.2500 Du        
   1887 ****         8.2500   7.7500   8.5000 Du        
   1888 ****         8.2500   7.7500   8.7500 Du        
   1889 ****         8.2500   7.7500   9.0000 Du        
   1890 ****         8.2500   7.7500   9.2500 Du        
   1891 ****         8.2500   7.7500   9.5000 Du        
   1892 ****         8.2500   7.7500   9.7500 Du        
   1893 ****         8.2500   8.0000   8.2500 Du        
   1894 ****         8.2500   8.0000   8.5000 Du        
   1895 ****         8.2500   8.0000   8.7500 Du        
   1896 ****         8.2500   8.0000   9.0000 Du        
   1897 ****         8.2500   8.0000   9.2500 Du        
   1898 ****         8.2500  13.2500  16.5000 Du        
   1899 ****         8.2500  13.2500  16.7500 Du        
   1900 ****         8.2500  13.2500  17.0000 Du        
   1901 ****         8.2500  13.2500  17.2500 Du        
   1902 ****         8.2500  13.5000  16.7500 Du        
   1903 ****         8.2500  13.5000  17.0000 Du        
   1904 ****         8.2500  13.5000  17.2500 Du        
   1905 ****         8.5000   6.5000   8.2500 Du        
   1906 ****         8.5000   7.0000   9.0000 Du        
   1907 ****         8.5000   7.2500   9.0000 Du        
   1908 ****         8.5000   7.2500   9.2500 Du        
   1909 ****         8.5000   7.5000   9.0000 Du        
   1910 ****         8.5000   7.5000   9.2500 Du        
   1911 ****         8.5000   7.5000   9.5000 Du        
   1912 ****         8.5000  13.2500  16.5000 Du        
   1913 ****         8.5000  13.2500  16.7500 Du        
   1914 ****         8.5000  13.2500  17.0000 Du        
   1915 ****         8.5000  13.2500  17.2500 Du        
   1916 ****         8.5000  13.5000  16.7500 Du        
   1917 ****         8.5000  13.5000  17.0000 Du        
   1918 ****         8.7500  13.2500  16.5000 Du        
   1919 ****         8.7500  13.2500  16.7500 Du        
   1920 ****         8.7500  13.2500  17.0000 Du        
   1921 ****         9.0000  13.2500  16.7500 Du        
   1922 ****        10.7500  19.2500  16.0000 Du        
   1923 ****        10.7500  19.2500  16.2500 Du        
   1924 ****        11.0000  19.0000  16.0000 Du        
   1925 ****        11.0000  19.0000  16.2500 Du        
   1926 ****        11.0000  19.0000  16.5000 Du        
   1927 ****        11.0000  19.2500  16.0000 Du        
   1928 ****        11.0000  19.2500  16.2500 Du        
   1929 ****        11.0000  19.2500  16.5000 Du        
   1930 ****        11.0000  19.5000  16.2500 Du        
   1931 ****        11.2500  13.0000  15.5000 Du        
   1932 ****        11.2500  13.0000  15.7500 Du        
   1933 ****        11.2500  13.2500  15.7500 Du        
   1934 ****        11.2500  13.2500  16.0000 Du        
   1935 ****        11.2500  18.7500  16.2500 Du        
   1936 ****        11.2500  18.7500  16.5000 Du        
   1937 ****        11.2500  19.0000  16.0000 Du        
   1938 ****        11.2500  19.0000  16.2500 Du        
   1939 ****        11.2500  19.2500  16.0000 Du        
   1940 ****        11.2500  19.2500  16.2500 Du        
   1941 ****        11.5000  12.7500  15.2500 Du        
   1942 ****        11.5000  13.0000  15.2500 Du        
   1943 ****        11.5000  13.2500  15.2500 Du        
   1944 ****        11.5000  18.5000  16.2500 Du        
   1945 ****        11.5000  18.7500  16.0000 Du        
   1946 ****        11.5000  18.7500  16.2500 Du        
   1947 ****        11.5000  19.0000  16.2500 Du        
   1948 ****        11.5000  19.2500  16.2500 Du        
   1949 ****        11.7500  12.5000  15.2500 Du        
   1950 ****        11.7500  12.7500  15.0000 Du        
   1951 ****        11.7500  12.7500  15.2500 Du        
   1952 ****        11.7500  12.7500  15.5000 Du        
   1953 ****        11.7500  12.7500  15.7500 Du        
   1954 ****        11.7500  13.0000  15.0000 Du        
   1955 ****        11.7500  13.0000  15.2500 Du        
   1956 ****        11.7500  13.0000  15.5000 Du        
   1957 ****        11.7500  13.0000  15.7500 Du        
   1958 ****        11.7500  13.2500  15.2500 Du        
   1959 ****        11.7500  13.2500  15.5000 Du        
   1960 ****        11.7500  13.2500  15.7500 Du        
   1961 ****        11.7500  18.2500  16.2500 Du        
   1962 ****        11.7500  18.5000  16.2500 Du        
   1963 ****        11.7500  18.7500  16.2500 Du        
   1964 ****        12.0000  12.2500  15.2500 Du        
   1965 ****        12.0000  12.5000  15.0000 Du        
   1966 ****        12.0000  12.5000  15.2500 Du        
   1967 ****        12.0000  12.5000  15.5000 Du        
   1968 ****        12.0000  12.7500  15.0000 Du        
   1969 ****        12.0000  12.7500  15.2500 Du        
   1970 ****        12.0000  12.7500  15.5000 Du        
   1971 ****        12.0000  12.7500  15.7500 Du        
   1972 ****        12.0000  13.0000  15.0000 Du        
   1973 ****        12.0000  13.0000  15.2500 Du        
   1974 ****        12.0000  13.0000  15.5000 Du        
   1975 ****        12.0000  13.0000  15.7500 Du        
   1976 ****        12.0000  13.0000  16.0000 Du        
   1977 ****        12.0000  13.2500  15.0000 Du        
   1978 ****        12.0000  13.2500  15.2500 Du        
   1979 ****        12.0000  13.2500  15.5000 Du        
   1980 ****        12.0000  13.2500  15.7500 Du        
   1981 ****        12.0000  13.5000  15.5000 Du        
   1982 ****        12.0000  17.7500  16.2500 Du        
   1983 ****        12.0000  18.0000  16.2500 Du        
   1984 ****        12.0000  18.2500  16.2500 Du        
   1985 ****        12.2500  12.2500  15.0000 Du        
   1986 ****        12.2500  12.2500  15.2500 Du        
   1987 ****        12.2500  12.2500  15.5000 Du        
   1988 ****        12.2500  12.5000  15.0000 Du        
   1989 ****        12.2500  12.5000  15.2500 Du        
   1990 ****        12.2500  12.5000  15.5000 Du        
   1991 ****        12.2500  12.5000  15.7500 Du        
   1992 ****        12.2500  12.7500  15.0000 Du        
   1993 ****        12.2500  12.7500  15.2500 Du        
   1994 ****        12.2500  12.7500  15.5000 Du        
   1995 ****        12.2500  12.7500  15.7500 Du        
   1996 ****        12.2500  13.0000  15.0000 Du        
   1997 ****        12.2500  13.0000  15.2500 Du        
   1998 ****        12.2500  13.0000  15.5000 Du        
   1999 ****        12.2500  13.0000  15.7500 Du        
   2000 ****        12.2500  13.2500  15.2500 Du        
   2001 ****        12.2500  13.2500  15.5000 Du        
   2002 ****        12.2500  13.2500  15.7500 Du        
   2003 ****        12.2500  13.5000  15.2500 Du        
   2004 ****        12.2500  13.5000  15.5000 Du        
   2005 ****        12.2500  13.7500  15.2500 Du        
   2006 ****        12.2500  13.7500  15.5000 Du        
   2007 ****        12.2500  13.7500  15.7500 Du        
   2008 ****        12.2500  17.7500  16.2500 Du        
   2009 ****        12.2500  18.0000  16.2500 Du        
   2010 ****        12.5000  12.2500  15.0000 Du        
   2011 ****        12.5000  12.2500  15.2500 Du        
   2012 ****        12.5000  12.2500  15.5000 Du        
   2013 ****        12.5000  12.2500  15.7500 Du        
   2014 ****        12.5000  12.5000  15.0000 Du        
   2015 ****        12.5000  12.5000  15.2500 Du        
   2016 ****        12.5000  12.7500  15.2500 Du        
   2017 ****        12.5000  13.0000  15.2500 Du        
   2018 ****        12.7500  12.0000  15.2500 Du        
   2019 ****        12.7500  12.0000  15.5000 Du        
   2020 ****        12.7500  12.0000  15.7500 Du        
   2021 ****        12.7500  12.2500  15.0000 Du        
   2022 ****        12.7500  12.2500  15.2500 Du        
   2023 ****        12.7500  12.2500  15.5000 Du        
   2024 ****        12.7500  12.2500  15.7500 Du        
   2025 ****        12.7500  12.5000  15.2500 Du        
   2026 ****        12.7500  12.7500  15.2500 Du        
   2027 ****        12.7500  13.0000  15.2500 Du        
   2028 ****        12.7500  14.0000  15.2500 Du        
   2029 ****        13.0000   2.7500  15.5000 Du        
   2030 ****        13.0000   2.7500  15.7500 Du        
   2031 ****        13.0000   2.7500  16.0000 Du        
   2032 ****        13.0000   3.0000  15.7500 Du        
   2033 ****        13.0000   3.0000  16.0000 Du        
   2034 ****        13.0000   3.2500  15.7500 Du        
   2035 ****        13.0000   3.2500  16.0000 Du        
   2036 ****        13.0000   3.5000  16.0000 Du        
   2037 ****        13.0000   3.7500  16.0000 Du        
   2038 ****        13.0000   3.7500  16.2500 Du        
   2039 ****        13.0000   4.0000  16.0000 Du        
   2040 ****        13.0000   4.0000  16.2500 Du        
   2041 ****        13.0000   4.2500  16.0000 Du        
   2042 ****        13.0000   4.2500  16.2500 Du        
   2043 ****        13.0000   4.5000  16.2500 Du        
   2044 ****        13.0000   4.7500  16.2500 Du        
   2045 ****        13.0000  11.7500  15.2500 Du        
   2046 ****        13.0000  11.7500  15.5000 Du        
   2047 ****        13.0000  11.7500  15.7500 Du        
   2048 ****        13.0000  12.0000  15.0000 Du        
   2049 ****        13.0000  12.0000  15.2500 Du        
   2050 ****        13.0000  12.0000  15.5000 Du        
   2051 ****        13.0000  12.0000  15.7500 Du        
   2052 ****        13.0000  12.0000  16.0000 Du        
   2053 ****        13.0000  12.2500  15.0000 Du        
   2054 ****        13.0000  12.2500  15.2500 Du        
   2055 ****        13.0000  12.2500  15.5000 Du        
   2056 ****        13.0000  12.2500  15.7500 Du        
   2057 ****        13.0000  12.2500  16.0000 Du        
   2058 ****        13.0000  12.5000  15.2500 Du        
   2059 ****        13.0000  12.7500  15.2500 Du        
   2060 ****        13.2500   2.5000  15.7500 Du        
   2061 ****        13.2500   2.7500  15.5000 Du        
   2062 ****        13.2500   2.7500  15.7500 Du        
   2063 ****        13.2500   2.7500  16.0000 Du        
   2064 ****        13.2500   3.0000  15.5000 Du        
   2065 ****        13.2500   3.0000  15.7500 Du        
   2066 ****        13.2500   3.0000  16.0000 Du        
   2067 ****        13.2500   3.2500  15.7500 Du        
   2068 ****        13.2500   3.2500  16.0000 Du        
   2069 ****        13.2500   3.2500  16.2500 Du        
   2070 ****        13.2500   3.5000  15.7500 Du        
   2071 ****        13.2500   3.5000  16.0000 Du        
   2072 ****        13.2500   3.5000  16.2500 Du        
   2073 ****        13.2500   3.7500  15.7500 Du        
   2074 ****        13.2500   3.7500  16.0000 Du        
   2075 ****        13.2500   3.7500  16.2500 Du        
   2076 ****        13.2500   4.0000  15.7500 Du        
   2077 ****        13.2500   4.0000  16.0000 Du        
   2078 ****        13.2500   4.0000  16.2500 Du        
   2079 ****        13.2500   4.2500  15.7500 Du        
   2080 ****        13.2500   4.2500  16.0000 Du        
   2081 ****        13.2500   4.2500  16.2500 Du        
   2082 ****        13.2500   4.5000  16.0000 Du        
   2083 ****        13.2500   4.5000  16.2500 Du        
   2084 ****        13.2500   4.7500  16.0000 Du        
   2085 ****        13.2500   4.7500  16.2500 Du        
   2086 ****        13.2500   5.0000  16.0000 Du        
   2087 ****        13.2500   5.0000  16.2500 Du        
   2088 ****        13.2500   5.2500  16.0000 Du        
   2089 ****        13.2500   5.2500  16.2500 Du        
   2090 ****        13.2500   5.5000  16.2500 Du        
   2091 ****        13.2500  11.5000  15.2500 Du        
   2092 ****        13.2500  11.5000  15.7500 Du        
   2093 ****        13.2500  11.7500  15.0000 Du        
   2094 ****        13.2500  11.7500  15.2500 Du        
   2095 ****        13.2500  11.7500  15.5000 Du        
   2096 ****        13.2500  11.7500  15.7500 Du        
   2097 ****        13.2500  12.0000  15.0000 Du        
   2098 ****        13.2500  12.0000  15.2500 Du        
   2099 ****        13.2500  12.0000  15.5000 Du        
   2100 ****        13.2500  12.0000  15.7500 Du        
   2101 ****        13.2500  12.2500  15.2500 Du        
   2102 ****        13.2500  12.2500  15.5000 Du        
   2103 ****        13.2500  12.2500  15.7500 Du        
   2104 ****        13.2500  12.5000  15.2500 Du        
   2105 ****        13.5000   2.5000  15.5000 Du        
   2106 ****        13.5000   2.5000  15.7500 Du        
   2107 ****        13.5000   2.5000  16.0000 Du        
   2108 ****        13.5000   2.7500  15.5000 Du        
   2109 ****        13.5000   2.7500  15.7500 Du        
   2110 ****        13.5000   2.7500  16.0000 Du        
   2111 ****        13.5000   3.0000  15.5000 Du        
   2112 ****        13.5000   3.0000  15.7500 Du        
   2113 ****        13.5000   3.0000  16.0000 Du        
   2114 ****        13.5000   3.0000  16.2500 Du        
   2115 ****        13.5000   3.2500  15.7500 Du        
   2116 ****        13.5000   3.2500  16.0000 Du        
   2117 ****        13.5000   3.2500  16.2500 Du        
   2118 ****        13.5000   3.5000  15.7500 Du        
   2119 ****        13.5000   3.5000  16.0000 Du        
   2120 ****        13.5000   3.5000  16.2500 Du        
   2121 ****        13.5000   3.5000  16.5000 Du        
   2122 ****        13.5000   3.7500  15.7500 Du        
   2123 ****        13.5000   3.7500  16.0000 Du        
   2124 ****        13.5000   3.7500  16.2500 Du        
   2125 ****        13.5000   3.7500  16.5000 Du        
   2126 ****        13.5000   4.0000  15.7500 Du        
   2127 ****        13.5000   4.0000  16.0000 Du        
   2128 ****        13.5000   4.0000  16.2500 Du        
   2129 ****        13.5000   4.0000  16.5000 Du        
   2130 ****        13.5000   4.2500  15.7500 Du        
   2131 ****        13.5000   4.2500  16.0000 Du        
   2132 ****        13.5000   4.2500  16.2500 Du        
   2133 ****        13.5000   4.2500  16.5000 Du        
   2134 ****        13.5000   4.5000  15.7500 Du        
   2135 ****        13.5000   4.5000  16.0000 Du        
   2136 ****        13.5000   4.5000  16.2500 Du        
   2137 ****        13.5000   4.5000  16.5000 Du        
   2138 ****        13.5000   4.7500  15.7500 Du        
   2139 ****        13.5000   4.7500  16.0000 Du        
   2140 ****        13.5000   4.7500  16.2500 Du        
   2141 ****        13.5000   4.7500  16.5000 Du        
   2142 ****        13.5000   5.0000  15.7500 Du        
   2143 ****        13.5000   5.0000  16.0000 Du        
   2144 ****        13.5000   5.0000  16.2500 Du        
   2145 ****        13.5000   5.0000  16.5000 Du        
   2146 ****        13.5000   5.2500  15.7500 Du        
   2147 ****        13.5000   5.2500  16.0000 Du        
   2148 ****        13.5000   5.2500  16.2500 Du        
   2149 ****        13.5000   5.5000  15.7500 Du        
   2150 ****        13.5000   5.5000  16.0000 Du        
   2151 ****        13.5000   5.5000  16.2500 Du        
   2152 ****        13.5000   5.5000  16.5000 Du        
   2153 ****        13.5000   5.7500  15.7500 Du        
   2154 ****        13.5000   5.7500  16.0000 Du        
   2155 ****        13.5000   5.7500  16.2500 Du        
   2156 ****        13.5000   5.7500  16.5000 Du        
   2157 ****        13.5000   6.0000  16.0000 Du        
   2158 ****        13.5000   6.0000  16.2500 Du        
   2159 ****        13.5000  11.7500  15.2500 Du        
   2160 ****        13.5000  12.0000  15.2500 Du        
   2161 ****        13.5000  12.2500  15.2500 Du        
   2162 ****        13.7500   2.5000  15.7500 Du        
   2163 ****        13.7500   2.5000  16.0000 Du        
   2164 ****        13.7500   2.7500  15.7500 Du        
   2165 ****        13.7500   2.7500  16.0000 Du        
   2166 ****        13.7500   2.7500  16.2500 Du        
   2167 ****        13.7500   3.0000  15.7500 Du        
   2168 ****        13.7500   3.0000  16.0000 Du        
   2169 ****        13.7500   3.0000  16.2500 Du        
   2170 ****        13.7500   3.2500  15.7500 Du        
   2171 ****        13.7500   3.2500  16.0000 Du        
   2172 ****        13.7500   3.2500  16.2500 Du        
   2173 ****        13.7500   3.5000  15.7500 Du        
   2174 ****        13.7500   3.5000  16.0000 Du        
   2175 ****        13.7500   3.5000  16.2500 Du        
   2176 ****        13.7500   3.5000  16.5000 Du        
   2177 ****        13.7500   3.7500  15.7500 Du        
   2178 ****        13.7500   3.7500  16.0000 Du        
   2179 ****        13.7500   3.7500  16.2500 Du        
   2180 ****        13.7500   3.7500  16.5000 Du        
   2181 ****        13.7500   4.0000  15.7500 Du        
   2182 ****        13.7500   4.0000  16.0000 Du        
   2183 ****        13.7500   4.0000  16.2500 Du        
   2184 ****        13.7500   4.0000  16.5000 Du        
   2185 ****        13.7500   4.2500  15.7500 Du        
   2186 ****        13.7500   4.2500  16.0000 Du        
   2187 ****        13.7500   4.2500  16.2500 Du        
   2188 ****        13.7500   4.2500  16.5000 Du        
   2189 ****        13.7500   4.2500  16.7500 Du        
   2190 ****        13.7500   4.5000  15.5000 Du        
   2191 ****        13.7500   4.5000  15.7500 Du        
   2192 ****        13.7500   4.5000  16.0000 Du        
   2193 ****        13.7500   4.5000  16.2500 Du        
   2194 ****        13.7500   4.5000  16.5000 Du        
   2195 ****        13.7500   4.5000  16.7500 Du        
   2196 ****        13.7500   4.7500  15.5000 Du        
   2197 ****        13.7500   4.7500  15.7500 Du        
   2198 ****        13.7500   4.7500  16.0000 Du        
   2199 ****        13.7500   4.7500  16.2500 Du        
   2200 ****        13.7500   4.7500  16.5000 Du        
   2201 ****        13.7500   4.7500  16.7500 Du        
   2202 ****        13.7500   5.0000  15.5000 Du        
   2203 ****        13.7500   5.0000  15.7500 Du        
   2204 ****        13.7500   5.0000  16.0000 Du        
   2205 ****        13.7500   5.0000  16.2500 Du        
   2206 ****        13.7500   5.0000  16.5000 Du        
   2207 ****        13.7500   5.0000  16.7500 Du        
   2208 ****        13.7500   5.2500  15.5000 Du        
   2209 ****        13.7500   5.2500  15.7500 Du        
   2210 ****        13.7500   5.2500  16.0000 Du        
   2211 ****        13.7500   5.2500  16.2500 Du        
   2212 ****        13.7500   5.2500  16.5000 Du        
   2213 ****        13.7500   5.5000  15.5000 Du        
   2214 ****        13.7500   5.5000  15.7500 Du        
   2215 ****        13.7500   5.5000  16.0000 Du        
   2216 ****        13.7500   5.5000  16.2500 Du        
   2217 ****        13.7500   5.5000  16.5000 Du        
   2218 ****        13.7500   5.7500  15.5000 Du        
   2219 ****        13.7500   5.7500  15.7500 Du        
   2220 ****        13.7500   5.7500  16.0000 Du        
   2221 ****        13.7500   5.7500  16.2500 Du        
   2222 ****        13.7500   5.7500  16.5000 Du        
   2223 ****        13.7500   5.7500  16.7500 Du        
   2224 ****        13.7500   6.0000  15.5000 Du        
   2225 ****        13.7500   6.0000  15.7500 Du        
   2226 ****        13.7500   6.0000  16.0000 Du        
   2227 ****        13.7500   6.0000  16.2500 Du        
   2228 ****        13.7500   6.0000  16.5000 Du        
   2229 ****        13.7500   6.2500  15.7500 Du        
   2230 ****        13.7500   6.2500  16.0000 Du        
   2231 ****        13.7500   6.2500  16.2500 Du        
   2232 ****        13.7500   6.2500  16.5000 Du        
   2233 ****        13.7500   6.5000  16.0000 Du        
   2234 ****        13.7500   6.5000  16.2500 Du        
   2235 ****        13.7500  11.7500  15.2500 Du        
   2236 ****        13.7500  12.0000  15.2500 Du        
   2237 ****        14.0000   2.5000  15.7500 Du        
   2238 ****        14.0000   2.5000  16.0000 Du        
   2239 ****        14.0000   2.7500  15.7500 Du        
   2240 ****        14.0000   2.7500  16.0000 Du        
   2241 ****        14.0000   2.7500  16.2500 Du        
   2242 ****        14.0000   3.0000  15.7500 Du        
   2243 ****        14.0000   3.0000  16.0000 Du        
   2244 ****        14.0000   3.0000  16.2500 Du        
   2245 ****        14.0000   3.2500  15.7500 Du        
   2246 ****        14.0000   3.2500  16.0000 Du        
   2247 ****        14.0000   3.2500  16.2500 Du        
   2248 ****        14.0000   3.5000  15.7500 Du        
   2249 ****        14.0000   3.5000  16.0000 Du        
   2250 ****        14.0000   3.5000  16.2500 Du        
   2251 ****        14.0000   3.5000  16.5000 Du        
   2252 ****        14.0000   3.7500  15.7500 Du        
   2253 ****        14.0000   3.7500  16.0000 Du        
   2254 ****        14.0000   3.7500  16.2500 Du        
   2255 ****        14.0000   3.7500  16.5000 Du        
   2256 ****        14.0000   4.0000  15.7500 Du        
   2257 ****        14.0000   4.0000  16.0000 Du        
   2258 ****        14.0000   4.0000  16.2500 Du        
   2259 ****        14.0000   4.0000  16.5000 Du        
   2260 ****        14.0000   4.0000  16.7500 Du        
   2261 ****        14.0000   4.2500  15.5000 Du        
   2262 ****        14.0000   4.2500  15.7500 Du        
   2263 ****        14.0000   4.2500  16.0000 Du        
   2264 ****        14.0000   4.2500  16.2500 Du        
   2265 ****        14.0000   4.2500  16.5000 Du        
   2266 ****        14.0000   4.2500  16.7500 Du        
   2267 ****        14.0000   4.5000  15.5000 Du        
   2268 ****        14.0000   4.5000  15.7500 Du        
   2269 ****        14.0000   4.5000  16.0000 Du        
   2270 ****        14.0000   4.5000  16.2500 Du        
   2271 ****        14.0000   4.5000  16.5000 Du        
   2272 ****        14.0000   4.5000  16.7500 Du        
   2273 ****        14.0000   4.7500  15.5000 Du        
   2274 ****        14.0000   4.7500  15.7500 Du        
   2275 ****        14.0000   4.7500  16.0000 Du        
   2276 ****        14.0000   4.7500  16.2500 Du        
   2277 ****        14.0000   4.7500  16.5000 Du        
   2278 ****        14.0000   4.7500  16.7500 Du        
   2279 ****        14.0000   5.0000  15.5000 Du        
   2280 ****        14.0000   5.0000  15.7500 Du        
   2281 ****        14.0000   5.0000  16.0000 Du        
   2282 ****        14.0000   5.0000  16.2500 Du        
   2283 ****        14.0000   5.0000  16.5000 Du        
   2284 ****        14.0000   5.0000  16.7500 Du        
   2285 ****        14.0000   5.2500  15.5000 Du        
   2286 ****        14.0000   5.2500  15.7500 Du        
   2287 ****        14.0000   5.2500  16.0000 Du        
   2288 ****        14.0000   5.2500  16.2500 Du        
   2289 ****        14.0000   5.2500  16.5000 Du        
   2290 ****        14.0000   5.2500  16.7500 Du        
   2291 ****        14.0000   5.5000  15.5000 Du        
   2292 ****        14.0000   5.5000  15.7500 Du        
   2293 ****        14.0000   5.5000  16.0000 Du        
   2294 ****        14.0000   5.5000  16.2500 Du        
   2295 ****        14.0000   5.5000  16.5000 Du        
   2296 ****        14.0000   5.7500  15.2500 Du        
   2297 ****        14.0000   5.7500  15.5000 Du        
   2298 ****        14.0000   5.7500  15.7500 Du        
   2299 ****        14.0000   5.7500  16.0000 Du        
   2300 ****        14.0000   5.7500  16.2500 Du        
   2301 ****        14.0000   5.7500  16.5000 Du        
   2302 ****        14.0000   6.0000  15.2500 Du        
   2303 ****        14.0000   6.0000  15.5000 Du        
   2304 ****        14.0000   6.0000  15.7500 Du        
   2305 ****        14.0000   6.0000  16.0000 Du        
   2306 ****        14.0000   6.0000  16.2500 Du        
   2307 ****        14.0000   6.0000  16.5000 Du        
   2308 ****        14.0000   6.0000  16.7500 Du        
   2309 ****        14.0000   6.2500  15.2500 Du        
   2310 ****        14.0000   6.2500  15.5000 Du        
   2311 ****        14.0000   6.2500  15.7500 Du        
   2312 ****        14.0000   6.2500  16.0000 Du        
   2313 ****        14.0000   6.2500  16.2500 Du        
   2314 ****        14.0000   6.2500  16.5000 Du        
   2315 ****        14.0000   6.2500  16.7500 Du        
   2316 ****        14.0000   6.5000  15.2500 Du        
   2317 ****        14.0000   6.5000  15.5000 Du        
   2318 ****        14.0000   6.5000  15.7500 Du        
   2319 ****        14.0000   6.5000  16.0000 Du        
   2320 ****        14.0000   6.5000  16.2500 Du        
   2321 ****        14.0000   6.7500  15.2500 Du        
   2322 ****        14.0000   6.7500  15.5000 Du        
   2323 ****        14.0000   6.7500  15.7500 Du        
   2324 ****        14.0000   6.7500  16.0000 Du        
   2325 ****        14.0000   6.7500  16.2500 Du        
   2326 ****        14.0000   7.0000  15.7500 Du        
   2327 ****        14.0000   7.0000  16.0000 Du        
   2328 ****        14.0000  11.0000  15.0000 Du        
   2329 ****        14.0000  11.0000  15.2500 Du        
   2330 ****        14.0000  11.2500  15.0000 Du        
   2331 ****        14.0000  11.2500  15.2500 Du        
   2332 ****        14.0000  11.5000  15.0000 Du        
   2333 ****        14.0000  11.7500  15.0000 Du        
   2334 ****        14.0000  12.0000  15.2500 Du        
   2335 ****        14.2500   3.2500  16.0000 Du        
   2336 ****        14.2500   3.2500  16.2500 Du        
   2337 ****        14.2500   3.5000  15.7500 Du        
   2338 ****        14.2500   3.5000  16.0000 Du        
   2339 ****        14.2500   3.5000  16.2500 Du        
   2340 ****        14.2500   3.7500  15.7500 Du        
   2341 ****        14.2500   3.7500  16.0000 Du        
   2342 ****        14.2500   3.7500  16.2500 Du        
   2343 ****        14.2500   4.0000  15.7500 Du        
   2344 ****        14.2500   4.0000  16.0000 Du        
   2345 ****        14.2500   4.0000  16.2500 Du        
   2346 ****        14.2500   4.0000  16.5000 Du        
   2347 ****        14.2500   4.2500  15.7500 Du        
   2348 ****        14.2500   4.2500  16.0000 Du        
   2349 ****        14.2500   4.2500  16.2500 Du        
   2350 ****        14.2500   4.2500  16.5000 Du        
   2351 ****        14.2500   4.2500  16.7500 Du        
   2352 ****        14.2500   4.5000  15.7500 Du        
   2353 ****        14.2500   4.5000  16.0000 Du        
   2354 ****        14.2500   4.5000  16.2500 Du        
   2355 ****        14.2500   4.5000  16.5000 Du        
   2356 ****        14.2500   4.5000  16.7500 Du        
   2357 ****        14.2500   4.7500  15.5000 Du        
   2358 ****        14.2500   4.7500  15.7500 Du        
   2359 ****        14.2500   4.7500  16.0000 Du        
   2360 ****        14.2500   4.7500  16.2500 Du        
   2361 ****        14.2500   4.7500  16.5000 Du        
   2362 ****        14.2500   4.7500  16.7500 Du        
   2363 ****        14.2500   5.0000  15.5000 Du        
   2364 ****        14.2500   5.0000  15.7500 Du        
   2365 ****        14.2500   5.0000  16.0000 Du        
   2366 ****        14.2500   5.0000  16.2500 Du        
   2367 ****        14.2500   5.0000  16.5000 Du        
   2368 ****        14.2500   5.0000  16.7500 Du        
   2369 ****        14.2500   5.2500  15.5000 Du        
   2370 ****        14.2500   5.2500  15.7500 Du        
   2371 ****        14.2500   5.2500  16.0000 Du        
   2372 ****        14.2500   5.2500  16.2500 Du        
   2373 ****        14.2500   5.2500  16.5000 Du        
   2374 ****        14.2500   5.2500  16.7500 Du        
   2375 ****        14.2500   5.5000  15.2500 Du        
   2376 ****        14.2500   5.5000  15.5000 Du        
   2377 ****        14.2500   5.5000  15.7500 Du        
   2378 ****        14.2500   5.5000  16.0000 Du        
   2379 ****        14.2500   5.5000  16.2500 Du        
   2380 ****        14.2500   5.5000  16.5000 Du        
   2381 ****        14.2500   5.7500  15.2500 Du        
   2382 ****        14.2500   5.7500  15.5000 Du        
   2383 ****        14.2500   5.7500  15.7500 Du        
   2384 ****        14.2500   5.7500  16.0000 Du        
   2385 ****        14.2500   5.7500  16.2500 Du        
   2386 ****        14.2500   5.7500  16.5000 Du        
   2387 ****        14.2500   6.0000  15.2500 Du        
   2388 ****        14.2500   6.0000  15.5000 Du        
   2389 ****        14.2500   6.0000  15.7500 Du        
   2390 ****        14.2500   6.0000  16.0000 Du        
   2391 ****        14.2500   6.0000  16.2500 Du        
   2392 ****        14.2500   6.0000  16.5000 Du        
   2393 ****        14.2500   6.2500  15.2500 Du        
   2394 ****        14.2500   6.2500  15.5000 Du        
   2395 ****        14.2500   6.2500  15.7500 Du        
   2396 ****        14.2500   6.2500  16.0000 Du        
   2397 ****        14.2500   6.2500  16.2500 Du        
   2398 ****        14.2500   6.2500  16.5000 Du        
   2399 ****        14.2500   6.2500  16.7500 Du        
   2400 ****        14.2500   6.5000  15.0000 Du        
   2401 ****        14.2500   6.5000  15.2500 Du        
   2402 ****        14.2500   6.5000  15.5000 Du        
   2403 ****        14.2500   6.5000  15.7500 Du        
   2404 ****        14.2500   6.5000  16.0000 Du        
   2405 ****        14.2500   6.5000  16.2500 Du        
   2406 ****        14.2500   6.5000  16.5000 Du        
   2407 ****        14.2500   6.7500  15.0000 Du        
   2408 ****        14.2500   6.7500  15.2500 Du        
   2409 ****        14.2500   6.7500  15.5000 Du        
   2410 ****        14.2500   6.7500  15.7500 Du        
   2411 ****        14.2500   6.7500  16.0000 Du        
   2412 ****        14.2500   6.7500  16.2500 Du        
   2413 ****        14.2500   6.7500  16.5000 Du        
   2414 ****        14.2500   7.0000  15.0000 Du        
   2415 ****        14.2500   7.0000  15.2500 Du        
   2416 ****        14.2500   7.0000  15.5000 Du        
   2417 ****        14.2500   7.0000  15.7500 Du        
   2418 ****        14.2500   7.0000  16.0000 Du        
   2419 ****        14.2500   7.0000  16.2500 Du        
   2420 ****        14.2500   7.2500  15.0000 Du        
   2421 ****        14.2500   7.2500  15.2500 Du        
   2422 ****        14.2500   7.2500  15.5000 Du        
   2423 ****        14.2500   7.2500  15.7500 Du        
   2424 ****        14.2500   7.2500  16.0000 Du        
   2425 ****        14.2500   7.2500  16.2500 Du        
   2426 ****        14.2500   7.5000  15.0000 Du        
   2427 ****        14.2500   7.5000  15.2500 Du        
   2428 ****        14.2500   7.7500  14.7500 Du        
   2429 ****        14.2500   7.7500  15.0000 Du        
   2430 ****        14.2500   7.7500  15.2500 Du        
   2431 ****        14.2500   8.0000  14.2500 Du        
   2432 ****        14.2500   8.0000  14.7500 Du        
   2433 ****        14.2500   8.0000  15.0000 Du        
   2434 ****        14.2500   8.0000  15.2500 Du        
   2435 ****        14.2500   8.2500  14.0000 Du        
   2436 ****        14.2500   8.2500  14.2500 Du        
   2437 ****        14.2500   8.2500  14.5000 Du        
   2438 ****        14.2500   8.2500  14.7500 Du        
   2439 ****        14.2500   8.2500  15.0000 Du        
   2440 ****        14.2500   8.2500  15.2500 Du        
   2441 ****        14.2500   8.5000  14.0000 Du        
   2442 ****        14.2500   8.5000  14.2500 Du        
   2443 ****        14.2500   8.5000  14.5000 Du        
   2444 ****        14.2500   8.5000  14.7500 Du        
   2445 ****        14.2500   8.5000  15.0000 Du        
   2446 ****        14.2500   8.5000  15.2500 Du        
   2447 ****        14.2500   8.7500  14.0000 Du        
   2448 ****        14.2500   8.7500  14.2500 Du        
   2449 ****        14.2500   8.7500  14.7500 Du        
   2450 ****        14.2500   8.7500  15.0000 Du        
   2451 ****        14.2500   8.7500  15.2500 Du        
   2452 ****        14.2500   9.0000  14.0000 Du        
   2453 ****        14.2500   9.0000  14.2500 Du        
   2454 ****        14.2500   9.0000  14.7500 Du        
   2455 ****        14.2500   9.0000  15.0000 Du        
   2456 ****        14.2500   9.0000  15.2500 Du        
   2457 ****        14.2500   9.2500  14.2500 Du        
   2458 ****        14.2500   9.2500  15.0000 Du        
   2459 ****        14.2500   9.2500  15.2500 Du        
   2460 ****        14.2500   9.5000  15.2500 Du        
   2461 ****        14.2500  10.0000  15.0000 Du        
   2462 ****        14.2500  10.2500  15.0000 Du        
   2463 ****        14.2500  10.2500  15.2500 Du        
   2464 ****        14.2500  10.5000  15.0000 Du        
   2465 ****        14.2500  10.7500  14.7500 Du        
   2466 ****        14.2500  10.7500  15.0000 Du        
   2467 ****        14.2500  10.7500  15.2500 Du        
   2468 ****        14.2500  11.0000  14.7500 Du        
   2469 ****        14.2500  11.0000  15.0000 Du        
   2470 ****        14.2500  11.0000  15.2500 Du        
   2471 ****        14.2500  11.2500  15.0000 Du        
   2472 ****        14.5000   4.0000  16.0000 Du        
   2473 ****        14.5000   4.0000  16.2500 Du        
   2474 ****        14.5000   4.2500  16.0000 Du        
   2475 ****        14.5000   4.2500  16.2500 Du        
   2476 ****        14.5000   4.2500  16.5000 Du        
   2477 ****        14.5000   4.5000  15.7500 Du        
   2478 ****        14.5000   4.5000  16.0000 Du        
   2479 ****        14.5000   4.5000  16.2500 Du        
   2480 ****        14.5000   4.5000  16.5000 Du        
   2481 ****        14.5000   4.5000  16.7500 Du        
   2482 ****        14.5000   4.7500  15.7500 Du        
   2483 ****        14.5000   4.7500  16.0000 Du        
   2484 ****        14.5000   4.7500  16.2500 Du        
   2485 ****        14.5000   4.7500  16.5000 Du        
   2486 ****        14.5000   4.7500  16.7500 Du        
   2487 ****        14.5000   5.0000  15.5000 Du        
   2488 ****        14.5000   5.0000  15.7500 Du        
   2489 ****        14.5000   5.0000  16.0000 Du        
   2490 ****        14.5000   5.0000  16.2500 Du        
   2491 ****        14.5000   5.0000  16.5000 Du        
   2492 ****        14.5000   5.0000  16.7500 Du        
   2493 ****        14.5000   5.2500  15.5000 Du        
   2494 ****        14.5000   5.2500  15.7500 Du        
   2495 ****        14.5000   5.2500  16.0000 Du        
   2496 ****        14.5000   5.2500  16.2500 Du        
   2497 ****        14.5000   5.2500  16.5000 Du        
   2498 ****        14.5000   5.2500  16.7500 Du        
   2499 ****        14.5000   5.5000  15.2500 Du        
   2500 ****        14.5000   5.5000  15.5000 Du        
   2501 ****        14.5000   5.5000  15.7500 Du        
   2502 ****        14.5000   5.5000  16.0000 Du        
   2503 ****        14.5000   5.5000  16.2500 Du        
   2504 ****        14.5000   5.5000  16.5000 Du        
   2505 ****        14.5000   5.5000  16.7500 Du        
   2506 ****        14.5000   5.7500  15.2500 Du        
   2507 ****        14.5000   5.7500  15.5000 Du        
   2508 ****        14.5000   5.7500  15.7500 Du        
   2509 ****        14.5000   5.7500  16.0000 Du        
   2510 ****        14.5000   5.7500  16.2500 Du        
   2511 ****        14.5000   5.7500  16.5000 Du        
   2512 ****        14.5000   6.0000  15.2500 Du        
   2513 ****        14.5000   6.0000  15.5000 Du        
   2514 ****        14.5000   6.0000  15.7500 Du        
   2515 ****        14.5000   6.0000  16.0000 Du        
   2516 ****        14.5000   6.0000  16.2500 Du        
   2517 ****        14.5000   6.0000  16.5000 Du        
   2518 ****        14.5000   6.2500  15.0000 Du        
   2519 ****        14.5000   6.2500  15.2500 Du        
   2520 ****        14.5000   6.2500  15.5000 Du        
   2521 ****        14.5000   6.2500  15.7500 Du        
   2522 ****        14.5000   6.2500  16.0000 Du        
   2523 ****        14.5000   6.2500  16.2500 Du        
   2524 ****        14.5000   6.2500  16.5000 Du        
   2525 ****        14.5000   6.5000  15.0000 Du        
   2526 ****        14.5000   6.5000  15.2500 Du        
   2527 ****        14.5000   6.5000  15.5000 Du        
   2528 ****        14.5000   6.5000  15.7500 Du        
   2529 ****        14.5000   6.5000  16.0000 Du        
   2530 ****        14.5000   6.5000  16.2500 Du        
   2531 ****        14.5000   6.5000  16.5000 Du        
   2532 ****        14.5000   6.7500  15.0000 Du        
   2533 ****        14.5000   6.7500  15.2500 Du        
   2534 ****        14.5000   6.7500  15.5000 Du        
   2535 ****        14.5000   6.7500  15.7500 Du        
   2536 ****        14.5000   6.7500  16.0000 Du        
   2537 ****        14.5000   6.7500  16.2500 Du        
   2538 ****        14.5000   7.0000  14.7500 Du        
   2539 ****        14.5000   7.0000  15.0000 Du        
   2540 ****        14.5000   7.0000  15.2500 Du        
   2541 ****        14.5000   7.0000  15.5000 Du        
   2542 ****        14.5000   7.0000  15.7500 Du        
   2543 ****        14.5000   7.0000  16.0000 Du        
   2544 ****        14.5000   7.0000  16.2500 Du        
   2545 ****        14.5000   7.2500  14.7500 Du        
   2546 ****        14.5000   7.2500  15.0000 Du        
   2547 ****        14.5000   7.2500  15.2500 Du        
   2548 ****        14.5000   7.2500  15.5000 Du        
   2549 ****        14.5000   7.2500  15.7500 Du        
   2550 ****        14.5000   7.2500  16.0000 Du        
   2551 ****        14.5000   7.2500  16.2500 Du        
   2552 ****        14.5000   7.5000  14.5000 Du        
   2553 ****        14.5000   7.5000  14.7500 Du        
   2554 ****        14.5000   7.5000  15.0000 Du        
   2555 ****        14.5000   7.5000  15.2500 Du        
   2556 ****        14.5000   7.5000  15.5000 Du        
   2557 ****        14.5000   7.5000  15.7500 Du        
   2558 ****        14.5000   7.5000  16.0000 Du        
   2559 ****        14.5000   7.5000  16.2500 Du        
   2560 ****        14.5000   7.7500  14.2500 Du        
   2561 ****        14.5000   7.7500  14.5000 Du        
   2562 ****        14.5000   7.7500  14.7500 Du        
   2563 ****        14.5000   7.7500  15.0000 Du        
   2564 ****        14.5000   7.7500  15.2500 Du        
   2565 ****        14.5000   7.7500  15.5000 Du        
   2566 ****        14.5000   7.7500  15.7500 Du        
   2567 ****        14.5000   7.7500  16.0000 Du        
   2568 ****        14.5000   7.7500  16.2500 Du        
   2569 ****        14.5000   8.0000  14.0000 Du        
   2570 ****        14.5000   8.0000  14.2500 Du        
   2571 ****        14.5000   8.0000  14.5000 Du        
   2572 ****        14.5000   8.0000  14.7500 Du        
   2573 ****        14.5000   8.0000  15.0000 Du        
   2574 ****        14.5000   8.0000  15.2500 Du        
   2575 ****        14.5000   8.0000  15.5000 Du        
   2576 ****        14.5000   8.0000  15.7500 Du        
   2577 ****        14.5000   8.0000  16.0000 Du        
   2578 ****        14.5000   8.2500  13.7500 Du        
   2579 ****        14.5000   8.2500  14.0000 Du        
   2580 ****        14.5000   8.2500  14.2500 Du        
   2581 ****        14.5000   8.2500  14.5000 Du        
   2582 ****        14.5000   8.2500  14.7500 Du        
   2583 ****        14.5000   8.2500  15.0000 Du        
   2584 ****        14.5000   8.2500  15.2500 Du        
   2585 ****        14.5000   8.2500  15.5000 Du        
   2586 ****        14.5000   8.2500  15.7500 Du        
   2587 ****        14.5000   8.5000  13.5000 Du        
   2588 ****        14.5000   8.5000  13.7500 Du        
   2589 ****        14.5000   8.5000  14.0000 Du        
   2590 ****        14.5000   8.5000  14.2500 Du        
   2591 ****        14.5000   8.5000  14.5000 Du        
   2592 ****        14.5000   8.5000  14.7500 Du        
   2593 ****        14.5000   8.5000  15.0000 Du        
   2594 ****        14.5000   8.5000  15.2500 Du        
   2595 ****        14.5000   8.5000  15.5000 Du        
   2596 ****        14.5000   8.7500  13.2500 Du        
   2597 ****        14.5000   8.7500  13.5000 Du        
   2598 ****        14.5000   8.7500  13.7500 Du        
   2599 ****        14.5000   8.7500  14.0000 Du        
   2600 ****        14.5000   8.7500  14.2500 Du        
   2601 ****        14.5000   8.7500  14.5000 Du        
   2602 ****        14.5000   8.7500  14.7500 Du        
   2603 ****        14.5000   8.7500  15.0000 Du        
   2604 ****        14.5000   8.7500  15.2500 Du        
   2605 ****        14.5000   9.0000  13.0000 Du        
   2606 ****        14.5000   9.0000  13.2500 Du        
   2607 ****        14.5000   9.0000  13.5000 Du        
   2608 ****        14.5000   9.0000  13.7500 Du        
   2609 ****        14.5000   9.0000  14.0000 Du        
   2610 ****        14.5000   9.0000  14.2500 Du        
   2611 ****        14.5000   9.0000  14.5000 Du        
   2612 ****        14.5000   9.0000  14.7500 Du        
   2613 ****        14.5000   9.0000  15.0000 Du        
   2614 ****        14.5000   9.0000  15.2500 Du        
   2615 ****        14.5000   9.2500  13.0000 Du        
   2616 ****        14.5000   9.2500  13.2500 Du        
   2617 ****        14.5000   9.2500  13.5000 Du        
   2618 ****        14.5000   9.2500  13.7500 Du        
   2619 ****        14.5000   9.2500  14.0000 Du        
   2620 ****        14.5000   9.2500  14.2500 Du        
   2621 ****        14.5000   9.2500  14.5000 Du        
   2622 ****        14.5000   9.2500  14.7500 Du        
   2623 ****        14.5000   9.2500  15.0000 Du        
   2624 ****        14.5000   9.2500  15.2500 Du        
   2625 ****        14.5000   9.5000  13.0000 Du        
   2626 ****        14.5000   9.5000  13.2500 Du        
   2627 ****        14.5000   9.5000  13.5000 Du        
   2628 ****        14.5000   9.5000  13.7500 Du        
   2629 ****        14.5000   9.5000  14.0000 Du        
   2630 ****        14.5000   9.5000  14.2500 Du        
   2631 ****        14.5000   9.5000  14.5000 Du        
   2632 ****        14.5000   9.5000  14.7500 Du        
   2633 ****        14.5000   9.5000  15.0000 Du        
   2634 ****        14.5000   9.5000  15.2500 Du        
   2635 ****        14.5000   9.7500  13.0000 Du        
   2636 ****        14.5000   9.7500  13.2500 Du        
   2637 ****        14.5000   9.7500  13.5000 Du        
   2638 ****        14.5000   9.7500  13.7500 Du        
   2639 ****        14.5000   9.7500  14.0000 Du        
   2640 ****        14.5000   9.7500  14.2500 Du        
   2641 ****        14.5000   9.7500  14.5000 Du        
   2642 ****        14.5000   9.7500  14.7500 Du        
   2643 ****        14.5000   9.7500  15.0000 Du        
   2644 ****        14.5000   9.7500  15.2500 Du        
   2645 ****        14.5000  10.0000  13.0000 Du        
   2646 ****        14.5000  10.0000  13.2500 Du        
   2647 ****        14.5000  10.0000  13.5000 Du        
   2648 ****        14.5000  10.0000  13.7500 Du        
   2649 ****        14.5000  10.0000  14.0000 Du        
   2650 ****        14.5000  10.0000  14.2500 Du        
   2651 ****        14.5000  10.0000  14.5000 Du        
   2652 ****        14.5000  10.0000  14.7500 Du        
   2653 ****        14.5000  10.0000  15.0000 Du        
   2654 ****        14.5000  10.0000  15.2500 Du        
   2655 ****        14.5000  10.2500  13.7500 Du        
   2656 ****        14.5000  10.2500  14.0000 Du        
   2657 ****        14.5000  10.2500  14.2500 Du        
   2658 ****        14.5000  10.2500  14.5000 Du        
   2659 ****        14.5000  10.2500  14.7500 Du        
   2660 ****        14.5000  10.2500  15.0000 Du        
   2661 ****        14.5000  10.2500  15.2500 Du        
   2662 ****        14.5000  10.5000  14.2500 Du        
   2663 ****        14.5000  10.5000  15.2500 Du        
   2664 ****        14.5000  10.7500  15.2500 Du        
   2665 ****        14.5000  11.0000  15.0000 Du        
   2666 ****        14.5000  11.0000  15.2500 Du        
   2667 ****        14.5000  11.2500  15.0000 Du        
   2668 ****        14.7500   4.5000  16.0000 Du        
   2669 ****        14.7500   4.5000  16.2500 Du        
   2670 ****        14.7500   4.5000  16.5000 Du        
   2671 ****        14.7500   4.7500  15.7500 Du        
   2672 ****        14.7500   4.7500  16.0000 Du        
   2673 ****        14.7500   4.7500  16.2500 Du        
   2674 ****        14.7500   4.7500  16.5000 Du        
   2675 ****        14.7500   4.7500  16.7500 Du        
   2676 ****        14.7500   5.0000  15.5000 Du        
   2677 ****        14.7500   5.0000  15.7500 Du        
   2678 ****        14.7500   5.0000  16.0000 Du        
   2679 ****        14.7500   5.0000  16.2500 Du        
   2680 ****        14.7500   5.0000  16.5000 Du        
   2681 ****        14.7500   5.0000  16.7500 Du        
   2682 ****        14.7500   5.2500  15.5000 Du        
   2683 ****        14.7500   5.2500  15.7500 Du        
   2684 ****        14.7500   5.2500  16.0000 Du        
   2685 ****        14.7500   5.2500  16.2500 Du        
   2686 ****        14.7500   5.2500  16.5000 Du        
   2687 ****        14.7500   5.2500  16.7500 Du        
   2688 ****        14.7500   5.5000  15.2500 Du        
   2689 ****        14.7500   5.5000  15.5000 Du        
   2690 ****        14.7500   5.5000  15.7500 Du        
   2691 ****        14.7500   5.5000  16.0000 Du        
   2692 ****        14.7500   5.5000  16.2500 Du        
   2693 ****        14.7500   5.5000  16.5000 Du        
   2694 ****        14.7500   5.7500  15.2500 Du        
   2695 ****        14.7500   5.7500  15.5000 Du        
   2696 ****        14.7500   5.7500  15.7500 Du        
   2697 ****        14.7500   5.7500  16.0000 Du        
   2698 ****        14.7500   5.7500  16.2500 Du        
   2699 ****        14.7500   5.7500  16.5000 Du        
   2700 ****        14.7500   6.0000  15.2500 Du        
   2701 ****        14.7500   6.0000  15.5000 Du        
   2702 ****        14.7500   6.0000  15.7500 Du        
   2703 ****        14.7500   6.0000  16.0000 Du        
   2704 ****        14.7500   6.0000  16.2500 Du        
   2705 ****        14.7500   6.0000  16.5000 Du        
   2706 ****        14.7500   6.2500  15.0000 Du        
   2707 ****        14.7500   6.2500  15.2500 Du        
   2708 ****        14.7500   6.2500  15.5000 Du        
   2709 ****        14.7500   6.2500  15.7500 Du        
   2710 ****        14.7500   6.2500  16.0000 Du        
   2711 ****        14.7500   6.2500  16.2500 Du        
   2712 ****        14.7500   6.2500  16.5000 Du        
   2713 ****        14.7500   6.5000  15.0000 Du        
   2714 ****        14.7500   6.5000  15.2500 Du        
   2715 ****        14.7500   6.5000  15.5000 Du        
   2716 ****        14.7500   6.5000  15.7500 Du        
   2717 ****        14.7500   6.5000  16.0000 Du        
   2718 ****        14.7500   6.5000  16.2500 Du        
   2719 ****        14.7500   6.5000  16.5000 Du        
   2720 ****        14.7500   6.7500  14.7500 Du        
   2721 ****        14.7500   6.7500  15.0000 Du        
   2722 ****        14.7500   6.7500  15.2500 Du        
   2723 ****        14.7500   6.7500  15.5000 Du        
   2724 ****        14.7500   6.7500  15.7500 Du        
   2725 ****        14.7500   6.7500  16.0000 Du        
   2726 ****        14.7500   6.7500  16.2500 Du        
   2727 ****        14.7500   7.0000  14.7500 Du        
   2728 ****        14.7500   7.0000  15.0000 Du        
   2729 ****        14.7500   7.0000  15.2500 Du        
   2730 ****        14.7500   7.0000  15.5000 Du        
   2731 ****        14.7500   7.0000  15.7500 Du        
   2732 ****        14.7500   7.0000  16.0000 Du        
   2733 ****        14.7500   7.0000  16.2500 Du        
   2734 ****        14.7500   7.2500  14.5000 Du        
   2735 ****        14.7500   7.2500  14.7500 Du        
   2736 ****        14.7500   7.2500  15.0000 Du        
   2737 ****        14.7500   7.2500  15.2500 Du        
   2738 ****        14.7500   7.2500  15.5000 Du        
   2739 ****        14.7500   7.2500  15.7500 Du        
   2740 ****        14.7500   7.2500  16.0000 Du        
   2741 ****        14.7500   7.2500  16.2500 Du        
   2742 ****        14.7500   7.5000  14.5000 Du        
   2743 ****        14.7500   7.5000  14.7500 Du        
   2744 ****        14.7500   7.5000  15.0000 Du        
   2745 ****        14.7500   7.5000  15.2500 Du        
   2746 ****        14.7500   7.5000  15.5000 Du        
   2747 ****        14.7500   7.5000  15.7500 Du        
   2748 ****        14.7500   7.5000  16.0000 Du        
   2749 ****        14.7500   7.5000  16.2500 Du        
   2750 ****        14.7500   7.7500  14.2500 Du        
   2751 ****        14.7500   7.7500  14.5000 Du        
   2752 ****        14.7500   7.7500  14.7500 Du        
   2753 ****        14.7500   7.7500  15.0000 Du        
   2754 ****        14.7500   7.7500  15.2500 Du        
   2755 ****        14.7500   7.7500  15.5000 Du        
   2756 ****        14.7500   7.7500  15.7500 Du        
   2757 ****        14.7500   7.7500  16.0000 Du        
   2758 ****        14.7500   7.7500  16.2500 Du        
   2759 ****        14.7500   8.0000  13.7500 Du        
   2760 ****        14.7500   8.0000  14.0000 Du        
   2761 ****        14.7500   8.0000  14.2500 Du        
   2762 ****        14.7500   8.0000  14.5000 Du        
   2763 ****        14.7500   8.0000  14.7500 Du        
   2764 ****        14.7500   8.0000  15.0000 Du        
   2765 ****        14.7500   8.0000  15.2500 Du        
   2766 ****        14.7500   8.0000  15.5000 Du        
   2767 ****        14.7500   8.0000  15.7500 Du        
   2768 ****        14.7500   8.0000  16.0000 Du        
   2769 ****        14.7500   8.0000  16.2500 Du        
   2770 ****        14.7500   8.2500  13.5000 Du        
   2771 ****        14.7500   8.2500  13.7500 Du        
   2772 ****        14.7500   8.2500  14.0000 Du        
   2773 ****        14.7500   8.2500  14.2500 Du        
   2774 ****        14.7500   8.2500  14.5000 Du        
   2775 ****        14.7500   8.2500  14.7500 Du        
   2776 ****        14.7500   8.2500  15.0000 Du        
   2777 ****        14.7500   8.2500  15.2500 Du        
   2778 ****        14.7500   8.2500  15.5000 Du        
   2779 ****        14.7500   8.2500  15.7500 Du        
   2780 ****        14.7500   8.2500  16.0000 Du        
   2781 ****        14.7500   8.5000  13.2500 Du        
   2782 ****        14.7500   8.5000  13.5000 Du        
   2783 ****        14.7500   8.5000  13.7500 Du        
   2784 ****        14.7500   8.5000  14.0000 Du        
   2785 ****        14.7500   8.5000  14.2500 Du        
   2786 ****        14.7500   8.5000  14.5000 Du        
   2787 ****        14.7500   8.5000  14.7500 Du        
   2788 ****        14.7500   8.5000  15.0000 Du        
   2789 ****        14.7500   8.5000  15.2500 Du        
   2790 ****        14.7500   8.5000  15.5000 Du        
   2791 ****        14.7500   8.7500  12.7500 Du        
   2792 ****        14.7500   8.7500  13.0000 Du        
   2793 ****        14.7500   8.7500  13.2500 Du        
   2794 ****        14.7500   8.7500  13.5000 Du        
   2795 ****        14.7500   8.7500  13.7500 Du        
   2796 ****        14.7500   8.7500  14.0000 Du        
   2797 ****        14.7500   8.7500  14.2500 Du        
   2798 ****        14.7500   8.7500  14.5000 Du        
   2799 ****        14.7500   8.7500  14.7500 Du        
   2800 ****        14.7500   8.7500  15.0000 Du        
   2801 ****        14.7500   8.7500  15.2500 Du        
   2802 ****        14.7500   8.7500  15.5000 Du        
   2803 ****        14.7500   9.0000  12.7500 Du        
   2804 ****        14.7500   9.0000  13.0000 Du        
   2805 ****        14.7500   9.0000  13.2500 Du        
   2806 ****        14.7500   9.0000  13.5000 Du        
   2807 ****        14.7500   9.0000  13.7500 Du        
   2808 ****        14.7500   9.0000  14.0000 Du        
   2809 ****        14.7500   9.0000  14.2500 Du        
   2810 ****        14.7500   9.0000  14.5000 Du        
   2811 ****        14.7500   9.0000  14.7500 Du        
   2812 ****        14.7500   9.0000  15.0000 Du        
   2813 ****        14.7500   9.0000  15.2500 Du        
   2814 ****        14.7500   9.0000  15.5000 Du        
   2815 ****        14.7500   9.0000  15.7500 Du        
   2816 ****        14.7500   9.2500  12.5000 Du        
   2817 ****        14.7500   9.2500  12.7500 Du        
   2818 ****        14.7500   9.2500  13.0000 Du        
   2819 ****        14.7500   9.2500  13.2500 Du        
   2820 ****        14.7500   9.2500  13.5000 Du        
   2821 ****        14.7500   9.2500  13.7500 Du        
   2822 ****        14.7500   9.2500  14.0000 Du        
   2823 ****        14.7500   9.2500  14.2500 Du        
   2824 ****        14.7500   9.2500  14.5000 Du        
   2825 ****        14.7500   9.2500  14.7500 Du        
   2826 ****        14.7500   9.2500  15.0000 Du        
   2827 ****        14.7500   9.2500  15.2500 Du        
   2828 ****        14.7500   9.2500  15.5000 Du        
   2829 ****        14.7500   9.5000  12.5000 Du        
   2830 ****        14.7500   9.5000  12.7500 Du        
   2831 ****        14.7500   9.5000  13.0000 Du        
   2832 ****        14.7500   9.5000  13.2500 Du        
   2833 ****        14.7500   9.5000  13.5000 Du        
   2834 ****        14.7500   9.5000  13.7500 Du        
   2835 ****        14.7500   9.5000  14.0000 Du        
   2836 ****        14.7500   9.5000  14.2500 Du        
   2837 ****        14.7500   9.5000  14.5000 Du        
   2838 ****        14.7500   9.5000  14.7500 Du        
   2839 ****        14.7500   9.5000  15.0000 Du        
   2840 ****        14.7500   9.5000  15.2500 Du        
   2841 ****        14.7500   9.7500  12.5000 Du        
   2842 ****        14.7500   9.7500  12.7500 Du        
   2843 ****        14.7500   9.7500  13.0000 Du        
   2844 ****        14.7500   9.7500  13.2500 Du        
   2845 ****        14.7500   9.7500  13.5000 Du        
   2846 ****        14.7500   9.7500  13.7500 Du        
   2847 ****        14.7500   9.7500  14.0000 Du        
   2848 ****        14.7500   9.7500  14.2500 Du        
   2849 ****        14.7500   9.7500  14.5000 Du        
   2850 ****        14.7500   9.7500  14.7500 Du        
   2851 ****        14.7500   9.7500  15.0000 Du        
   2852 ****        14.7500   9.7500  15.2500 Du        
   2853 ****        14.7500  10.0000  12.7500 Du        
   2854 ****        14.7500  10.0000  13.0000 Du        
   2855 ****        14.7500  10.0000  13.2500 Du        
   2856 ****        14.7500  10.0000  13.5000 Du        
   2857 ****        14.7500  10.0000  13.7500 Du        
   2858 ****        14.7500  10.0000  14.0000 Du        
   2859 ****        14.7500  10.0000  14.2500 Du        
   2860 ****        14.7500  10.0000  14.5000 Du        
   2861 ****        14.7500  10.0000  14.7500 Du        
   2862 ****        14.7500  10.0000  15.0000 Du        
   2863 ****        14.7500  10.0000  15.2500 Du        
   2864 ****        14.7500  10.2500  13.5000 Du        
   2865 ****        14.7500  10.2500  13.7500 Du        
   2866 ****        14.7500  10.2500  14.0000 Du        
   2867 ****        14.7500  10.2500  14.2500 Du        
   2868 ****        14.7500  10.2500  14.5000 Du        
   2869 ****        14.7500  10.2500  14.7500 Du        
   2870 ****        14.7500  10.2500  15.0000 Du        
   2871 ****        14.7500  10.2500  15.2500 Du        
   2872 ****        14.7500  10.5000  14.0000 Du        
   2873 ****        14.7500  10.5000  14.2500 Du        
   2874 ****        14.7500  10.5000  14.5000 Du        
   2875 ****        14.7500  10.5000  14.7500 Du        
   2876 ****        14.7500  10.5000  15.0000 Du        
   2877 ****        14.7500  10.5000  15.2500 Du        
   2878 ****        14.7500  10.7500  14.2500 Du        
   2879 ****        14.7500  10.7500  14.5000 Du        
   2880 ****        14.7500  10.7500  14.7500 Du        
   2881 ****        14.7500  10.7500  15.0000 Du        
   2882 ****        14.7500  10.7500  15.2500 Du        
   2883 ****        14.7500  11.0000  14.7500 Du        
   2884 ****        14.7500  11.0000  15.0000 Du        
   2885 ****        14.7500  11.0000  15.2500 Du        
   2886 ****        14.7500  11.2500  15.0000 Du        
   2887 ****        14.7500  11.2500  15.2500 Du        
   2888 ****        15.0000   4.7500  16.0000 Du        
   2889 ****        15.0000   4.7500  16.2500 Du        
   2890 ****        15.0000   5.0000  15.7500 Du        
   2891 ****        15.0000   5.0000  16.0000 Du        
   2892 ****        15.0000   5.0000  16.2500 Du        
   2893 ****        15.0000   5.0000  16.5000 Du        
   2894 ****        15.0000   5.0000  16.7500 Du        
   2895 ****        15.0000   5.2500  15.5000 Du        
   2896 ****        15.0000   5.2500  15.7500 Du        
   2897 ****        15.0000   5.2500  16.0000 Du        
   2898 ****        15.0000   5.2500  16.2500 Du        
   2899 ****        15.0000   5.2500  16.5000 Du        
   2900 ****        15.0000   5.2500  16.7500 Du        
   2901 ****        15.0000   5.5000  15.2500 Du        
   2902 ****        15.0000   5.5000  15.5000 Du        
   2903 ****        15.0000   5.5000  15.7500 Du        
   2904 ****        15.0000   5.5000  16.0000 Du        
   2905 ****        15.0000   5.5000  16.2500 Du        
   2906 ****        15.0000   5.5000  16.5000 Du        
   2907 ****        15.0000   5.7500  15.2500 Du        
   2908 ****        15.0000   5.7500  15.5000 Du        
   2909 ****        15.0000   5.7500  15.7500 Du        
   2910 ****        15.0000   5.7500  16.0000 Du        
   2911 ****        15.0000   5.7500  16.2500 Du        
   2912 ****        15.0000   5.7500  16.5000 Du        
   2913 ****        15.0000   6.0000  15.0000 Du        
   2914 ****        15.0000   6.0000  15.2500 Du        
   2915 ****        15.0000   6.0000  15.5000 Du        
   2916 ****        15.0000   6.0000  15.7500 Du        
   2917 ****        15.0000   6.0000  16.0000 Du        
   2918 ****        15.0000   6.0000  16.2500 Du        
   2919 ****        15.0000   6.0000  16.5000 Du        
   2920 ****        15.0000   6.0000  16.7500 Du        
   2921 ****        15.0000   6.2500  15.0000 Du        
   2922 ****        15.0000   6.2500  15.2500 Du        
   2923 ****        15.0000   6.2500  15.5000 Du        
   2924 ****        15.0000   6.2500  15.7500 Du        
   2925 ****        15.0000   6.2500  16.0000 Du        
   2926 ****        15.0000   6.2500  16.2500 Du        
   2927 ****        15.0000   6.2500  16.5000 Du        
   2928 ****        15.0000   6.2500  16.7500 Du        
   2929 ****        15.0000   6.5000  14.7500 Du        
   2930 ****        15.0000   6.5000  15.0000 Du        
   2931 ****        15.0000   6.5000  15.2500 Du        
   2932 ****        15.0000   6.5000  15.5000 Du        
   2933 ****        15.0000   6.5000  15.7500 Du        
   2934 ****        15.0000   6.5000  16.0000 Du        
   2935 ****        15.0000   6.5000  16.2500 Du        
   2936 ****        15.0000   6.7500  14.7500 Du        
   2937 ****        15.0000   6.7500  15.0000 Du        
   2938 ****        15.0000   6.7500  15.2500 Du        
   2939 ****        15.0000   6.7500  15.5000 Du        
   2940 ****        15.0000   6.7500  15.7500 Du        
   2941 ****        15.0000   6.7500  16.0000 Du        
   2942 ****        15.0000   6.7500  16.2500 Du        
   2943 ****        15.0000   7.0000  14.5000 Du        
   2944 ****        15.0000   7.0000  14.7500 Du        
   2945 ****        15.0000   7.0000  15.0000 Du        
   2946 ****        15.0000   7.0000  15.2500 Du        
   2947 ****        15.0000   7.0000  15.5000 Du        
   2948 ****        15.0000   7.0000  15.7500 Du        
   2949 ****        15.0000   7.0000  16.0000 Du        
   2950 ****        15.0000   7.0000  16.2500 Du        
   2951 ****        15.0000   7.2500  14.5000 Du        
   2952 ****        15.0000   7.2500  14.7500 Du        
   2953 ****        15.0000   7.2500  15.0000 Du        
   2954 ****        15.0000   7.2500  15.2500 Du        
   2955 ****        15.0000   7.2500  15.5000 Du        
   2956 ****        15.0000   7.2500  15.7500 Du        
   2957 ****        15.0000   7.2500  16.0000 Du        
   2958 ****        15.0000   7.2500  16.2500 Du        
   2959 ****        15.0000   7.5000  14.2500 Du        
   2960 ****        15.0000   7.5000  14.5000 Du        
   2961 ****        15.0000   7.5000  14.7500 Du        
   2962 ****        15.0000   7.5000  15.0000 Du        
   2963 ****        15.0000   7.5000  15.2500 Du        
   2964 ****        15.0000   7.5000  15.5000 Du        
   2965 ****        15.0000   7.5000  15.7500 Du        
   2966 ****        15.0000   7.5000  16.0000 Du        
   2967 ****        15.0000   7.5000  16.2500 Du        
   2968 ****        15.0000   7.7500  14.0000 Du        
   2969 ****        15.0000   7.7500  14.2500 Du        
   2970 ****        15.0000   7.7500  14.5000 Du        
   2971 ****        15.0000   7.7500  14.7500 Du        
   2972 ****        15.0000   7.7500  15.0000 Du        
   2973 ****        15.0000   7.7500  15.2500 Du        
   2974 ****        15.0000   7.7500  15.5000 Du        
   2975 ****        15.0000   7.7500  15.7500 Du        
   2976 ****        15.0000   7.7500  16.0000 Du        
   2977 ****        15.0000   7.7500  16.2500 Du        
   2978 ****        15.0000   8.0000  13.7500 Du        
   2979 ****        15.0000   8.0000  14.0000 Du        
   2980 ****        15.0000   8.0000  14.2500 Du        
   2981 ****        15.0000   8.0000  14.5000 Du        
   2982 ****        15.0000   8.0000  14.7500 Du        
   2983 ****        15.0000   8.0000  15.0000 Du        
   2984 ****        15.0000   8.0000  15.2500 Du        
   2985 ****        15.0000   8.0000  15.5000 Du        
   2986 ****        15.0000   8.0000  15.7500 Du        
   2987 ****        15.0000   8.0000  16.0000 Du        
   2988 ****        15.0000   8.0000  16.2500 Du        
   2989 ****        15.0000   8.2500  13.2500 Du        
   2990 ****        15.0000   8.2500  13.5000 Du        
   2991 ****        15.0000   8.2500  13.7500 Du        
   2992 ****        15.0000   8.2500  14.0000 Du        
   2993 ****        15.0000   8.2500  14.2500 Du        
   2994 ****        15.0000   8.2500  14.5000 Du        
   2995 ****        15.0000   8.2500  14.7500 Du        
   2996 ****        15.0000   8.2500  15.0000 Du        
   2997 ****        15.0000   8.2500  15.2500 Du        
   2998 ****        15.0000   8.2500  15.5000 Du        
   2999 ****        15.0000   8.2500  15.7500 Du        
   3000 ****        15.0000   8.2500  16.0000 Du        
   3001 ****        15.0000   8.5000  13.0000 Du        
   3002 ****        15.0000   8.5000  13.2500 Du        
   3003 ****        15.0000   8.5000  13.5000 Du        
   3004 ****        15.0000   8.5000  13.7500 Du        
   3005 ****        15.0000   8.5000  14.0000 Du        
   3006 ****        15.0000   8.5000  14.2500 Du        
   3007 ****        15.0000   8.5000  14.5000 Du        
   3008 ****        15.0000   8.5000  14.7500 Du        
   3009 ****        15.0000   8.5000  15.0000 Du        
   3010 ****        15.0000   8.5000  15.2500 Du        
   3011 ****        15.0000   8.5000  15.5000 Du        
   3012 ****        15.0000   8.7500  12.5000 Du        
   3013 ****        15.0000   8.7500  12.7500 Du        
   3014 ****        15.0000   8.7500  13.0000 Du        
   3015 ****        15.0000   8.7500  13.2500 Du        
   3016 ****        15.0000   8.7500  13.5000 Du        
   3017 ****        15.0000   8.7500  13.7500 Du        
   3018 ****        15.0000   8.7500  14.0000 Du        
   3019 ****        15.0000   8.7500  14.2500 Du        
   3020 ****        15.0000   8.7500  14.5000 Du        
   3021 ****        15.0000   8.7500  14.7500 Du        
   3022 ****        15.0000   8.7500  15.0000 Du        
   3023 ****        15.0000   8.7500  15.2500 Du        
   3024 ****        15.0000   8.7500  15.5000 Du        
   3025 ****        15.0000   8.7500  15.7500 Du        
   3026 ****        15.0000   9.0000  12.2500 Du        
   3027 ****        15.0000   9.0000  12.5000 Du        
   3028 ****        15.0000   9.0000  12.7500 Du        
   3029 ****        15.0000   9.0000  13.0000 Du        
   3030 ****        15.0000   9.0000  13.2500 Du        
   3031 ****        15.0000   9.0000  13.5000 Du        
   3032 ****        15.0000   9.0000  13.7500 Du        
   3033 ****        15.0000   9.0000  14.0000 Du        
   3034 ****        15.0000   9.0000  14.2500 Du        
   3035 ****        15.0000   9.0000  14.5000 Du        
   3036 ****        15.0000   9.0000  14.7500 Du        
   3037 ****        15.0000   9.0000  15.0000 Du        
   3038 ****        15.0000   9.0000  15.2500 Du        
   3039 ****        15.0000   9.0000  15.5000 Du        
   3040 ****        15.0000   9.2500  12.2500 Du        
   3041 ****        15.0000   9.2500  12.5000 Du        
   3042 ****        15.0000   9.2500  12.7500 Du        
   3043 ****        15.0000   9.2500  13.0000 Du        
   3044 ****        15.0000   9.2500  13.2500 Du        
   3045 ****        15.0000   9.2500  13.5000 Du        
   3046 ****        15.0000   9.2500  13.7500 Du        
   3047 ****        15.0000   9.2500  14.0000 Du        
   3048 ****        15.0000   9.2500  14.2500 Du        
   3049 ****        15.0000   9.2500  14.5000 Du        
   3050 ****        15.0000   9.2500  14.7500 Du        
   3051 ****        15.0000   9.2500  15.0000 Du        
   3052 ****        15.0000   9.2500  15.2500 Du        
   3053 ****        15.0000   9.2500  15.5000 Du        
   3054 ****        15.0000   9.5000  12.2500 Du        
   3055 ****        15.0000   9.5000  12.5000 Du        
   3056 ****        15.0000   9.5000  12.7500 Du        
   3057 ****        15.0000   9.5000  13.0000 Du        
   3058 ****        15.0000   9.5000  13.2500 Du        
   3059 ****        15.0000   9.5000  13.5000 Du        
   3060 ****        15.0000   9.5000  13.7500 Du        
   3061 ****        15.0000   9.5000  14.0000 Du        
   3062 ****        15.0000   9.5000  14.2500 Du        
   3063 ****        15.0000   9.5000  14.5000 Du        
   3064 ****        15.0000   9.5000  14.7500 Du        
   3065 ****        15.0000   9.5000  15.0000 Du        
   3066 ****        15.0000   9.5000  15.2500 Du        
   3067 ****        15.0000   9.7500  12.0000 Du        
   3068 ****        15.0000   9.7500  12.2500 Du        
   3069 ****        15.0000   9.7500  12.5000 Du        
   3070 ****        15.0000   9.7500  12.7500 Du        
   3071 ****        15.0000   9.7500  13.0000 Du        
   3072 ****        15.0000   9.7500  13.2500 Du        
   3073 ****        15.0000   9.7500  13.5000 Du        
   3074 ****        15.0000   9.7500  13.7500 Du        
   3075 ****        15.0000   9.7500  14.0000 Du        
   3076 ****        15.0000   9.7500  14.2500 Du        
   3077 ****        15.0000   9.7500  14.5000 Du        
   3078 ****        15.0000   9.7500  14.7500 Du        
   3079 ****        15.0000   9.7500  15.0000 Du        
   3080 ****        15.0000   9.7500  15.2500 Du        
   3081 ****        15.0000  10.0000  12.2500 Du        
   3082 ****        15.0000  10.0000  12.5000 Du        
   3083 ****        15.0000  10.0000  12.7500 Du        
   3084 ****        15.0000  10.0000  13.0000 Du        
   3085 ****        15.0000  10.0000  13.2500 Du        
   3086 ****        15.0000  10.0000  13.5000 Du        
   3087 ****        15.0000  10.0000  13.7500 Du        
   3088 ****        15.0000  10.0000  14.0000 Du        
   3089 ****        15.0000  10.0000  14.2500 Du        
   3090 ****        15.0000  10.0000  14.5000 Du        
   3091 ****        15.0000  10.0000  14.7500 Du        
   3092 ****        15.0000  10.0000  15.0000 Du        
   3093 ****        15.0000  10.0000  15.2500 Du        
   3094 ****        15.0000  10.2500  13.2500 Du        
   3095 ****        15.0000  10.2500  13.5000 Du        
   3096 ****        15.0000  10.2500  13.7500 Du        
   3097 ****        15.0000  10.2500  14.0000 Du        
   3098 ****        15.0000  10.2500  14.2500 Du        
   3099 ****        15.0000  10.2500  14.5000 Du        
   3100 ****        15.0000  10.2500  14.7500 Du        
   3101 ****        15.0000  10.2500  15.0000 Du        
   3102 ****        15.0000  10.2500  15.2500 Du        
   3103 ****        15.0000  10.5000  13.7500 Du        
   3104 ****        15.0000  10.5000  14.0000 Du        
   3105 ****        15.0000  10.5000  14.2500 Du        
   3106 ****        15.0000  10.5000  14.5000 Du        
   3107 ****        15.0000  10.5000  14.7500 Du        
   3108 ****        15.0000  10.5000  15.0000 Du        
   3109 ****        15.0000  10.5000  15.2500 Du        
   3110 ****        15.0000  10.7500  14.2500 Du        
   3111 ****        15.0000  10.7500  14.5000 Du        
   3112 ****        15.0000  10.7500  14.7500 Du        
   3113 ****        15.0000  10.7500  15.0000 Du        
   3114 ****        15.0000  10.7500  15.2500 Du        
   3115 ****        15.0000  11.0000  14.7500 Du        
   3116 ****        15.0000  11.0000  15.0000 Du        
   3117 ****        15.0000  11.2500  14.7500 Du        
   3118 ****        15.0000  11.2500  15.0000 Du        
   3119 ****        15.2500   5.0000  16.0000 Du        
   3120 ****        15.2500   5.0000  16.2500 Du        
   3121 ****        15.2500   5.2500  15.7500 Du        
   3122 ****        15.2500   5.2500  16.0000 Du        
   3123 ****        15.2500   5.2500  16.2500 Du        
   3124 ****        15.2500   5.2500  16.5000 Du        
   3125 ****        15.2500   5.2500  16.7500 Du        
   3126 ****        15.2500   5.5000  15.5000 Du        
   3127 ****        15.2500   5.5000  15.7500 Du        
   3128 ****        15.2500   5.5000  16.0000 Du        
   3129 ****        15.2500   5.5000  16.2500 Du        
   3130 ****        15.2500   5.5000  16.5000 Du        
   3131 ****        15.2500   5.7500  15.2500 Du        
   3132 ****        15.2500   5.7500  15.5000 Du        
   3133 ****        15.2500   5.7500  15.7500 Du        
   3134 ****        15.2500   5.7500  16.0000 Du        
   3135 ****        15.2500   5.7500  16.2500 Du        
   3136 ****        15.2500   5.7500  16.5000 Du        
   3137 ****        15.2500   5.7500  16.7500 Du        
   3138 ****        15.2500   6.0000  15.0000 Du        
   3139 ****        15.2500   6.0000  15.2500 Du        
   3140 ****        15.2500   6.0000  15.5000 Du        
   3141 ****        15.2500   6.0000  15.7500 Du        
   3142 ****        15.2500   6.0000  16.0000 Du        
   3143 ****        15.2500   6.0000  16.2500 Du        
   3144 ****        15.2500   6.0000  16.5000 Du        
   3145 ****        15.2500   6.0000  16.7500 Du        
   3146 ****        15.2500   6.2500  15.0000 Du        
   3147 ****        15.2500   6.2500  15.2500 Du        
   3148 ****        15.2500   6.2500  15.5000 Du        
   3149 ****        15.2500   6.2500  15.7500 Du        
   3150 ****        15.2500   6.2500  16.0000 Du        
   3151 ****        15.2500   6.2500  16.2500 Du        
   3152 ****        15.2500   6.2500  16.5000 Du        
   3153 ****        15.2500   6.2500  16.7500 Du        
   3154 ****        15.2500   6.5000  14.7500 Du        
   3155 ****        15.2500   6.5000  15.0000 Du        
   3156 ****        15.2500   6.5000  15.2500 Du        
   3157 ****        15.2500   6.5000  15.5000 Du        
   3158 ****        15.2500   6.5000  15.7500 Du        
   3159 ****        15.2500   6.5000  16.0000 Du        
   3160 ****        15.2500   6.5000  16.2500 Du        
   3161 ****        15.2500   6.7500  14.7500 Du        
   3162 ****        15.2500   6.7500  15.0000 Du        
   3163 ****        15.2500   6.7500  15.2500 Du        
   3164 ****        15.2500   6.7500  15.5000 Du        
   3165 ****        15.2500   6.7500  15.7500 Du        
   3166 ****        15.2500   6.7500  16.0000 Du        
   3167 ****        15.2500   6.7500  16.2500 Du        
   3168 ****        15.2500   7.0000  14.5000 Du        
   3169 ****        15.2500   7.0000  14.7500 Du        
   3170 ****        15.2500   7.0000  15.0000 Du        
   3171 ****        15.2500   7.0000  15.2500 Du        
   3172 ****        15.2500   7.0000  15.5000 Du        
   3173 ****        15.2500   7.0000  15.7500 Du        
   3174 ****        15.2500   7.0000  16.0000 Du        
   3175 ****        15.2500   7.0000  16.2500 Du        
   3176 ****        15.2500   7.2500  14.5000 Du        
   3177 ****        15.2500   7.2500  14.7500 Du        
   3178 ****        15.2500   7.2500  15.0000 Du        
   3179 ****        15.2500   7.2500  15.2500 Du        
   3180 ****        15.2500   7.2500  15.5000 Du        
   3181 ****        15.2500   7.2500  15.7500 Du        
   3182 ****        15.2500   7.2500  16.0000 Du        
   3183 ****        15.2500   7.2500  16.2500 Du        
   3184 ****        15.2500   7.5000  14.2500 Du        
   3185 ****        15.2500   7.5000  14.5000 Du        
   3186 ****        15.2500   7.5000  14.7500 Du        
   3187 ****        15.2500   7.5000  15.0000 Du        
   3188 ****        15.2500   7.5000  15.2500 Du        
   3189 ****        15.2500   7.5000  15.5000 Du        
   3190 ****        15.2500   7.5000  15.7500 Du        
   3191 ****        15.2500   7.5000  16.0000 Du        
   3192 ****        15.2500   7.5000  16.2500 Du        
   3193 ****        15.2500   7.7500  14.0000 Du        
   3194 ****        15.2500   7.7500  14.2500 Du        
   3195 ****        15.2500   7.7500  14.5000 Du        
   3196 ****        15.2500   7.7500  14.7500 Du        
   3197 ****        15.2500   7.7500  15.0000 Du        
   3198 ****        15.2500   7.7500  15.2500 Du        
   3199 ****        15.2500   7.7500  15.5000 Du        
   3200 ****        15.2500   7.7500  15.7500 Du        
   3201 ****        15.2500   7.7500  16.0000 Du        
   3202 ****        15.2500   7.7500  16.2500 Du        
   3203 ****        15.2500   8.0000  13.7500 Du        
   3204 ****        15.2500   8.0000  14.0000 Du        
   3205 ****        15.2500   8.0000  14.2500 Du        
   3206 ****        15.2500   8.0000  14.5000 Du        
   3207 ****        15.2500   8.0000  14.7500 Du        
   3208 ****        15.2500   8.0000  15.0000 Du        
   3209 ****        15.2500   8.0000  15.2500 Du        
   3210 ****        15.2500   8.0000  15.5000 Du        
   3211 ****        15.2500   8.0000  15.7500 Du        
   3212 ****        15.2500   8.0000  16.0000 Du        
   3213 ****        15.2500   8.0000  16.2500 Du        
   3214 ****        15.2500   8.2500  13.2500 Du        
   3215 ****        15.2500   8.2500  13.5000 Du        
   3216 ****        15.2500   8.2500  13.7500 Du        
   3217 ****        15.2500   8.2500  14.0000 Du        
   3218 ****        15.2500   8.2500  14.2500 Du        
   3219 ****        15.2500   8.2500  14.5000 Du        
   3220 ****        15.2500   8.2500  14.7500 Du        
   3221 ****        15.2500   8.2500  15.0000 Du        
   3222 ****        15.2500   8.2500  15.2500 Du        
   3223 ****        15.2500   8.2500  15.5000 Du        
   3224 ****        15.2500   8.2500  15.7500 Du        
   3225 ****        15.2500   8.5000  12.7500 Du        
   3226 ****        15.2500   8.5000  13.0000 Du        
   3227 ****        15.2500   8.5000  13.2500 Du        
   3228 ****        15.2500   8.5000  13.5000 Du        
   3229 ****        15.2500   8.5000  13.7500 Du        
   3230 ****        15.2500   8.5000  14.0000 Du        
   3231 ****        15.2500   8.5000  14.2500 Du        
   3232 ****        15.2500   8.5000  14.5000 Du        
   3233 ****        15.2500   8.5000  14.7500 Du        
   3234 ****        15.2500   8.5000  15.0000 Du        
   3235 ****        15.2500   8.5000  15.2500 Du        
   3236 ****        15.2500   8.5000  15.5000 Du        
   3237 ****        15.2500   8.7500  12.0000 Du        
   3238 ****        15.2500   8.7500  12.2500 Du        
   3239 ****        15.2500   8.7500  12.5000 Du        
   3240 ****        15.2500   8.7500  12.7500 Du        
   3241 ****        15.2500   8.7500  13.0000 Du        
   3242 ****        15.2500   8.7500  13.2500 Du        
   3243 ****        15.2500   8.7500  13.5000 Du        
   3244 ****        15.2500   8.7500  13.7500 Du        
   3245 ****        15.2500   8.7500  14.0000 Du        
   3246 ****        15.2500   8.7500  14.2500 Du        
   3247 ****        15.2500   8.7500  14.5000 Du        
   3248 ****        15.2500   8.7500  14.7500 Du        
   3249 ****        15.2500   8.7500  15.0000 Du        
   3250 ****        15.2500   8.7500  15.2500 Du        
   3251 ****        15.2500   8.7500  15.5000 Du        
   3252 ****        15.2500   9.0000  11.7500 Du        
   3253 ****        15.2500   9.0000  12.0000 Du        
   3254 ****        15.2500   9.0000  12.2500 Du        
   3255 ****        15.2500   9.0000  12.5000 Du        
   3256 ****        15.2500   9.0000  12.7500 Du        
   3257 ****        15.2500   9.0000  13.0000 Du        
   3258 ****        15.2500   9.0000  13.2500 Du        
   3259 ****        15.2500   9.0000  13.5000 Du        
   3260 ****        15.2500   9.0000  13.7500 Du        
   3261 ****        15.2500   9.0000  14.0000 Du        
   3262 ****        15.2500   9.0000  14.2500 Du        
   3263 ****        15.2500   9.0000  14.5000 Du        
   3264 ****        15.2500   9.0000  14.7500 Du        
   3265 ****        15.2500   9.0000  15.0000 Du        
   3266 ****        15.2500   9.0000  15.2500 Du        
   3267 ****        15.2500   9.2500  11.7500 Du        
   3268 ****        15.2500   9.2500  12.0000 Du        
   3269 ****        15.2500   9.2500  12.2500 Du        
   3270 ****        15.2500   9.2500  12.5000 Du        
   3271 ****        15.2500   9.2500  12.7500 Du        
   3272 ****        15.2500   9.2500  13.0000 Du        
   3273 ****        15.2500   9.2500  13.2500 Du        
   3274 ****        15.2500   9.2500  13.5000 Du        
   3275 ****        15.2500   9.2500  13.7500 Du        
   3276 ****        15.2500   9.2500  14.0000 Du        
   3277 ****        15.2500   9.2500  14.2500 Du        
   3278 ****        15.2500   9.2500  14.5000 Du        
   3279 ****        15.2500   9.2500  14.7500 Du        
   3280 ****        15.2500   9.2500  15.0000 Du        
   3281 ****        15.2500   9.2500  15.2500 Du        
   3282 ****        15.2500   9.5000  12.0000 Du        
   3283 ****        15.2500   9.5000  12.2500 Du        
   3284 ****        15.2500   9.5000  12.5000 Du        
   3285 ****        15.2500   9.5000  12.7500 Du        
   3286 ****        15.2500   9.5000  13.0000 Du        
   3287 ****        15.2500   9.5000  13.2500 Du        
   3288 ****        15.2500   9.5000  13.5000 Du        
   3289 ****        15.2500   9.5000  13.7500 Du        
   3290 ****        15.2500   9.5000  14.0000 Du        
   3291 ****        15.2500   9.5000  14.2500 Du        
   3292 ****        15.2500   9.5000  14.5000 Du        
   3293 ****        15.2500   9.5000  14.7500 Du        
   3294 ****        15.2500   9.5000  15.0000 Du        
   3295 ****        15.2500   9.5000  15.2500 Du        
   3296 ****        15.2500   9.7500  12.0000 Du        
   3297 ****        15.2500   9.7500  12.2500 Du        
   3298 ****        15.2500   9.7500  12.5000 Du        
   3299 ****        15.2500   9.7500  12.7500 Du        
   3300 ****        15.2500   9.7500  13.0000 Du        
   3301 ****        15.2500   9.7500  13.2500 Du        
   3302 ****        15.2500   9.7500  13.5000 Du        
   3303 ****        15.2500   9.7500  13.7500 Du        
   3304 ****        15.2500   9.7500  14.0000 Du        
   3305 ****        15.2500   9.7500  14.2500 Du        
   3306 ****        15.2500   9.7500  14.5000 Du        
   3307 ****        15.2500   9.7500  14.7500 Du        
   3308 ****        15.2500   9.7500  15.0000 Du        
   3309 ****        15.2500   9.7500  15.2500 Du        
   3310 ****        15.2500  10.0000  12.2500 Du        
   3311 ****        15.2500  10.0000  12.5000 Du        
   3312 ****        15.2500  10.0000  12.7500 Du        
   3313 ****        15.2500  10.0000  13.0000 Du        
   3314 ****        15.2500  10.0000  13.2500 Du        
   3315 ****        15.2500  10.0000  13.5000 Du        
   3316 ****        15.2500  10.0000  13.7500 Du        
   3317 ****        15.2500  10.0000  14.0000 Du        
   3318 ****        15.2500  10.0000  14.2500 Du        
   3319 ****        15.2500  10.0000  14.5000 Du        
   3320 ****        15.2500  10.0000  14.7500 Du        
   3321 ****        15.2500  10.0000  15.0000 Du        
   3322 ****        15.2500  10.0000  15.2500 Du        
   3323 ****        15.2500  10.2500  13.2500 Du        
   3324 ****        15.2500  10.2500  13.5000 Du        
   3325 ****        15.2500  10.2500  13.7500 Du        
   3326 ****        15.2500  10.2500  14.0000 Du        
   3327 ****        15.2500  10.2500  14.2500 Du        
   3328 ****        15.2500  10.2500  14.5000 Du        
   3329 ****        15.2500  10.2500  14.7500 Du        
   3330 ****        15.2500  10.2500  15.0000 Du        
   3331 ****        15.2500  10.5000  13.7500 Du        
   3332 ****        15.2500  10.5000  14.0000 Du        
   3333 ****        15.2500  10.5000  14.2500 Du        
   3334 ****        15.2500  10.5000  14.5000 Du        
   3335 ****        15.2500  10.5000  14.7500 Du        
   3336 ****        15.2500  10.7500  14.2500 Du        
   3337 ****        15.2500  10.7500  14.5000 Du        
   3338 ****        15.2500  10.7500  14.7500 Du        
   3339 ****        15.5000   5.2500  16.0000 Du        
   3340 ****        15.5000   5.2500  16.2500 Du        
   3341 ****        15.5000   5.5000  15.5000 Du        
   3342 ****        15.5000   5.5000  15.7500 Du        
   3343 ****        15.5000   5.5000  16.0000 Du        
   3344 ****        15.5000   5.5000  16.2500 Du        
   3345 ****        15.5000   5.5000  16.5000 Du        
   3346 ****        15.5000   5.5000  16.7500 Du        
   3347 ****        15.5000   5.7500  15.2500 Du        
   3348 ****        15.5000   5.7500  15.5000 Du        
   3349 ****        15.5000   5.7500  15.7500 Du        
   3350 ****        15.5000   5.7500  16.0000 Du        
   3351 ****        15.5000   5.7500  16.2500 Du        
   3352 ****        15.5000   5.7500  16.5000 Du        
   3353 ****        15.5000   5.7500  16.7500 Du        
   3354 ****        15.5000   6.0000  15.0000 Du        
   3355 ****        15.5000   6.0000  15.2500 Du        
   3356 ****        15.5000   6.0000  15.5000 Du        
   3357 ****        15.5000   6.0000  15.7500 Du        
   3358 ****        15.5000   6.0000  16.0000 Du        
   3359 ****        15.5000   6.0000  16.2500 Du        
   3360 ****        15.5000   6.0000  16.5000 Du        
   3361 ****        15.5000   6.2500  15.0000 Du        
   3362 ****        15.5000   6.2500  15.2500 Du        
   3363 ****        15.5000   6.2500  15.5000 Du        
   3364 ****        15.5000   6.2500  15.7500 Du        
   3365 ****        15.5000   6.2500  16.0000 Du        
   3366 ****        15.5000   6.2500  16.2500 Du        
   3367 ****        15.5000   6.5000  14.7500 Du        
   3368 ****        15.5000   6.5000  15.0000 Du        
   3369 ****        15.5000   6.5000  15.2500 Du        
   3370 ****        15.5000   6.5000  15.5000 Du        
   3371 ****        15.5000   6.5000  15.7500 Du        
   3372 ****        15.5000   6.5000  16.0000 Du        
   3373 ****        15.5000   6.5000  16.2500 Du        
   3374 ****        15.5000   6.7500  14.7500 Du        
   3375 ****        15.5000   6.7500  15.0000 Du        
   3376 ****        15.5000   6.7500  15.2500 Du        
   3377 ****        15.5000   6.7500  15.5000 Du        
   3378 ****        15.5000   6.7500  15.7500 Du        
   3379 ****        15.5000   6.7500  16.0000 Du        
   3380 ****        15.5000   6.7500  16.2500 Du        
   3381 ****        15.5000   7.0000  14.5000 Du        
   3382 ****        15.5000   7.0000  14.7500 Du        
   3383 ****        15.5000   7.0000  15.0000 Du        
   3384 ****        15.5000   7.0000  15.2500 Du        
   3385 ****        15.5000   7.0000  15.5000 Du        
   3386 ****        15.5000   7.0000  15.7500 Du        
   3387 ****        15.5000   7.0000  16.0000 Du        
   3388 ****        15.5000   7.0000  16.2500 Du        
   3389 ****        15.5000   7.2500  14.2500 Du        
   3390 ****        15.5000   7.2500  14.5000 Du        
   3391 ****        15.5000   7.2500  14.7500 Du        
   3392 ****        15.5000   7.2500  15.0000 Du        
   3393 ****        15.5000   7.2500  15.2500 Du        
   3394 ****        15.5000   7.2500  15.5000 Du        
   3395 ****        15.5000   7.2500  15.7500 Du        
   3396 ****        15.5000   7.2500  16.0000 Du        
   3397 ****        15.5000   7.2500  16.2500 Du        
   3398 ****        15.5000   7.5000  14.0000 Du        
   3399 ****        15.5000   7.5000  14.2500 Du        
   3400 ****        15.5000   7.5000  14.5000 Du        
   3401 ****        15.5000   7.5000  14.7500 Du        
   3402 ****        15.5000   7.5000  15.0000 Du        
   3403 ****        15.5000   7.5000  15.2500 Du        
   3404 ****        15.5000   7.5000  15.5000 Du        
   3405 ****        15.5000   7.5000  15.7500 Du        
   3406 ****        15.5000   7.5000  16.0000 Du        
   3407 ****        15.5000   7.5000  16.2500 Du        
   3408 ****        15.5000   7.7500  14.0000 Du        
   3409 ****        15.5000   7.7500  14.2500 Du        
   3410 ****        15.5000   7.7500  14.5000 Du        
   3411 ****        15.5000   7.7500  14.7500 Du        
   3412 ****        15.5000   7.7500  15.0000 Du        
   3413 ****        15.5000   7.7500  15.2500 Du        
   3414 ****        15.5000   7.7500  15.5000 Du        
   3415 ****        15.5000   7.7500  15.7500 Du        
   3416 ****        15.5000   7.7500  16.0000 Du        
   3417 ****        15.5000   7.7500  16.2500 Du        
   3418 ****        15.5000   8.0000  13.5000 Du        
   3419 ****        15.5000   8.0000  13.7500 Du        
   3420 ****        15.5000   8.0000  14.0000 Du        
   3421 ****        15.5000   8.0000  14.2500 Du        
   3422 ****        15.5000   8.0000  14.5000 Du        
   3423 ****        15.5000   8.0000  14.7500 Du        
   3424 ****        15.5000   8.0000  15.0000 Du        
   3425 ****        15.5000   8.0000  15.2500 Du        
   3426 ****        15.5000   8.0000  15.5000 Du        
   3427 ****        15.5000   8.0000  15.7500 Du        
   3428 ****        15.5000   8.0000  16.0000 Du        
   3429 ****        15.5000   8.0000  16.2500 Du        
   3430 ****        15.5000   8.2500  13.0000 Du        
   3431 ****        15.5000   8.2500  13.2500 Du        
   3432 ****        15.5000   8.2500  13.5000 Du        
   3433 ****        15.5000   8.2500  13.7500 Du        
   3434 ****        15.5000   8.2500  14.0000 Du        
   3435 ****        15.5000   8.2500  14.2500 Du        
   3436 ****        15.5000   8.2500  14.5000 Du        
   3437 ****        15.5000   8.2500  14.7500 Du        
   3438 ****        15.5000   8.2500  15.0000 Du        
   3439 ****        15.5000   8.2500  15.2500 Du        
   3440 ****        15.5000   8.2500  15.5000 Du        
   3441 ****        15.5000   8.2500  15.7500 Du        
   3442 ****        15.5000   8.5000  12.0000 Du        
   3443 ****        15.5000   8.5000  12.2500 Du        
   3444 ****        15.5000   8.5000  12.5000 Du        
   3445 ****        15.5000   8.5000  12.7500 Du        
   3446 ****        15.5000   8.5000  13.0000 Du        
   3447 ****        15.5000   8.5000  13.2500 Du        
   3448 ****        15.5000   8.5000  13.5000 Du        
   3449 ****        15.5000   8.5000  13.7500 Du        
   3450 ****        15.5000   8.5000  14.0000 Du        
   3451 ****        15.5000   8.5000  14.2500 Du        
   3452 ****        15.5000   8.5000  14.5000 Du        
   3453 ****        15.5000   8.5000  14.7500 Du        
   3454 ****        15.5000   8.5000  15.0000 Du        
   3455 ****        15.5000   8.5000  15.2500 Du        
   3456 ****        15.5000   8.7500  11.5000 Du        
   3457 ****        15.5000   8.7500  11.7500 Du        
   3458 ****        15.5000   8.7500  12.0000 Du        
   3459 ****        15.5000   8.7500  12.2500 Du        
   3460 ****        15.5000   8.7500  12.5000 Du        
   3461 ****        15.5000   8.7500  12.7500 Du        
   3462 ****        15.5000   8.7500  13.0000 Du        
   3463 ****        15.5000   8.7500  13.2500 Du        
   3464 ****        15.5000   8.7500  13.5000 Du        
   3465 ****        15.5000   8.7500  13.7500 Du        
   3466 ****        15.5000   8.7500  14.0000 Du        
   3467 ****        15.5000   8.7500  14.2500 Du        
   3468 ****        15.5000   8.7500  14.5000 Du        
   3469 ****        15.5000   8.7500  14.7500 Du        
   3470 ****        15.5000   8.7500  15.0000 Du        
   3471 ****        15.5000   8.7500  15.2500 Du        
   3472 ****        15.5000   9.0000  11.5000 Du        
   3473 ****        15.5000   9.0000  11.7500 Du        
   3474 ****        15.5000   9.0000  12.0000 Du        
   3475 ****        15.5000   9.0000  12.2500 Du        
   3476 ****        15.5000   9.0000  12.5000 Du        
   3477 ****        15.5000   9.0000  12.7500 Du        
   3478 ****        15.5000   9.0000  13.0000 Du        
   3479 ****        15.5000   9.0000  13.2500 Du        
   3480 ****        15.5000   9.0000  13.5000 Du        
   3481 ****        15.5000   9.0000  13.7500 Du        
   3482 ****        15.5000   9.0000  14.0000 Du        
   3483 ****        15.5000   9.0000  14.2500 Du        
   3484 ****        15.5000   9.0000  14.5000 Du        
   3485 ****        15.5000   9.0000  14.7500 Du        
   3486 ****        15.5000   9.0000  15.0000 Du        
   3487 ****        15.5000   9.2500  11.7500 Du        
   3488 ****        15.5000   9.2500  12.0000 Du        
   3489 ****        15.5000   9.2500  12.2500 Du        
   3490 ****        15.5000   9.2500  12.5000 Du        
   3491 ****        15.5000   9.2500  12.7500 Du        
   3492 ****        15.5000   9.2500  13.0000 Du        
   3493 ****        15.5000   9.2500  13.2500 Du        
   3494 ****        15.5000   9.2500  13.5000 Du        
   3495 ****        15.5000   9.2500  13.7500 Du        
   3496 ****        15.5000   9.2500  14.0000 Du        
   3497 ****        15.5000   9.2500  14.2500 Du        
   3498 ****        15.5000   9.2500  14.5000 Du        
   3499 ****        15.5000   9.2500  14.7500 Du        
   3500 ****        15.5000   9.5000  12.0000 Du        
   3501 ****        15.5000   9.5000  12.2500 Du        
   3502 ****        15.5000   9.5000  12.5000 Du        
   3503 ****        15.5000   9.5000  12.7500 Du        
   3504 ****        15.5000   9.5000  13.0000 Du        
   3505 ****        15.5000   9.5000  13.2500 Du        
   3506 ****        15.5000   9.5000  13.5000 Du        
   3507 ****        15.5000   9.5000  13.7500 Du        
   3508 ****        15.5000   9.5000  14.0000 Du        
   3509 ****        15.5000   9.5000  14.2500 Du        
   3510 ****        15.5000   9.7500  12.7500 Du        
   3511 ****        15.5000   9.7500  13.0000 Du        
   3512 ****        15.5000   9.7500  13.2500 Du        
   3513 ****        15.5000   9.7500  13.5000 Du        
   3514 ****        15.5000   9.7500  13.7500 Du        
   3515 ****        15.5000   9.7500  14.0000 Du        
   3516 ****        15.5000   9.7500  14.2500 Du        
   3517 ****        15.5000  10.0000  13.2500 Du        
   3518 ****        15.5000  10.0000  13.5000 Du        
   3519 ****        15.5000  10.0000  13.7500 Du        
   3520 ****        15.5000  10.0000  14.0000 Du        
   3521 ****        15.5000  10.0000  14.2500 Du        
   3522 ****        15.5000  10.2500  13.7500 Du        
   3523 ****        15.5000  10.2500  14.0000 Du        
   3524 ****        15.5000  10.2500  14.2500 Du        
   3525 ****        15.7500   5.2500  16.0000 Du        
   3526 ****        15.7500   5.2500  16.2500 Du        
   3527 ****        15.7500   5.5000  15.7500 Du        
   3528 ****        15.7500   5.5000  16.0000 Du        
   3529 ****        15.7500   5.5000  16.2500 Du        
   3530 ****        15.7500   5.5000  16.5000 Du        
   3531 ****        15.7500   5.5000  16.7500 Du        
   3532 ****        15.7500   5.7500  15.2500 Du        
   3533 ****        15.7500   5.7500  15.5000 Du        
   3534 ****        15.7500   5.7500  15.7500 Du        
   3535 ****        15.7500   5.7500  16.0000 Du        
   3536 ****        15.7500   5.7500  16.2500 Du        
   3537 ****        15.7500   5.7500  16.5000 Du        
   3538 ****        15.7500   5.7500  16.7500 Du        
   3539 ****        15.7500   5.7500  17.0000 Du        
   3540 ****        15.7500   6.0000  15.0000 Du        
   3541 ****        15.7500   6.0000  15.2500 Du        
   3542 ****        15.7500   6.0000  15.5000 Du        
   3543 ****        15.7500   6.0000  15.7500 Du        
   3544 ****        15.7500   6.0000  16.0000 Du        
   3545 ****        15.7500   6.0000  16.2500 Du        
   3546 ****        15.7500   6.0000  16.5000 Du        
   3547 ****        15.7500   6.0000  16.7500 Du        
   3548 ****        15.7500   6.2500  15.0000 Du        
   3549 ****        15.7500   6.2500  15.2500 Du        
   3550 ****        15.7500   6.2500  15.5000 Du        
   3551 ****        15.7500   6.2500  15.7500 Du        
   3552 ****        15.7500   6.2500  16.0000 Du        
   3553 ****        15.7500   6.2500  16.2500 Du        
   3554 ****        15.7500   6.2500  16.5000 Du        
   3555 ****        15.7500   6.2500  16.7500 Du        
   3556 ****        15.7500   6.5000  14.7500 Du        
   3557 ****        15.7500   6.5000  15.0000 Du        
   3558 ****        15.7500   6.5000  15.2500 Du        
   3559 ****        15.7500   6.5000  15.5000 Du        
   3560 ****        15.7500   6.5000  15.7500 Du        
   3561 ****        15.7500   6.5000  16.0000 Du        
   3562 ****        15.7500   6.5000  16.2500 Du        
   3563 ****        15.7500   6.7500  14.5000 Du        
   3564 ****        15.7500   6.7500  14.7500 Du        
   3565 ****        15.7500   6.7500  15.0000 Du        
   3566 ****        15.7500   6.7500  15.2500 Du        
   3567 ****        15.7500   6.7500  15.5000 Du        
   3568 ****        15.7500   6.7500  15.7500 Du        
   3569 ****        15.7500   6.7500  16.0000 Du        
   3570 ****        15.7500   6.7500  16.2500 Du        
   3571 ****        15.7500   7.0000  14.2500 Du        
   3572 ****        15.7500   7.0000  14.5000 Du        
   3573 ****        15.7500   7.0000  14.7500 Du        
   3574 ****        15.7500   7.0000  15.0000 Du        
   3575 ****        15.7500   7.0000  15.2500 Du        
   3576 ****        15.7500   7.0000  15.5000 Du        
   3577 ****        15.7500   7.0000  15.7500 Du        
   3578 ****        15.7500   7.0000  16.0000 Du        
   3579 ****        15.7500   7.0000  16.2500 Du        
   3580 ****        15.7500   7.2500  14.2500 Du        
   3581 ****        15.7500   7.2500  14.5000 Du        
   3582 ****        15.7500   7.2500  14.7500 Du        
   3583 ****        15.7500   7.2500  15.0000 Du        
   3584 ****        15.7500   7.2500  15.2500 Du        
   3585 ****        15.7500   7.2500  15.5000 Du        
   3586 ****        15.7500   7.2500  15.7500 Du        
   3587 ****        15.7500   7.2500  16.0000 Du        
   3588 ****        15.7500   7.2500  16.2500 Du        
   3589 ****        15.7500   7.5000  14.0000 Du        
   3590 ****        15.7500   7.5000  14.2500 Du        
   3591 ****        15.7500   7.5000  14.5000 Du        
   3592 ****        15.7500   7.5000  14.7500 Du        
   3593 ****        15.7500   7.5000  15.0000 Du        
   3594 ****        15.7500   7.5000  15.2500 Du        
   3595 ****        15.7500   7.5000  15.5000 Du        
   3596 ****        15.7500   7.5000  15.7500 Du        
   3597 ****        15.7500   7.5000  16.0000 Du        
   3598 ****        15.7500   7.5000  16.2500 Du        
   3599 ****        15.7500   7.7500  13.7500 Du        
   3600 ****        15.7500   7.7500  14.0000 Du        
   3601 ****        15.7500   7.7500  14.2500 Du        
   3602 ****        15.7500   7.7500  14.5000 Du        
   3603 ****        15.7500   7.7500  14.7500 Du        
   3604 ****        15.7500   7.7500  15.0000 Du        
   3605 ****        15.7500   7.7500  15.2500 Du        
   3606 ****        15.7500   7.7500  15.5000 Du        
   3607 ****        15.7500   7.7500  15.7500 Du        
   3608 ****        15.7500   7.7500  16.0000 Du        
   3609 ****        15.7500   7.7500  16.2500 Du        
   3610 ****        15.7500   8.0000  13.2500 Du        
   3611 ****        15.7500   8.0000  13.5000 Du        
   3612 ****        15.7500   8.0000  13.7500 Du        
   3613 ****        15.7500   8.0000  14.0000 Du        
   3614 ****        15.7500   8.0000  14.2500 Du        
   3615 ****        15.7500   8.0000  14.5000 Du        
   3616 ****        15.7500   8.0000  14.7500 Du        
   3617 ****        15.7500   8.0000  15.0000 Du        
   3618 ****        15.7500   8.0000  15.2500 Du        
   3619 ****        15.7500   8.0000  15.5000 Du        
   3620 ****        15.7500   8.0000  15.7500 Du        
   3621 ****        15.7500   8.0000  16.0000 Du        
   3622 ****        15.7500   8.0000  16.2500 Du        
   3623 ****        15.7500   8.2500  12.7500 Du        
   3624 ****        15.7500   8.2500  13.0000 Du        
   3625 ****        15.7500   8.2500  13.2500 Du        
   3626 ****        15.7500   8.2500  13.5000 Du        
   3627 ****        15.7500   8.2500  13.7500 Du        
   3628 ****        15.7500   8.2500  14.0000 Du        
   3629 ****        15.7500   8.2500  14.2500 Du        
   3630 ****        15.7500   8.2500  14.5000 Du        
   3631 ****        15.7500   8.2500  14.7500 Du        
   3632 ****        15.7500   8.2500  15.0000 Du        
   3633 ****        15.7500   8.2500  15.2500 Du        
   3634 ****        15.7500   8.2500  15.5000 Du        
   3635 ****        15.7500   8.2500  15.7500 Du        
   3636 ****        15.7500   8.2500  16.0000 Du        
   3637 ****        15.7500   8.5000  11.5000 Du        
   3638 ****        15.7500   8.5000  11.7500 Du        
   3639 ****        15.7500   8.5000  12.0000 Du        
   3640 ****        15.7500   8.5000  12.2500 Du        
   3641 ****        15.7500   8.5000  12.5000 Du        
   3642 ****        15.7500   8.5000  12.7500 Du        
   3643 ****        15.7500   8.5000  13.0000 Du        
   3644 ****        15.7500   8.5000  13.2500 Du        
   3645 ****        15.7500   8.5000  13.5000 Du        
   3646 ****        15.7500   8.5000  13.7500 Du        
   3647 ****        15.7500   8.5000  14.0000 Du        
   3648 ****        15.7500   8.5000  14.2500 Du        
   3649 ****        15.7500   8.5000  14.5000 Du        
   3650 ****        15.7500   8.5000  14.7500 Du        
   3651 ****        15.7500   8.5000  15.0000 Du        
   3652 ****        15.7500   8.5000  15.2500 Du        
   3653 ****        15.7500   8.7500  11.5000 Du        
   3654 ****        15.7500   8.7500  11.7500 Du        
   3655 ****        15.7500   8.7500  12.0000 Du        
   3656 ****        15.7500   8.7500  12.2500 Du        
   3657 ****        15.7500   8.7500  12.5000 Du        
   3658 ****        15.7500   8.7500  12.7500 Du        
   3659 ****        15.7500   8.7500  13.0000 Du        
   3660 ****        15.7500   8.7500  13.2500 Du        
   3661 ****        15.7500   8.7500  13.5000 Du        
   3662 ****        15.7500   8.7500  13.7500 Du        
   3663 ****        15.7500   8.7500  14.0000 Du        
   3664 ****        15.7500   8.7500  14.2500 Du        
   3665 ****        15.7500   8.7500  14.5000 Du        
   3666 ****        15.7500   8.7500  14.7500 Du        
   3667 ****        15.7500   8.7500  15.0000 Du        
   3668 ****        15.7500   9.0000  11.7500 Du        
   3669 ****        15.7500   9.0000  12.0000 Du        
   3670 ****        15.7500   9.0000  12.2500 Du        
   3671 ****        15.7500   9.0000  12.5000 Du        
   3672 ****        15.7500   9.0000  12.7500 Du        
   3673 ****        15.7500   9.0000  13.0000 Du        
   3674 ****        15.7500   9.0000  13.2500 Du        
   3675 ****        15.7500   9.0000  13.5000 Du        
   3676 ****        15.7500   9.0000  13.7500 Du        
   3677 ****        15.7500   9.0000  14.0000 Du        
   3678 ****        15.7500   9.0000  14.2500 Du        
   3679 ****        15.7500   9.0000  14.5000 Du        
   3680 ****        15.7500   9.0000  14.7500 Du        
   3681 ****        15.7500   9.2500  12.0000 Du        
   3682 ****        15.7500   9.2500  12.2500 Du        
   3683 ****        15.7500   9.2500  12.5000 Du        
   3684 ****        15.7500   9.2500  12.7500 Du        
   3685 ****        15.7500   9.2500  13.0000 Du        
   3686 ****        15.7500   9.2500  13.2500 Du        
   3687 ****        15.7500   9.2500  13.5000 Du        
   3688 ****        15.7500   9.2500  13.7500 Du        
   3689 ****        15.7500   9.2500  14.0000 Du        
   3690 ****        15.7500   9.2500  14.2500 Du        
   3691 ****        15.7500   9.2500  14.5000 Du        
   3692 ****        15.7500   9.5000  13.2500 Du        
   3693 ****        15.7500   9.5000  13.5000 Du        
   3694 ****        15.7500   9.5000  13.7500 Du        
   3695 ****        15.7500   9.5000  14.0000 Du        
   3696 ****        15.7500   9.5000  14.2500 Du        
   3697 ****        15.7500   9.7500  14.0000 Du        
   3698 ****        16.0000   5.5000  15.7500 Du        
   3699 ****        16.0000   5.5000  16.0000 Du        
   3700 ****        16.0000   5.5000  16.2500 Du        
   3701 ****        16.0000   5.5000  16.5000 Du        
   3702 ****        16.0000   5.7500  15.2500 Du        
   3703 ****        16.0000   5.7500  15.5000 Du        
   3704 ****        16.0000   5.7500  15.7500 Du        
   3705 ****        16.0000   5.7500  16.0000 Du        
   3706 ****        16.0000   5.7500  16.2500 Du        
   3707 ****        16.0000   5.7500  16.5000 Du        
   3708 ****        16.0000   5.7500  16.7500 Du        
   3709 ****        16.0000   6.0000  15.0000 Du        
   3710 ****        16.0000   6.0000  15.2500 Du        
   3711 ****        16.0000   6.0000  15.5000 Du        
   3712 ****        16.0000   6.0000  15.7500 Du        
   3713 ****        16.0000   6.0000  16.0000 Du        
   3714 ****        16.0000   6.0000  16.2500 Du        
   3715 ****        16.0000   6.0000  16.5000 Du        
   3716 ****        16.0000   6.0000  16.7500 Du        
   3717 ****        16.0000   6.2500  15.0000 Du        
   3718 ****        16.0000   6.2500  15.2500 Du        
   3719 ****        16.0000   6.2500  15.5000 Du        
   3720 ****        16.0000   6.2500  15.7500 Du        
   3721 ****        16.0000   6.2500  16.0000 Du        
   3722 ****        16.0000   6.2500  16.2500 Du        
   3723 ****        16.0000   6.2500  16.5000 Du        
   3724 ****        16.0000   6.2500  16.7500 Du        
   3725 ****        16.0000   6.2500  17.0000 Du        
   3726 ****        16.0000   6.5000  14.7500 Du        
   3727 ****        16.0000   6.5000  15.0000 Du        
   3728 ****        16.0000   6.5000  15.2500 Du        
   3729 ****        16.0000   6.5000  15.5000 Du        
   3730 ****        16.0000   6.5000  15.7500 Du        
   3731 ****        16.0000   6.5000  16.0000 Du        
   3732 ****        16.0000   6.5000  16.2500 Du        
   3733 ****        16.0000   6.7500  14.5000 Du        
   3734 ****        16.0000   6.7500  14.7500 Du        
   3735 ****        16.0000   6.7500  15.0000 Du        
   3736 ****        16.0000   6.7500  15.2500 Du        
   3737 ****        16.0000   6.7500  15.5000 Du        
   3738 ****        16.0000   6.7500  15.7500 Du        
   3739 ****        16.0000   6.7500  16.0000 Du        
   3740 ****        16.0000   6.7500  16.2500 Du        
   3741 ****        16.0000   7.0000  14.2500 Du        
   3742 ****        16.0000   7.0000  14.5000 Du        
   3743 ****        16.0000   7.0000  14.7500 Du        
   3744 ****        16.0000   7.0000  15.0000 Du        
   3745 ****        16.0000   7.0000  15.2500 Du        
   3746 ****        16.0000   7.0000  15.5000 Du        
   3747 ****        16.0000   7.0000  15.7500 Du        
   3748 ****        16.0000   7.0000  16.0000 Du        
   3749 ****        16.0000   7.0000  16.2500 Du        
   3750 ****        16.0000   7.2500  14.0000 Du        
   3751 ****        16.0000   7.2500  14.2500 Du        
   3752 ****        16.0000   7.2500  14.5000 Du        
   3753 ****        16.0000   7.2500  14.7500 Du        
   3754 ****        16.0000   7.2500  15.0000 Du        
   3755 ****        16.0000   7.2500  15.2500 Du        
   3756 ****        16.0000   7.2500  15.5000 Du        
   3757 ****        16.0000   7.2500  15.7500 Du        
   3758 ****        16.0000   7.2500  16.0000 Du        
   3759 ****        16.0000   7.2500  16.2500 Du        
   3760 ****        16.0000   7.5000  13.7500 Du        
   3761 ****        16.0000   7.5000  14.0000 Du        
   3762 ****        16.0000   7.5000  14.2500 Du        
   3763 ****        16.0000   7.5000  14.5000 Du        
   3764 ****        16.0000   7.5000  14.7500 Du        
   3765 ****        16.0000   7.5000  15.0000 Du        
   3766 ****        16.0000   7.5000  15.2500 Du        
   3767 ****        16.0000   7.5000  15.5000 Du        
   3768 ****        16.0000   7.5000  15.7500 Du        
   3769 ****        16.0000   7.5000  16.0000 Du        
   3770 ****        16.0000   7.5000  16.2500 Du        
   3771 ****        16.0000   7.7500  13.2500 Du        
   3772 ****        16.0000   7.7500  13.5000 Du        
   3773 ****        16.0000   7.7500  13.7500 Du        
   3774 ****        16.0000   7.7500  14.0000 Du        
   3775 ****        16.0000   7.7500  14.2500 Du        
   3776 ****        16.0000   7.7500  14.5000 Du        
   3777 ****        16.0000   7.7500  14.7500 Du        
   3778 ****        16.0000   7.7500  15.0000 Du        
   3779 ****        16.0000   7.7500  15.2500 Du        
   3780 ****        16.0000   7.7500  15.5000 Du        
   3781 ****        16.0000   7.7500  15.7500 Du        
   3782 ****        16.0000   7.7500  16.0000 Du        
   3783 ****        16.0000   7.7500  16.2500 Du        
   3784 ****        16.0000   8.0000  13.0000 Du        
   3785 ****        16.0000   8.0000  13.2500 Du        
   3786 ****        16.0000   8.0000  13.5000 Du        
   3787 ****        16.0000   8.0000  13.7500 Du        
   3788 ****        16.0000   8.0000  14.0000 Du        
   3789 ****        16.0000   8.0000  14.2500 Du        
   3790 ****        16.0000   8.0000  14.5000 Du        
   3791 ****        16.0000   8.0000  14.7500 Du        
   3792 ****        16.0000   8.0000  15.0000 Du        
   3793 ****        16.0000   8.0000  15.2500 Du        
   3794 ****        16.0000   8.0000  15.5000 Du        
   3795 ****        16.0000   8.0000  15.7500 Du        
   3796 ****        16.0000   8.0000  16.0000 Du        
   3797 ****        16.0000   8.2500  12.0000 Du        
   3798 ****        16.0000   8.2500  12.2500 Du        
   3799 ****        16.0000   8.2500  12.5000 Du        
   3800 ****        16.0000   8.2500  12.7500 Du        
   3801 ****        16.0000   8.2500  13.0000 Du        
   3802 ****        16.0000   8.2500  13.2500 Du        
   3803 ****        16.0000   8.2500  13.5000 Du        
   3804 ****        16.0000   8.2500  13.7500 Du        
   3805 ****        16.0000   8.2500  14.0000 Du        
   3806 ****        16.0000   8.2500  14.2500 Du        
   3807 ****        16.0000   8.2500  14.5000 Du        
   3808 ****        16.0000   8.2500  14.7500 Du        
   3809 ****        16.0000   8.2500  15.0000 Du        
   3810 ****        16.0000   8.2500  15.2500 Du        
   3811 ****        16.0000   8.5000  11.7500 Du        
   3812 ****        16.0000   8.5000  12.0000 Du        
   3813 ****        16.0000   8.5000  12.2500 Du        
   3814 ****        16.0000   8.5000  12.5000 Du        
   3815 ****        16.0000   8.5000  12.7500 Du        
   3816 ****        16.0000   8.5000  13.0000 Du        
   3817 ****        16.0000   8.5000  13.2500 Du        
   3818 ****        16.0000   8.5000  13.5000 Du        
   3819 ****        16.0000   8.5000  13.7500 Du        
   3820 ****        16.0000   8.5000  14.0000 Du        
   3821 ****        16.0000   8.5000  14.2500 Du        
   3822 ****        16.0000   8.5000  14.5000 Du        
   3823 ****        16.0000   8.5000  14.7500 Du        
   3824 ****        16.0000   8.7500  11.7500 Du        
   3825 ****        16.0000   8.7500  12.0000 Du        
   3826 ****        16.0000   8.7500  12.2500 Du        
   3827 ****        16.0000   8.7500  12.5000 Du        
   3828 ****        16.0000   8.7500  12.7500 Du        
   3829 ****        16.0000   8.7500  13.0000 Du        
   3830 ****        16.0000   8.7500  13.2500 Du        
   3831 ****        16.0000   8.7500  13.5000 Du        
   3832 ****        16.0000   8.7500  13.7500 Du        
   3833 ****        16.0000   8.7500  14.0000 Du        
   3834 ****        16.0000   8.7500  14.2500 Du        
   3835 ****        16.0000   8.7500  14.5000 Du        
   3836 ****        16.0000   9.0000  13.0000 Du        
   3837 ****        16.0000   9.0000  13.2500 Du        
   3838 ****        16.0000   9.0000  13.5000 Du        
   3839 ****        16.0000   9.0000  13.7500 Du        
   3840 ****        16.0000   9.0000  14.0000 Du        
   3841 ****        16.0000   9.0000  14.2500 Du        
   3842 ****        16.0000   9.2500  13.7500 Du        
   3843 ****        16.0000   9.2500  14.0000 Du        
   3844 ****        16.2500   5.7500  15.5000 Du        
   3845 ****        16.2500   5.7500  15.7500 Du        
   3846 ****        16.2500   5.7500  16.0000 Du        
   3847 ****        16.2500   5.7500  16.2500 Du        
   3848 ****        16.2500   5.7500  16.5000 Du        
   3849 ****        16.2500   5.7500  16.7500 Du        
   3850 ****        16.2500   6.0000  15.0000 Du        
   3851 ****        16.2500   6.0000  15.2500 Du        
   3852 ****        16.2500   6.0000  15.5000 Du        
   3853 ****        16.2500   6.0000  15.7500 Du        
   3854 ****        16.2500   6.0000  16.0000 Du        
   3855 ****        16.2500   6.0000  16.2500 Du        
   3856 ****        16.2500   6.0000  16.5000 Du        
   3857 ****        16.2500   6.0000  16.7500 Du        
   3858 ****        16.2500   6.2500  14.7500 Du        
   3859 ****        16.2500   6.2500  15.0000 Du        
   3860 ****        16.2500   6.2500  15.2500 Du        
   3861 ****        16.2500   6.2500  15.5000 Du        
   3862 ****        16.2500   6.2500  15.7500 Du        
   3863 ****        16.2500   6.2500  16.0000 Du        
   3864 ****        16.2500   6.2500  16.2500 Du        
   3865 ****        16.2500   6.2500  16.5000 Du        
   3866 ****        16.2500   6.2500  16.7500 Du        
   3867 ****        16.2500   6.5000  14.7500 Du        
   3868 ****        16.2500   6.5000  15.0000 Du        
   3869 ****        16.2500   6.5000  15.2500 Du        
   3870 ****        16.2500   6.5000  15.5000 Du        
   3871 ****        16.2500   6.5000  15.7500 Du        
   3872 ****        16.2500   6.5000  16.0000 Du        
   3873 ****        16.2500   6.5000  16.2500 Du        
   3874 ****        16.2500   6.5000  16.5000 Du        
   3875 ****        16.2500   6.7500  14.5000 Du        
   3876 ****        16.2500   6.7500  14.7500 Du        
   3877 ****        16.2500   6.7500  15.0000 Du        
   3878 ****        16.2500   6.7500  15.2500 Du        
   3879 ****        16.2500   6.7500  15.5000 Du        
   3880 ****        16.2500   6.7500  15.7500 Du        
   3881 ****        16.2500   6.7500  16.0000 Du        
   3882 ****        16.2500   6.7500  16.2500 Du        
   3883 ****        16.2500   6.7500  16.5000 Du        
   3884 ****        16.2500   7.0000  14.2500 Du        
   3885 ****        16.2500   7.0000  14.5000 Du        
   3886 ****        16.2500   7.0000  14.7500 Du        
   3887 ****        16.2500   7.0000  15.0000 Du        
   3888 ****        16.2500   7.0000  15.2500 Du        
   3889 ****        16.2500   7.0000  15.5000 Du        
   3890 ****        16.2500   7.0000  15.7500 Du        
   3891 ****        16.2500   7.0000  16.0000 Du        
   3892 ****        16.2500   7.0000  16.2500 Du        
   3893 ****        16.2500   7.0000  16.5000 Du        
   3894 ****        16.2500   7.2500  14.0000 Du        
   3895 ****        16.2500   7.2500  14.2500 Du        
   3896 ****        16.2500   7.2500  14.5000 Du        
   3897 ****        16.2500   7.2500  14.7500 Du        
   3898 ****        16.2500   7.2500  15.0000 Du        
   3899 ****        16.2500   7.2500  15.2500 Du        
   3900 ****        16.2500   7.2500  15.5000 Du        
   3901 ****        16.2500   7.2500  15.7500 Du        
   3902 ****        16.2500   7.2500  16.0000 Du        
   3903 ****        16.2500   7.2500  16.2500 Du        
   3904 ****        16.2500   7.5000  13.7500 Du        
   3905 ****        16.2500   7.5000  14.0000 Du        
   3906 ****        16.2500   7.5000  14.2500 Du        
   3907 ****        16.2500   7.5000  14.5000 Du        
   3908 ****        16.2500   7.5000  14.7500 Du        
   3909 ****        16.2500   7.5000  15.0000 Du        
   3910 ****        16.2500   7.5000  15.2500 Du        
   3911 ****        16.2500   7.5000  15.5000 Du        
   3912 ****        16.2500   7.5000  15.7500 Du        
   3913 ****        16.2500   7.5000  16.0000 Du        
   3914 ****        16.2500   7.5000  16.2500 Du        
   3915 ****        16.2500   7.7500  13.2500 Du        
   3916 ****        16.2500   7.7500  13.5000 Du        
   3917 ****        16.2500   7.7500  13.7500 Du        
   3918 ****        16.2500   7.7500  14.0000 Du        
   3919 ****        16.2500   7.7500  14.2500 Du        
   3920 ****        16.2500   7.7500  14.5000 Du        
   3921 ****        16.2500   7.7500  14.7500 Du        
   3922 ****        16.2500   7.7500  15.0000 Du        
   3923 ****        16.2500   7.7500  15.2500 Du        
   3924 ****        16.2500   7.7500  15.5000 Du        
   3925 ****        16.2500   7.7500  15.7500 Du        
   3926 ****        16.2500   7.7500  16.0000 Du        
   3927 ****        16.2500   7.7500  16.2500 Du        
   3928 ****        16.2500   8.0000  13.0000 Du        
   3929 ****        16.2500   8.0000  13.2500 Du        
   3930 ****        16.2500   8.0000  13.5000 Du        
   3931 ****        16.2500   8.0000  13.7500 Du        
   3932 ****        16.2500   8.0000  14.0000 Du        
   3933 ****        16.2500   8.0000  14.2500 Du        
   3934 ****        16.2500   8.0000  14.5000 Du        
   3935 ****        16.2500   8.0000  14.7500 Du        
   3936 ****        16.2500   8.0000  15.0000 Du        
   3937 ****        16.2500   8.0000  15.2500 Du        
   3938 ****        16.2500   8.2500  12.7500 Du        
   3939 ****        16.2500   8.2500  13.0000 Du        
   3940 ****        16.2500   8.2500  13.2500 Du        
   3941 ****        16.2500   8.2500  13.5000 Du        
   3942 ****        16.2500   8.2500  13.7500 Du        
   3943 ****        16.2500   8.2500  14.0000 Du        
   3944 ****        16.2500   8.2500  14.2500 Du        
   3945 ****        16.2500   8.2500  14.5000 Du        
   3946 ****        16.2500   8.2500  14.7500 Du        
   3947 ****        16.2500   8.2500  15.0000 Du        
   3948 ****        16.2500   8.5000  13.0000 Du        
   3949 ****        16.2500   8.5000  13.2500 Du        
   3950 ****        16.2500   8.5000  13.5000 Du        
   3951 ****        16.2500   8.5000  13.7500 Du        
   3952 ****        16.2500   8.5000  14.0000 Du        
   3953 ****        16.2500   8.5000  14.2500 Du        
   3954 ****        16.2500   8.7500  13.2500 Du        
   3955 ****        16.2500   8.7500  13.5000 Du        
   3956 ****        16.2500   8.7500  13.7500 Du        
   3957 ****        16.2500   8.7500  14.0000 Du        
   3958 ****        16.5000   5.7500  15.5000 Du        
   3959 ****        16.5000   5.7500  15.7500 Du        
   3960 ****        16.5000   5.7500  16.0000 Du        
   3961 ****        16.5000   5.7500  16.2500 Du        
   3962 ****        16.5000   6.0000  15.0000 Du        
   3963 ****        16.5000   6.0000  15.2500 Du        
   3964 ****        16.5000   6.0000  15.5000 Du        
   3965 ****        16.5000   6.0000  15.7500 Du        
   3966 ****        16.5000   6.0000  16.0000 Du        
   3967 ****        16.5000   6.0000  16.2500 Du        
   3968 ****        16.5000   6.0000  16.5000 Du        
   3969 ****        16.5000   6.0000  16.7500 Du        
   3970 ****        16.5000   6.2500  14.7500 Du        
   3971 ****        16.5000   6.2500  15.0000 Du        
   3972 ****        16.5000   6.2500  15.2500 Du        
   3973 ****        16.5000   6.2500  15.5000 Du        
   3974 ****        16.5000   6.2500  15.7500 Du        
   3975 ****        16.5000   6.2500  16.0000 Du        
   3976 ****        16.5000   6.2500  16.2500 Du        
   3977 ****        16.5000   6.2500  16.5000 Du        
   3978 ****        16.5000   6.2500  16.7500 Du        
   3979 ****        16.5000   6.2500  17.0000 Du        
   3980 ****        16.5000   6.5000  14.7500 Du        
   3981 ****        16.5000   6.5000  15.0000 Du        
   3982 ****        16.5000   6.5000  15.2500 Du        
   3983 ****        16.5000   6.5000  15.5000 Du        
   3984 ****        16.5000   6.5000  15.7500 Du        
   3985 ****        16.5000   6.5000  16.0000 Du        
   3986 ****        16.5000   6.5000  16.2500 Du        
   3987 ****        16.5000   6.5000  16.5000 Du        
   3988 ****        16.5000   6.5000  16.7500 Du        
   3989 ****        16.5000   6.5000  17.0000 Du        
   3990 ****        16.5000   6.7500  14.5000 Du        
   3991 ****        16.5000   6.7500  14.7500 Du        
   3992 ****        16.5000   6.7500  15.0000 Du        
   3993 ****        16.5000   6.7500  15.2500 Du        
   3994 ****        16.5000   6.7500  15.5000 Du        
   3995 ****        16.5000   6.7500  15.7500 Du        
   3996 ****        16.5000   6.7500  16.0000 Du        
   3997 ****        16.5000   6.7500  16.2500 Du        
   3998 ****        16.5000   6.7500  16.5000 Du        
   3999 ****        16.5000   6.7500  16.7500 Du        
   4000 ****        16.5000   7.0000  14.2500 Du        
   4001 ****        16.5000   7.0000  14.5000 Du        
   4002 ****        16.5000   7.0000  14.7500 Du        
   4003 ****        16.5000   7.0000  15.0000 Du        
   4004 ****        16.5000   7.0000  15.2500 Du        
   4005 ****        16.5000   7.0000  15.5000 Du        
   4006 ****        16.5000   7.0000  15.7500 Du        
   4007 ****        16.5000   7.0000  16.0000 Du        
   4008 ****        16.5000   7.0000  16.2500 Du        
   4009 ****        16.5000   7.0000  16.5000 Du        
   4010 ****        16.5000   7.0000  16.7500 Du        
   4011 ****        16.5000   7.2500  14.0000 Du        
   4012 ****        16.5000   7.2500  14.2500 Du        
   4013 ****        16.5000   7.2500  14.5000 Du        
   4014 ****        16.5000   7.2500  14.7500 Du        
   4015 ****        16.5000   7.2500  15.0000 Du        
   4016 ****        16.5000   7.2500  15.2500 Du        
   4017 ****        16.5000   7.2500  15.5000 Du        
   4018 ****        16.5000   7.2500  15.7500 Du        
   4019 ****        16.5000   7.2500  16.0000 Du        
   4020 ****        16.5000   7.2500  16.2500 Du        
   4021 ****        16.5000   7.5000  13.7500 Du        
   4022 ****        16.5000   7.5000  14.0000 Du        
   4023 ****        16.5000   7.5000  14.2500 Du        
   4024 ****        16.5000   7.5000  14.5000 Du        
   4025 ****        16.5000   7.5000  14.7500 Du        
   4026 ****        16.5000   7.5000  15.0000 Du        
   4027 ****        16.5000   7.5000  15.2500 Du        
   4028 ****        16.5000   7.5000  15.5000 Du        
   4029 ****        16.5000   7.5000  15.7500 Du        
   4030 ****        16.5000   7.5000  16.0000 Du        
   4031 ****        16.5000   7.7500  13.2500 Du        
   4032 ****        16.5000   7.7500  13.5000 Du        
   4033 ****        16.5000   7.7500  13.7500 Du        
   4034 ****        16.5000   7.7500  14.0000 Du        
   4035 ****        16.5000   7.7500  14.2500 Du        
   4036 ****        16.5000   7.7500  14.5000 Du        
   4037 ****        16.5000   7.7500  14.7500 Du        
   4038 ****        16.5000   7.7500  15.0000 Du        
   4039 ****        16.5000   7.7500  15.2500 Du        
   4040 ****        16.5000   8.0000  13.2500 Du        
   4041 ****        16.5000   8.0000  13.5000 Du        
   4042 ****        16.5000   8.0000  13.7500 Du        
   4043 ****        16.5000   8.0000  14.0000 Du        
   4044 ****        16.5000   8.0000  14.2500 Du        
   4045 ****        16.5000   8.0000  14.5000 Du        
   4046 ****        16.5000   8.0000  14.7500 Du        
   4047 ****        16.5000   8.0000  15.0000 Du        
   4048 ****        16.5000   8.2500  13.2500 Du        
   4049 ****        16.5000   8.2500  13.5000 Du        
   4050 ****        16.5000   8.2500  13.7500 Du        
   4051 ****        16.5000   8.2500  14.0000 Du        
   4052 ****        16.5000   8.2500  14.2500 Du        
   4053 ****        16.7500   5.7500  15.7500 Du        
   4054 ****        16.7500   5.7500  16.0000 Du        
   4055 ****        16.7500   5.7500  16.2500 Du        
   4056 ****        16.7500   6.0000  15.0000 Du        
   4057 ****        16.7500   6.0000  15.2500 Du        
   4058 ****        16.7500   6.0000  15.5000 Du        
   4059 ****        16.7500   6.0000  15.7500 Du        
   4060 ****        16.7500   6.0000  16.0000 Du        
   4061 ****        16.7500   6.0000  16.2500 Du        
   4062 ****        16.7500   6.0000  16.5000 Du        
   4063 ****        16.7500   6.2500  14.7500 Du        
   4064 ****        16.7500   6.2500  15.0000 Du        
   4065 ****        16.7500   6.2500  15.2500 Du        
   4066 ****        16.7500   6.2500  15.5000 Du        
   4067 ****        16.7500   6.2500  15.7500 Du        
   4068 ****        16.7500   6.2500  16.0000 Du        
   4069 ****        16.7500   6.2500  16.2500 Du        
   4070 ****        16.7500   6.2500  16.5000 Du        
   4071 ****        16.7500   6.2500  16.7500 Du        
   4072 ****        16.7500   6.5000  14.7500 Du        
   4073 ****        16.7500   6.5000  15.0000 Du        
   4074 ****        16.7500   6.5000  15.2500 Du        
   4075 ****        16.7500   6.5000  15.5000 Du        
   4076 ****        16.7500   6.5000  15.7500 Du        
   4077 ****        16.7500   6.5000  16.0000 Du        
   4078 ****        16.7500   6.5000  16.2500 Du        
   4079 ****        16.7500   6.5000  16.5000 Du        
   4080 ****        16.7500   6.5000  16.7500 Du        
   4081 ****        16.7500   6.7500  14.2500 Du        
   4082 ****        16.7500   6.7500  14.5000 Du        
   4083 ****        16.7500   6.7500  14.7500 Du        
   4084 ****        16.7500   6.7500  15.0000 Du        
   4085 ****        16.7500   6.7500  15.2500 Du        
   4086 ****        16.7500   6.7500  15.5000 Du        
   4087 ****        16.7500   6.7500  15.7500 Du        
   4088 ****        16.7500   6.7500  16.0000 Du        
   4089 ****        16.7500   6.7500  16.2500 Du        
   4090 ****        16.7500   6.7500  16.5000 Du        
   4091 ****        16.7500   6.7500  16.7500 Du        
   4092 ****        16.7500   6.7500  17.0000 Du        
   4093 ****        16.7500   7.0000  14.0000 Du        
   4094 ****        16.7500   7.0000  14.2500 Du        
   4095 ****        16.7500   7.0000  14.5000 Du        
   4096 ****        16.7500   7.0000  14.7500 Du        
   4097 ****        16.7500   7.0000  15.0000 Du        
   4098 ****        16.7500   7.0000  15.2500 Du        
   4099 ****        16.7500   7.0000  15.5000 Du        
   4100 ****        16.7500   7.0000  15.7500 Du        
   4101 ****        16.7500   7.0000  16.0000 Du        
   4102 ****        16.7500   7.0000  16.2500 Du        
   4103 ****        16.7500   7.0000  16.5000 Du        
   4104 ****        16.7500   7.0000  16.7500 Du        
   4105 ****        16.7500   7.0000  17.0000 Du        
   4106 ****        16.7500   7.2500  13.7500 Du        
   4107 ****        16.7500   7.2500  14.0000 Du        
   4108 ****        16.7500   7.2500  14.2500 Du        
   4109 ****        16.7500   7.2500  14.5000 Du        
   4110 ****        16.7500   7.2500  14.7500 Du        
   4111 ****        16.7500   7.2500  15.0000 Du        
   4112 ****        16.7500   7.2500  15.2500 Du        
   4113 ****        16.7500   7.2500  15.5000 Du        
   4114 ****        16.7500   7.2500  15.7500 Du        
   4115 ****        16.7500   7.2500  16.0000 Du        
   4116 ****        16.7500   7.2500  16.2500 Du        
   4117 ****        16.7500   7.5000  13.7500 Du        
   4118 ****        16.7500   7.5000  14.0000 Du        
   4119 ****        16.7500   7.5000  14.2500 Du        
   4120 ****        16.7500   7.5000  14.5000 Du        
   4121 ****        16.7500   7.5000  14.7500 Du        
   4122 ****        16.7500   7.5000  15.0000 Du        
   4123 ****        16.7500   7.5000  15.2500 Du        
   4124 ****        16.7500   7.5000  15.5000 Du        
   4125 ****        16.7500   7.7500  13.5000 Du        
   4126 ****        16.7500   7.7500  13.7500 Du        
   4127 ****        16.7500   7.7500  14.0000 Du        
   4128 ****        16.7500   7.7500  14.2500 Du        
   4129 ****        16.7500   7.7500  14.5000 Du        
   4130 ****        16.7500   7.7500  14.7500 Du        
   4131 ****        16.7500   7.7500  15.0000 Du        
   4132 ****        16.7500   7.7500  15.2500 Du        
   4133 ****        16.7500   8.0000  13.5000 Du        
   4134 ****        16.7500   8.0000  13.7500 Du        
   4135 ****        16.7500   8.0000  14.0000 Du        
   4136 ****        16.7500   8.0000  14.2500 Du        
   4137 ****        16.7500   8.0000  14.5000 Du        
   4138 ****        16.7500   8.2500  13.7500 Du        
   4139 ****        16.7500   8.2500  14.0000 Du        
   4140 ****        17.0000   6.0000  15.0000 Du        
   4141 ****        17.0000   6.0000  15.2500 Du        
   4142 ****        17.0000   6.0000  15.5000 Du        
   4143 ****        17.0000   6.0000  15.7500 Du        
   4144 ****        17.0000   6.0000  16.0000 Du        
   4145 ****        17.0000   6.0000  16.2500 Du        
   4146 ****        17.0000   6.2500  14.7500 Du        
   4147 ****        17.0000   6.2500  15.0000 Du        
   4148 ****        17.0000   6.2500  15.2500 Du        
   4149 ****        17.0000   6.2500  15.5000 Du        
   4150 ****        17.0000   6.2500  15.7500 Du        
   4151 ****        17.0000   6.2500  16.0000 Du        
   4152 ****        17.0000   6.2500  16.2500 Du        
   4153 ****        17.0000   6.2500  16.5000 Du        
   4154 ****        17.0000   6.5000  14.5000 Du        
   4155 ****        17.0000   6.5000  14.7500 Du        
   4156 ****        17.0000   6.5000  15.0000 Du        
   4157 ****        17.0000   6.5000  15.2500 Du        
   4158 ****        17.0000   6.5000  15.5000 Du        
   4159 ****        17.0000   6.5000  15.7500 Du        
   4160 ****        17.0000   6.5000  16.0000 Du        
   4161 ****        17.0000   6.5000  16.2500 Du        
   4162 ****        17.0000   6.5000  16.5000 Du        
   4163 ****        17.0000   6.7500  14.2500 Du        
   4164 ****        17.0000   6.7500  14.5000 Du        
   4165 ****        17.0000   6.7500  14.7500 Du        
   4166 ****        17.0000   6.7500  15.0000 Du        
   4167 ****        17.0000   6.7500  15.2500 Du        
   4168 ****        17.0000   6.7500  15.5000 Du        
   4169 ****        17.0000   6.7500  15.7500 Du        
   4170 ****        17.0000   6.7500  16.0000 Du        
   4171 ****        17.0000   6.7500  16.2500 Du        
   4172 ****        17.0000   6.7500  16.5000 Du        
   4173 ****        17.0000   6.7500  16.7500 Du        
   4174 ****        17.0000   7.0000  14.0000 Du        
   4175 ****        17.0000   7.0000  14.2500 Du        
   4176 ****        17.0000   7.0000  14.5000 Du        
   4177 ****        17.0000   7.0000  14.7500 Du        
   4178 ****        17.0000   7.0000  15.0000 Du        
   4179 ****        17.0000   7.0000  15.2500 Du        
   4180 ****        17.0000   7.0000  15.5000 Du        
   4181 ****        17.0000   7.0000  15.7500 Du        
   4182 ****        17.0000   7.0000  16.0000 Du        
   4183 ****        17.0000   7.0000  16.2500 Du        
   4184 ****        17.0000   7.2500  13.7500 Du        
   4185 ****        17.0000   7.2500  14.0000 Du        
   4186 ****        17.0000   7.2500  14.2500 Du        
   4187 ****        17.0000   7.2500  14.5000 Du        
   4188 ****        17.0000   7.2500  14.7500 Du        
   4189 ****        17.0000   7.2500  15.0000 Du        
   4190 ****        17.0000   7.2500  15.2500 Du        
   4191 ****        17.0000   7.2500  15.5000 Du        
   4192 ****        17.0000   7.2500  15.7500 Du        
   4193 ****        17.0000   7.2500  16.0000 Du        
   4194 ****        17.0000   7.5000  13.7500 Du        
   4195 ****        17.0000   7.5000  14.0000 Du        
   4196 ****        17.0000   7.5000  14.2500 Du        
   4197 ****        17.0000   7.5000  14.5000 Du        
   4198 ****        17.0000   7.5000  14.7500 Du        
   4199 ****        17.0000   7.5000  15.0000 Du        
   4200 ****        17.0000   7.5000  15.2500 Du        
   4201 ****        17.0000   7.7500  13.7500 Du        
   4202 ****        17.0000   7.7500  14.0000 Du        
   4203 ****        17.0000   7.7500  14.2500 Du        
   4204 ****        17.0000   7.7500  14.5000 Du        
   4205 ****        17.0000   7.7500  14.7500 Du        
   4206 ****        17.0000   8.0000  14.0000 Du        
   4207 ****        17.0000   8.0000  14.2500 Du        
   4208 ****        17.2500   6.0000  15.0000 Du        
   4209 ****        17.2500   6.0000  15.2500 Du        
   4210 ****        17.2500   6.0000  15.5000 Du        
   4211 ****        17.2500   6.0000  15.7500 Du        
   4212 ****        17.2500   6.0000  16.0000 Du        
   4213 ****        17.2500   6.2500  14.7500 Du        
   4214 ****        17.2500   6.2500  15.0000 Du        
   4215 ****        17.2500   6.2500  15.2500 Du        
   4216 ****        17.2500   6.2500  15.5000 Du        
   4217 ****        17.2500   6.2500  15.7500 Du        
   4218 ****        17.2500   6.2500  16.0000 Du        
   4219 ****        17.2500   6.2500  16.2500 Du        
   4220 ****        17.2500   6.5000  14.5000 Du        
   4221 ****        17.2500   6.5000  14.7500 Du        
   4222 ****        17.2500   6.5000  15.0000 Du        
   4223 ****        17.2500   6.5000  15.2500 Du        
   4224 ****        17.2500   6.5000  15.5000 Du        
   4225 ****        17.2500   6.5000  15.7500 Du        
   4226 ****        17.2500   6.5000  16.0000 Du        
   4227 ****        17.2500   6.5000  16.2500 Du        
   4228 ****        17.2500   6.7500  14.2500 Du        
   4229 ****        17.2500   6.7500  14.5000 Du        
   4230 ****        17.2500   6.7500  14.7500 Du        
   4231 ****        17.2500   6.7500  15.0000 Du        
   4232 ****        17.2500   6.7500  15.2500 Du        
   4233 ****        17.2500   6.7500  15.5000 Du        
   4234 ****        17.2500   6.7500  15.7500 Du        
   4235 ****        17.2500   6.7500  16.0000 Du        
   4236 ****        17.2500   6.7500  16.2500 Du        
   4237 ****        17.2500   7.0000  14.0000 Du        
   4238 ****        17.2500   7.0000  14.2500 Du        
   4239 ****        17.2500   7.0000  14.5000 Du        
   4240 ****        17.2500   7.0000  14.7500 Du        
   4241 ****        17.2500   7.0000  15.0000 Du        
   4242 ****        17.2500   7.0000  15.2500 Du        
   4243 ****        17.2500   7.0000  15.5000 Du        
   4244 ****        17.2500   7.0000  15.7500 Du        
   4245 ****        17.2500   7.0000  16.0000 Du        
   4246 ****        17.2500   7.2500  14.0000 Du        
   4247 ****        17.2500   7.2500  14.2500 Du        
   4248 ****        17.2500   7.2500  14.5000 Du        
   4249 ****        17.2500   7.2500  14.7500 Du        
   4250 ****        17.2500   7.2500  15.0000 Du        
   4251 ****        17.2500   7.2500  15.2500 Du        
   4252 ****        17.2500   7.2500  15.5000 Du        
   4253 ****        17.2500   7.5000  14.0000 Du        
   4254 ****        17.2500   7.5000  14.2500 Du        
   4255 ****        17.2500   7.5000  14.5000 Du        
   4256 ****        17.2500   7.5000  14.7500 Du        
   4257 ****        17.2500   7.5000  15.0000 Du        
   4258 ****        17.2500   7.7500  14.0000 Du        
   4259 ****        17.2500   7.7500  14.2500 Du        
   4260 ****        17.5000   6.0000  14.7500 Du        
   4261 ****        17.5000   6.0000  15.0000 Du        
   4262 ****        17.5000   6.0000  15.2500 Du        
   4263 ****        17.5000   6.0000  15.5000 Du        
   4264 ****        17.5000   6.2500  14.5000 Du        
   4265 ****        17.5000   6.2500  14.7500 Du        
   4266 ****        17.5000   6.2500  15.0000 Du        
   4267 ****        17.5000   6.2500  15.2500 Du        
   4268 ****        17.5000   6.2500  15.5000 Du        
   4269 ****        17.5000   6.2500  15.7500 Du        
   4270 ****        17.5000   6.2500  16.0000 Du        
   4271 ****        17.5000   6.5000  14.2500 Du        
   4272 ****        17.5000   6.5000  14.5000 Du        
   4273 ****        17.5000   6.5000  14.7500 Du        
   4274 ****        17.5000   6.5000  15.0000 Du        
   4275 ****        17.5000   6.5000  15.2500 Du        
   4276 ****        17.5000   6.5000  15.5000 Du        
   4277 ****        17.5000   6.5000  15.7500 Du        
   4278 ****        17.5000   6.5000  16.0000 Du        
   4279 ****        17.5000   6.7500  14.2500 Du        
   4280 ****        17.5000   6.7500  14.5000 Du        
   4281 ****        17.5000   6.7500  14.7500 Du        
   4282 ****        17.5000   6.7500  15.0000 Du        
   4283 ****        17.5000   6.7500  15.2500 Du        
   4284 ****        17.5000   6.7500  15.5000 Du        
   4285 ****        17.5000   6.7500  15.7500 Du        
   4286 ****        17.5000   7.0000  14.0000 Du        
   4287 ****        17.5000   7.0000  14.2500 Du        
   4288 ****        17.5000   7.0000  14.5000 Du        
   4289 ****        17.5000   7.0000  14.7500 Du        
   4290 ****        17.5000   7.0000  15.0000 Du        
   4291 ****        17.5000   7.0000  15.2500 Du        
   4292 ****        17.5000   7.0000  15.5000 Du        
   4293 ****        17.5000   7.2500  14.2500 Du        
   4294 ****        17.5000   7.2500  14.5000 Du        
   4295 ****        17.5000   7.2500  14.7500 Du        
   4296 ****        17.5000   7.2500  15.0000 Du        
   4297 ****        17.5000   7.5000  14.2500 Du        
   4298 ****        17.5000   7.5000  14.5000 Du        
   4299 ****        17.7500   6.0000  14.7500 Du        
   4300 ****        17.7500   6.0000  15.0000 Du        
   4301 ****        17.7500   6.2500  14.5000 Du        
   4302 ****        17.7500   6.2500  14.7500 Du        
   4303 ****        17.7500   6.2500  15.0000 Du        
   4304 ****        17.7500   6.2500  15.2500 Du        
   4305 ****        17.7500   6.2500  15.5000 Du        
   4306 ****        17.7500   6.5000  14.2500 Du        
   4307 ****        17.7500   6.5000  14.5000 Du        
   4308 ****        17.7500   6.5000  14.7500 Du        
   4309 ****        17.7500   6.5000  15.0000 Du        
   4310 ****        17.7500   6.5000  15.2500 Du        
   4311 ****        17.7500   6.5000  15.5000 Du        
   4312 ****        17.7500   6.7500  14.2500 Du        
   4313 ****        17.7500   6.7500  14.5000 Du        
   4314 ****        17.7500   6.7500  14.7500 Du        
   4315 ****        17.7500   6.7500  15.0000 Du        
   4316 ****        17.7500   6.7500  15.2500 Du        
   4317 ****        17.7500   7.0000  14.2500 Du        
   4318 ****        17.7500   7.0000  14.5000 Du        
   4319 ****        17.7500   7.0000  14.7500 Du        
   4320 ****        17.7500   7.0000  15.0000 Du        
   4321 ****        17.7500   7.2500  14.2500 Du        
   4322 ****        17.7500   7.2500  14.5000 Du        
   4323 ****        17.7500   7.2500  14.7500 Du        
   4324 ****        18.0000   6.0000  14.7500 Du        
   4325 ****        18.0000   6.2500  14.2500 Du        
   4326 ****        18.0000   6.2500  14.5000 Du        
   4327 ****        18.0000   6.2500  14.7500 Du        
   4328 ****        18.0000   6.2500  15.0000 Du        
   4329 ****        18.0000   6.2500  15.2500 Du        
   4330 ****        18.0000   6.5000  14.2500 Du        
   4331 ****        18.0000   6.5000  14.5000 Du        
   4332 ****        18.0000   6.5000  14.7500 Du        
   4333 ****        18.0000   6.5000  15.0000 Du        
   4334 ****        18.0000   6.5000  15.2500 Du        
   4335 ****        18.0000   6.7500  14.2500 Du        
   4336 ****        18.0000   6.7500  14.5000 Du        
   4337 ****        18.0000   6.7500  14.7500 Du        
   4338 ****        18.0000   6.7500  15.0000 Du        
   4339 ****        18.0000   7.0000  14.5000 Du        
   4340 ****        18.0000   7.0000  14.7500 Du        
   4341 ****        18.2500   6.2500  14.5000 Du        
   4342 ****        18.2500   6.2500  14.7500 Du        
