#       Name:                CT1002167954
#       Creating user name   hitesit
#       Creation time:       Sun Apr 16 02:21:50 2023


#       File generated by GOLD software.
#

@<TRIPOS>MOLECULE
CT1002167954|ligand_prepared|mol2|1|dock8
    29    30     1
SMALL
NO_CHARGES


@<TRIPOS>ATOM
      1 C1          15.5242   7.8636  14.6862 C.3            1 RES1               0.0000
      2 C2          15.0671   6.5233  15.2974 C.ar           1 RES1               0.0000
      3 C3          16.7407   7.5472  13.8212 C.2            1 RES1               0.0000
      4 C4          14.3311   8.4062  13.9072 C.2            1 RES1               0.0000
      5 C5          15.9307   8.9231  15.7368 C.3            1 RES1               0.0000
      6 C6          15.8187   5.9053  16.2923 C.ar           1 RES1               0.0000
      7 C7          13.8969   5.8953  14.8793 C.ar           1 RES1               0.0000
      8 N8          16.5750   7.5637  12.4676 N.am           1 RES1               0.0000
      9 O9          17.8191   7.2490  14.3196 O.2            1 RES1               0.0000
     10 N10         14.4442   8.5036  12.5451 N.am           1 RES1               0.0000
     11 O11         13.2881   8.7346  14.4591 O.2            1 RES1               0.0000
     12 C12         15.9583  10.3439  15.1957 C.3            1 RES1               0.0000
     13 C13         15.4136   4.7045  16.8512 C.ar           1 RES1               0.0000
     14 C14         13.4938   4.6944  15.4393 C.ar           1 RES1               0.0000
     15 C15         15.5009   8.0781  11.7870 C.2            1 RES1               0.0000
     16 C16         14.2508   4.0985  16.4254 C.ar           1 RES1               0.0000
     17 O17         15.5062   8.1495  10.5614 O.2            1 RES1               0.0000
     18 H18         15.2246   8.8781  16.5751 H              1 RES1               0.0000
     19 H19         16.9264   8.6731  16.1234 H              1 RES1               0.0000
     20 H20         16.7379   6.3660  16.6384 H              1 RES1               0.0000
     21 H21         13.2860   6.3453  14.1040 H              1 RES1               0.0000
     22 H22         17.3185   7.1558  11.9098 H              1 RES1               0.0000
     23 H23         13.6689   8.9331  12.0504 H              1 RES1               0.0000
     24 H24         16.2494  11.0471  15.9732 H              1 RES1               0.0000
     25 H25         16.6692  10.4310  14.3766 H              1 RES1               0.0000
     26 H26         14.9774  10.6348  14.8256 H              1 RES1               0.0000
     27 H27         16.0137   4.2389  17.6260 H              1 RES1               0.0000
     28 H28         12.5782   4.2207  15.1007 H              1 RES1               0.0000
     29 H29         13.9335   3.1580  16.8636 H              1 RES1               0.0000
@<TRIPOS>BOND
    1    1    2 1     
    2    1    3 1     
    3    1    4 1     
    4    1    5 1     
    5    2    6 ar    
    6    2    7 ar    
    7    3    8 1     
    8    3    9 2     
    9    4   10 1     
   10    4   11 2     
   11    5   12 1     
   12    5   18 1     
   13    5   19 1     
   14    6   13 ar    
   15    6   20 1     
   16    7   14 ar    
   17    7   21 1     
   18    8   15 1     
   19    8   22 1     
   20   10   15 1     
   21   10   23 1     
   22   12   24 1     
   23   12   25 1     
   24   12   26 1     
   25   13   16 ar    
   26   13   27 1     
   27   14   16 ar    
   28   14   28 1     
   29   15   17 2     
   30   16   29 1     
@<TRIPOS>SUBSTRUCTURE
      1 RES1           1
@<TRIPOS>SET
DONOR_HYDROGENS      STATIC     ATOMS    <user>   **** ""
2 22 23
ATOM$RED        STATIC     ATOMS    COLORGROUP SYSTEM
2 22 23
@<TRIPOS>COMMENT
> <Gold.Version>
2022.3.0

> <Gold.Id.Protein>
unknown|4i1b_cavity_clean|pdb

> <Gold.Protein.RotatedTorsions>
[ 1397 1388 1387 1385 ] final -141.76 input   60.01 | X-H torsion
[  952  941  940  939 ] final  -86.08 input   60.01 | X-H torsion
[   48   47   46   43 ] final  101.36 input   60.02 | X-H torsion
[  987  978  977  976 ] final   55.17 input   59.99 | X-H torsion
[ 1041 1036 1035 1033 ] final  175.36 input   59.96 | X-H torsion
[  651  646  645  642 ] final  112.06 input   60.00 | X-H torsion
[  678  674  673  670 ] final  -45.24 input   59.98 | X-H torsion
[ 2412 2406 2405 2402 ] final  -83.07 input   60.02 | X-H torsion
[ 2413 2407 2403 2402 ] final -119.98 input   60.02 | X-H torsion

> <Gold.Protein.ActiveResidues>
 SER5    ASN7    SER43   SER45   GLY61   LEU62   LYS63   GLU64   LYS65   ASN66  
 LEU67   TYR68   VAL85   ASP86   PRO87   TYR90   PRO91   SER153 

> <Gold.Protein.RotatedAtoms>
   17.2955   15.9631   15.1779 H   0  0  0  0  0  0  0  0  0  0  0  0  # atno 48   bound_to 47  
   15.1635   13.1014   12.6301 H   0  0  0  0  0  0  0  0  0  0  0  0  # atno 651  bound_to 646 
   18.0570   15.7652   12.9325 H   0  0  0  0  0  0  0  0  0  0  0  0  # atno 678  bound_to 674 
    5.3384   11.1112   11.6419 H   0  0  0  0  0  0  0  0  0  0  0  0  # atno 952  bound_to 941 
    5.2325   10.1402   12.9812 H   0  0  0  0  0  0  0  0  0  0  0  0  # atno 953  bound_to 941 
    4.2675   11.4828   12.8516 H   0  0  0  0  0  0  0  0  0  0  0  0  # atno 954  bound_to 941 
    9.3153    1.9040   11.4223 H   0  0  0  0  0  0  0  0  0  0  0  0  # atno 987  bound_to 978 
    7.8663    1.3590   10.8290 H   0  0  0  0  0  0  0  0  0  0  0  0  # atno 988  bound_to 978 
    9.2804    0.9510   10.0668 H   0  0  0  0  0  0  0  0  0  0  0  0  # atno 989  bound_to 978 
   18.6443    9.5044   13.1375 H   0  0  0  0  0  0  0  0  0  0  0  0  # atno 1041 bound_to 1036
   26.8072    6.8354   11.4558 H   0  0  0  0  0  0  0  0  0  0  0  0  # atno 1397 bound_to 1388
    7.2752   18.7024   15.7847 H   0  0  0  0  0  0  0  0  0  0  0  0  # atno 2412 bound_to 2406
    3.9547   16.2075   18.0592 H   0  0  0  0  0  0  0  0  0  0  0  0  # atno 2413 bound_to 2407
   26.0174    5.6665   10.6434 LP  0  0  0  0  0  0  0  0  0  0  0  0  # atno 2416 bound_to 1388
   26.7356    5.3299   12.0708 LP  0  0  0  0  0  0  0  0  0  0  0  0  # atno 2417 bound_to 1388
   17.5303   16.4772   13.6517 LP  0  0  0  0  0  0  0  0  0  0  0  0  # atno 2428 bound_to 47  
   16.5845   15.1781   13.9421 LP  0  0  0  0  0  0  0  0  0  0  0  0  # atno 2429 bound_to 47  
   17.8784   10.6963   12.3369 LP  0  0  0  0  0  0  0  0  0  0  0  0  # atno 2444 bound_to 1036
   19.4862   10.7917   12.6061 LP  0  0  0  0  0  0  0  0  0  0  0  0  # atno 2445 bound_to 1036
   14.8304   12.3509   11.2247 LP  0  0  0  0  0  0  0  0  0  0  0  0  # atno 2458 bound_to 646 
   14.0246   11.9395   12.5841 LP  0  0  0  0  0  0  0  0  0  0  0  0  # atno 2459 bound_to 646 
   19.0223   14.4595   13.0432 LP  0  0  0  0  0  0  0  0  0  0  0  0  # atno 2462 bound_to 674 
   17.9978   14.6161   11.7813 LP  0  0  0  0  0  0  0  0  0  0  0  0  # atno 2463 bound_to 674 
    8.4982   17.6682   16.0717 LP  0  0  0  0  0  0  0  0  0  0  0  0  # atno 2468 bound_to 2406
    7.1172   17.5644   16.9369 LP  0  0  0  0  0  0  0  0  0  0  0  0  # atno 2469 bound_to 2406
    3.5094   15.5577   16.7093 LP  0  0  0  0  0  0  0  0  0  0  0  0  # atno 2470 bound_to 2407

> <Gold.Score>
     Fitness  S(hb_ext) S(vdw_ext)  S(hb_int)    S(int)      intcor
     31.50       1.17      23.77       0.00      -2.36      -0.77

> <Gold.Goldscore.Fitness>
31.4970

> <Gold.Goldscore.Internal.Vdw>
-2.2745

> <Gold.Goldscore.Internal.Torsion>
-0.8531

> <Gold.Goldscore.External.Vdw>
23.7728

> <Gold.Goldscore.Internal.HBond>
0.0000

> <Gold.Goldscore.External.HBond>
1.1684

> <Gold.Goldscore.Internal.Correction>
-0.7686

> <Gold.Goldscore.Hbonds>
donor molecule, donor type, donor heavy atom, donor atom, acceptor molecule, acceptor atom, score
      P1  H  1036  1041       L1     9  0.14
      P1  H  1006  1014       L1    17  0.05
      L1  H    10    23       P1   917  0.39

> <Gold.Goldscore.Internal.Vdw.Weighted>
-2.2745

> <Gold.Goldscore.Internal.Torsion.Weighted>
-0.8531

> <Gold.Goldscore.External.Vdw.Weighted>
32.6875

> <Gold.Goldscore.Internal.HBond.Weighted>
0.0000

> <Gold.Goldscore.External.HBond.Weighted>
1.1684

> <Gold.Goldscore.Internal.Correction.Weighted>
-0.7686

> <Gold.Rescore>
     Score     S(PLP)   S(hbond)     S(cho)   S(metal)  DE(clash)   DE(tors)     intcor
     29.92     -31.71       0.15       0.00       0.00       1.43       0.40       ----

> <Gold.PLP.Fitness>
29.9231

> <Gold.PLP.PLP>
-31.7055

> <Gold.PLP.part.hbond>
-2.4000

> <Gold.PLP.part.metal>
0.0000

> <Gold.PLP.part.buried>
-6.2240

> <Gold.PLP.part.nonpolar>
-25.5922

> <Gold.PLP.part.repulsive>
1.5248

> <Gold.PLP.ligand.clash>
1.4346

> <Gold.PLP.ligand.torsion>
0.3950

> <Gold.PLP.Chemscore.Hbond>
0.1474

> <Gold.PLP.Chemscore.CHOScore>
0.0000

> <Gold.PLP.Chemscore.Metal>
0.0000

> <Gold.Chemscore.Hbonds>
donor molecule, donor type, donor heavy atom, donor atom, acceptor molecule, acceptor atom, score
      L1  H    10    23       P1   917  0.70
      P1  H   914   932       L1    17  0.14

> <Gold.PLP.Chemscore.Internal.Correction>
   9.000000E+99

