#       Name:                CT1002167954
#       Creating user name   hitesit
#       Creation time:       Sun Apr 16 02:21:49 2023


#       File generated by GOLD software.
#

@<TRIPOS>MOLECULE
CT1002167954|ligand_prepared|mol2|1|dock7
    29    30     1
SMALL
NO_CHARGES


@<TRIPOS>ATOM
      1 C1          15.0630   7.8491  15.2694 C.3            1 RES1               0.0000
      2 C2          14.1995   6.6169  15.6081 C.ar           1 RES1               0.0000
      3 C3          14.4763   9.0142  16.0610 C.2            1 RES1               0.0000
      4 C4          16.4922   7.4888  15.6598 C.2            1 RES1               0.0000
      5 C5          15.0575   8.2226  13.7687 C.3            1 RES1               0.0000
      6 C6          14.4173   5.4011  14.9670 C.ar           1 RES1               0.0000
      7 C7          13.1849   6.6798  16.5595 C.ar           1 RES1               0.0000
      8 N8          15.1723   9.4533  17.1485 N.am           1 RES1               0.0000
      9 O9          13.3997   9.5141  15.7589 O.2            1 RES1               0.0000
     10 N10         17.0731   8.1873  16.6857 N.am           1 RES1               0.0000
     11 O11         17.1146   6.5951  15.0993 O.2            1 RES1               0.0000
     12 C12         15.8327   9.4912  13.4497 C.3            1 RES1               0.0000
     13 C13         13.6507   4.2876  15.2682 C.ar           1 RES1               0.0000
     14 C14         12.4193   5.5651  16.8591 C.ar           1 RES1               0.0000
     15 C15         16.4671   9.1323  17.4680 C.2            1 RES1               0.0000
     16 C16         12.6516   4.3687  16.2147 C.ar           1 RES1               0.0000
     17 O17         17.0385   9.6777  18.4078 O.2            1 RES1               0.0000
     18 H18         15.4887   7.3919  13.1965 H              1 RES1               0.0000
     19 H19         14.0186   8.3519  13.4409 H              1 RES1               0.0000
     20 H20         15.1975   5.3188  14.2176 H              1 RES1               0.0000
     21 H21         12.9836   7.6108  17.0784 H              1 RES1               0.0000
     22 H22         14.6849  10.0780  17.7829 H              1 RES1               0.0000
     23 H23         18.0475   7.9840  16.8845 H              1 RES1               0.0000
     24 H24         15.7968   9.7075  12.3841 H              1 RES1               0.0000
     25 H25         15.4150  10.3429  13.9826 H              1 RES1               0.0000
     26 H26         16.8764   9.3886  13.7397 H              1 RES1               0.0000
     27 H27         13.8366   3.3487  14.7572 H              1 RES1               0.0000
     28 H28         11.6336   5.6337  17.6042 H              1 RES1               0.0000
     29 H29         12.0514   3.4961  16.4507 H              1 RES1               0.0000
@<TRIPOS>BOND
    1    1    2 1     
    2    1    3 1     
    3    1    4 1     
    4    1    5 1     
    5    2    6 ar    
    6    2    7 ar    
    7    3    8 1     
    8    3    9 2     
    9    4   10 1     
   10    4   11 2     
   11    5   12 1     
   12    5   18 1     
   13    5   19 1     
   14    6   13 ar    
   15    6   20 1     
   16    7   14 ar    
   17    7   21 1     
   18    8   15 1     
   19    8   22 1     
   20   10   15 1     
   21   10   23 1     
   22   12   24 1     
   23   12   25 1     
   24   12   26 1     
   25   13   16 ar    
   26   13   27 1     
   27   14   16 ar    
   28   14   28 1     
   29   15   17 2     
   30   16   29 1     
@<TRIPOS>SUBSTRUCTURE
      1 RES1           1
@<TRIPOS>SET
DONOR_HYDROGENS      STATIC     ATOMS    <user>   **** ""
2 22 23
ATOM$RED        STATIC     ATOMS    COLORGROUP SYSTEM
2 22 23
@<TRIPOS>COMMENT
> <Gold.Version>
2022.3.0

> <Gold.Id.Protein>
unknown|4i1b_cavity_clean|pdb

> <Gold.Protein.RotatedTorsions>
[ 1397 1388 1387 1385 ] final  -74.37 input   60.01 | X-H torsion
[  952  941  940  939 ] final  156.59 input   60.01 | X-H torsion
[   48   47   46   43 ] final  -95.76 input   60.02 | X-H torsion
[  987  978  977  976 ] final  -62.29 input   59.99 | X-H torsion
[ 1041 1036 1035 1033 ] final   14.10 input   59.96 | X-H torsion
[  651  646  645  642 ] final   89.15 input   60.00 | X-H torsion
[  678  674  673  670 ] final  166.06 input   59.98 | X-H torsion
[ 2412 2406 2405 2402 ] final -114.44 input   60.02 | X-H torsion
[ 2413 2407 2403 2402 ] final -119.98 input   60.02 | X-H torsion

> <Gold.Protein.ActiveResidues>
 SER5    ASN7    SER43   SER45   GLY61   LEU62   LYS63   GLU64   LYS65   ASN66  
 LEU67   TYR68   VAL85   ASP86   PRO87   TYR90   PRO91   SER153 

> <Gold.Protein.RotatedAtoms>
   16.8235   15.5694   13.4306 H   0  0  0  0  0  0  0  0  0  0  0  0  # atno 48   bound_to 47  
   15.3047   13.1432   12.2884 H   0  0  0  0  0  0  0  0  0  0  0  0  # atno 651  bound_to 646 
   18.9235   14.2059   12.6652 H   0  0  0  0  0  0  0  0  0  0  0  0  # atno 678  bound_to 674 
    4.2714   11.5076   12.8149 H   0  0  0  0  0  0  0  0  0  0  0  0  # atno 952  bound_to 941 
    5.3645   11.0752   11.6461 H   0  0  0  0  0  0  0  0  0  0  0  0  # atno 953  bound_to 941 
    5.2031   10.1508   13.0135 H   0  0  0  0  0  0  0  0  0  0  0  0  # atno 954  bound_to 941 
    9.3173    0.9657   10.0819 H   0  0  0  0  0  0  0  0  0  0  0  0  # atno 987  bound_to 978 
    9.2786    1.9143   11.4411 H   0  0  0  0  0  0  0  0  0  0  0  0  # atno 988  bound_to 978 
    7.8670    1.3339   10.7947 H   0  0  0  0  0  0  0  0  0  0  0  0  # atno 989  bound_to 978 
   18.3978   11.0906   12.2226 H   0  0  0  0  0  0  0  0  0  0  0  0  # atno 1041 bound_to 1036
   27.0103    6.1098   12.1719 H   0  0  0  0  0  0  0  0  0  0  0  0  # atno 1397 bound_to 1388
    7.7389   18.6277   15.5963 H   0  0  0  0  0  0  0  0  0  0  0  0  # atno 2412 bound_to 2406
    3.9547   16.2075   18.0592 H   0  0  0  0  0  0  0  0  0  0  0  0  # atno 2413 bound_to 2407
   26.3679    6.6433   10.7745 LP  0  0  0  0  0  0  0  0  0  0  0  0  # atno 2416 bound_to 1388
   26.1807    5.0832   11.2191 LP  0  0  0  0  0  0  0  0  0  0  0  0  # atno 2417 bound_to 1388
   16.8839   15.4279   15.0509 LP  0  0  0  0  0  0  0  0  0  0  0  0  # atno 2428 bound_to 47  
   17.7059   16.6237   14.3017 LP  0  0  0  0  0  0  0  0  0  0  0  0  # atno 2429 bound_to 47  
   19.5748   10.2214   12.9350 LP  0  0  0  0  0  0  0  0  0  0  0  0  # atno 2444 bound_to 1036
   18.0379    9.6695   12.9291 LP  0  0  0  0  0  0  0  0  0  0  0  0  # atno 2445 bound_to 1036
   14.5610   12.0982   11.2863 LP  0  0  0  0  0  0  0  0  0  0  0  0  # atno 2458 bound_to 646 
   14.1518   12.1501   12.8664 LP  0  0  0  0  0  0  0  0  0  0  0  0  # atno 2459 bound_to 646 
   17.7734   15.0200   11.8505 LP  0  0  0  0  0  0  0  0  0  0  0  0  # atno 2462 bound_to 674 
   18.3746   15.6250   13.2430 LP  0  0  0  0  0  0  0  0  0  0  0  0  # atno 2463 bound_to 674 
    8.3243   17.3698   16.4466 LP  0  0  0  0  0  0  0  0  0  0  0  0  # atno 2468 bound_to 2406
    6.8241   17.9380   16.7518 LP  0  0  0  0  0  0  0  0  0  0  0  0  # atno 2469 bound_to 2406
    3.5094   15.5577   16.7093 LP  0  0  0  0  0  0  0  0  0  0  0  0  # atno 2470 bound_to 2407

> <Gold.Score>
     Fitness  S(hb_ext) S(vdw_ext)  S(hb_int)    S(int)      intcor
     28.36       0.80      21.64       0.00      -2.19      -0.77

> <Gold.Goldscore.Fitness>
28.3644

> <Gold.Goldscore.Internal.Vdw>
-2.5633

> <Gold.Goldscore.Internal.Torsion>
-0.3935

> <Gold.Goldscore.External.Vdw>
21.6395

> <Gold.Goldscore.Internal.HBond>
0.0000

> <Gold.Goldscore.External.HBond>
0.7982

> <Gold.Goldscore.Internal.Correction>
-0.7686

> <Gold.Goldscore.Hbonds>
donor molecule, donor type, donor heavy atom, donor atom, acceptor molecule, acceptor atom, score
      L1  H    10    23       P1  1380  0.40

> <Gold.Goldscore.Internal.Vdw.Weighted>
-2.5633

> <Gold.Goldscore.Internal.Torsion.Weighted>
-0.3935

> <Gold.Goldscore.External.Vdw.Weighted>
29.7543

> <Gold.Goldscore.Internal.HBond.Weighted>
0.0000

> <Gold.Goldscore.External.HBond.Weighted>
0.7982

> <Gold.Goldscore.Internal.Correction.Weighted>
-0.7686

> <Gold.Rescore>
     Score     S(PLP)   S(hbond)     S(cho)   S(metal)  DE(clash)   DE(tors)     intcor
     31.40     -30.42       0.85       0.00       0.00       1.28       0.14       ----

> <Gold.PLP.Fitness>
31.4046

> <Gold.PLP.PLP>
-30.4214

> <Gold.PLP.part.hbond>
-1.0000

> <Gold.PLP.part.metal>
0.0000

> <Gold.PLP.part.buried>
-5.1477

> <Gold.PLP.part.nonpolar>
-25.4558

> <Gold.PLP.part.repulsive>
0.4285

> <Gold.PLP.ligand.clash>
1.2815

> <Gold.PLP.ligand.torsion>
0.1396

> <Gold.PLP.Chemscore.Hbond>
0.8480

> <Gold.PLP.Chemscore.CHOScore>
0.0000

> <Gold.PLP.Chemscore.Metal>
0.0000

> <Gold.Chemscore.Hbonds>
donor molecule, donor type, donor heavy atom, donor atom, acceptor molecule, acceptor atom, score
      L1  H    10    23       P1  1380  1.00

> <Gold.PLP.Chemscore.Internal.Correction>
   9.000000E+99

