#       Name:                CT1002167954
#       Creating user name   hitesit
#       Creation time:       Sun Apr 16 02:21:43 2023


#       File generated by GOLD software.
#

@<TRIPOS>MOLECULE
CT1002167954|ligand_prepared|mol2|1|dock2
    29    30     1
SMALL
NO_CHARGES


@<TRIPOS>ATOM
      1 C1          15.4652   7.1384  15.4983 C.3            1 RES1               0.0000
      2 C2          14.8717   5.7489  15.8081 C.ar           1 RES1               0.0000
      3 C3          14.6772   8.1381  16.3396 C.2            1 RES1               0.0000
      4 C4          16.9461   7.0583  15.8520 C.2            1 RES1               0.0000
      5 C5          15.3506   7.5494  14.0118 C.3            1 RES1               0.0000
      6 C6          15.4039   4.9619  16.8250 C.ar           1 RES1               0.0000
      7 C7          13.7925   5.2427  15.0887 C.ar           1 RES1               0.0000
      8 N8          15.2972   8.6734  17.4301 N.am           1 RES1               0.0000
      9 O9          13.5160   8.4225  16.0731 O.2            1 RES1               0.0000
     10 N10         17.4003   7.8266  16.8918 N.am           1 RES1               0.0000
     11 O11         17.7205   6.3244  15.2504 O.2            1 RES1               0.0000
     12 C12         16.2026   8.7530  13.6411 C.3            1 RES1               0.0000
     13 C13         14.8744   3.7152  17.1144 C.ar           1 RES1               0.0000
     14 C14         13.2647   3.9956  15.3796 C.ar           1 RES1               0.0000
     15 C15         16.6370   8.6072  17.7166 C.2            1 RES1               0.0000
     16 C16         13.8043   3.2314  16.3923 C.ar           1 RES1               0.0000
     17 O17         17.1104   9.2264  18.6652 O.2            1 RES1               0.0000
     18 H18         15.6493   6.6991  13.3864 H              1 RES1               0.0000
     19 H19         14.3011   7.7775  13.7884 H              1 RES1               0.0000
     20 H20         16.2476   5.3249  17.4024 H              1 RES1               0.0000
     21 H21         13.3525   5.8259  14.2870 H              1 RES1               0.0000
     22 H22         14.7103   9.1685  18.0939 H              1 RES1               0.0000
     23 H23         18.4000   7.8156  17.0672 H              1 RES1               0.0000
     24 H24         16.0852   8.9990  12.5878 H              1 RES1               0.0000
     25 H25         15.9154   9.6240  14.2265 H              1 RES1               0.0000
     26 H26         17.2557   8.5520  13.8268 H              1 RES1               0.0000
     27 H27         15.3036   3.1171  17.9114 H              1 RES1               0.0000
     28 H28         12.4228   3.6185  14.8082 H              1 RES1               0.0000
     29 H29         13.3895   2.2549  16.6194 H              1 RES1               0.0000
@<TRIPOS>BOND
    1    1    2 1     
    2    1    3 1     
    3    1    4 1     
    4    1    5 1     
    5    2    6 ar    
    6    2    7 ar    
    7    3    8 1     
    8    3    9 2     
    9    4   10 1     
   10    4   11 2     
   11    5   12 1     
   12    5   18 1     
   13    5   19 1     
   14    6   13 ar    
   15    6   20 1     
   16    7   14 ar    
   17    7   21 1     
   18    8   15 1     
   19    8   22 1     
   20   10   15 1     
   21   10   23 1     
   22   12   24 1     
   23   12   25 1     
   24   12   26 1     
   25   13   16 ar    
   26   13   27 1     
   27   14   16 ar    
   28   14   28 1     
   29   15   17 2     
   30   16   29 1     
@<TRIPOS>SUBSTRUCTURE
      1 RES1           1
@<TRIPOS>SET
DONOR_HYDROGENS      STATIC     ATOMS    <user>   **** ""
2 22 23
ATOM$RED        STATIC     ATOMS    COLORGROUP SYSTEM
2 22 23
@<TRIPOS>COMMENT
> <Gold.Version>
2022.3.0

> <Gold.Id.Protein>
unknown|4i1b_cavity_clean|pdb

> <Gold.Protein.RotatedTorsions>
[ 1397 1388 1387 1385 ] final  -34.02 input   60.01 | X-H torsion
[  952  941  940  939 ] final  109.89 input   60.01 | X-H torsion
[   48   47   46   43 ] final  -95.87 input   60.02 | X-H torsion
[  987  978  977  976 ] final  -19.96 input   59.99 | X-H torsion
[ 1041 1036 1035 1033 ] final   32.06 input   59.96 | X-H torsion
[  651  646  645  642 ] final  -11.79 input   60.00 | X-H torsion
[  678  674  673  670 ] final   42.78 input   59.98 | X-H torsion
[ 2412 2406 2405 2402 ] final -112.30 input   60.02 | X-H torsion
[ 2413 2407 2403 2402 ] final   60.02 input   60.02 | X-H torsion

> <Gold.Protein.ActiveResidues>
 SER5    ASN7    SER43   SER45   GLY61   LEU62   LYS63   GLU64   LYS65   ASN66  
 LEU67   TYR68   VAL85   ASP86   PRO87   TYR90   PRO91   SER153 

> <Gold.Protein.RotatedAtoms>
   16.8227   15.5681   13.4314 H   0  0  0  0  0  0  0  0  0  0  0  0  # atno 48   bound_to 47  
   14.7831   12.3088   11.2303 H   0  0  0  0  0  0  0  0  0  0  0  0  # atno 651  bound_to 646 
   17.7618   15.0675   11.8741 H   0  0  0  0  0  0  0  0  0  0  0  0  # atno 678  bound_to 674 
    4.4157   10.9320   13.2875 H   0  0  0  0  0  0  0  0  0  0  0  0  # atno 952  bound_to 941 
    4.8416   11.5940   11.8286 H   0  0  0  0  0  0  0  0  0  0  0  0  # atno 953  bound_to 941 
    5.5819   10.2077   12.3582 H   0  0  0  0  0  0  0  0  0  0  0  0  # atno 954  bound_to 941 
    9.7369    1.3054   10.5134 H   0  0  0  0  0  0  0  0  0  0  0  0  # atno 987  bound_to 978 
    8.5952    1.9249   11.5437 H   0  0  0  0  0  0  0  0  0  0  0  0  # atno 988  bound_to 978 
    8.1307    0.9837   10.2609 H   0  0  0  0  0  0  0  0  0  0  0  0  # atno 989  bound_to 978 
   18.1393   10.9559   12.2445 H   0  0  0  0  0  0  0  0  0  0  0  0  # atno 1041 bound_to 1036
   26.8239    5.4913   12.1512 H   0  0  0  0  0  0  0  0  0  0  0  0  # atno 1397 bound_to 1388
    7.7068   18.6394   15.6033 H   0  0  0  0  0  0  0  0  0  0  0  0  # atno 2412 bound_to 2406
    4.0820   14.8280   16.7990 H   0  0  0  0  0  0  0  0  0  0  0  0  # atno 2413 bound_to 2407
   26.7165    6.8612   11.2785 LP  0  0  0  0  0  0  0  0  0  0  0  0  # atno 2416 bound_to 1388
   26.0197    5.4877   10.7359 LP  0  0  0  0  0  0  0  0  0  0  0  0  # atno 2417 bound_to 1388
   16.8849   15.4290   15.0518 LP  0  0  0  0  0  0  0  0  0  0  0  0  # atno 2428 bound_to 47  
   17.7058   16.6238   14.3000 LP  0  0  0  0  0  0  0  0  0  0  0  0  # atno 2429 bound_to 47  
   19.5943   10.4808   12.7974 LP  0  0  0  0  0  0  0  0  0  0  0  0  # atno 2444 bound_to 1036
   18.2786    9.5457   13.0448 LP  0  0  0  0  0  0  0  0  0  0  0  0  # atno 2445 bound_to 1036
   14.0391   11.9699   12.6377 LP  0  0  0  0  0  0  0  0  0  0  0  0  # atno 2458 bound_to 646 
   15.1986   13.1183   12.5799 LP  0  0  0  0  0  0  0  0  0  0  0  0  # atno 2459 bound_to 646 
   18.4127   15.5968   13.2689 LP  0  0  0  0  0  0  0  0  0  0  0  0  # atno 2462 bound_to 674 
   18.9045   14.1810   12.6208 LP  0  0  0  0  0  0  0  0  0  0  0  0  # atno 2463 bound_to 674 
    8.3436   17.3852   16.4215 LP  0  0  0  0  0  0  0  0  0  0  0  0  # atno 2468 bound_to 2406
    6.8372   17.9108   16.7698 LP  0  0  0  0  0  0  0  0  0  0  0  0  # atno 2469 bound_to 2406
    4.2387   15.3444   18.2658 LP  0  0  0  0  0  0  0  0  0  0  0  0  # atno 2470 bound_to 2407

> <Gold.Score>
     Fitness  S(hb_ext) S(vdw_ext)  S(hb_int)    S(int)      intcor
     28.87       0.55      21.00       0.00      -0.55      -0.77

> <Gold.Goldscore.Fitness>
28.8695

> <Gold.Goldscore.Internal.Vdw>
-0.6856

> <Gold.Goldscore.Internal.Torsion>
-0.6359

> <Gold.Goldscore.External.Vdw>
20.9961

> <Gold.Goldscore.Internal.HBond>
0.0000

> <Gold.Goldscore.External.HBond>
0.5527

> <Gold.Goldscore.Internal.Correction>
-0.7686

> <Gold.Goldscore.Hbonds>
donor molecule, donor type, donor heavy atom, donor atom, acceptor molecule, acceptor atom, score
      L1  H    10    23       P1  1380  0.28

> <Gold.Goldscore.Internal.Vdw.Weighted>
-0.6856

> <Gold.Goldscore.Internal.Torsion.Weighted>
-0.6359

> <Gold.Goldscore.External.Vdw.Weighted>
28.8697

> <Gold.Goldscore.Internal.HBond.Weighted>
0.0000

> <Gold.Goldscore.External.HBond.Weighted>
0.5527

> <Gold.Goldscore.Internal.Correction.Weighted>
-0.7686

> <Gold.Rescore>
     Score     S(PLP)   S(hbond)     S(cho)   S(metal)  DE(clash)   DE(tors)     intcor
     29.10     -28.20       1.00       0.00       0.00       0.00       1.05       ----

> <Gold.PLP.Fitness>
29.0999

> <Gold.PLP.PLP>
-28.1994

> <Gold.PLP.part.hbond>
-1.0000

> <Gold.PLP.part.metal>
0.0000

> <Gold.PLP.part.buried>
-5.7281

> <Gold.PLP.part.nonpolar>
-22.3481

> <Gold.PLP.part.repulsive>
0.3571

> <Gold.PLP.ligand.clash>
0.0000

> <Gold.PLP.ligand.torsion>
1.0498

> <Gold.PLP.Chemscore.Hbond>
1.0000

> <Gold.PLP.Chemscore.CHOScore>
0.0000

> <Gold.PLP.Chemscore.Metal>
0.0000

> <Gold.Chemscore.Hbonds>
donor molecule, donor type, donor heavy atom, donor atom, acceptor molecule, acceptor atom, score
      L1  H    10    23       P1  1380  0.45

> <Gold.PLP.Chemscore.Internal.Correction>
   9.000000E+99

