#       Name:                CT1002167954
#       Creating user name   hitesit
#       Creation time:       Sun Apr 16 02:21:46 2023


#       File generated by GOLD software.
#

@<TRIPOS>MOLECULE
CT1002167954|ligand_prepared|mol2|1|dock4
    29    30     1
SMALL
NO_CHARGES


@<TRIPOS>ATOM
      1 C1          14.8924   6.3478  16.1120 C.3            1 RES1               0.0000
      2 C2          15.3831   7.2710  14.9781 C.ar           1 RES1               0.0000
      3 C3          16.1024   5.5287  16.5515 C.2            1 RES1               0.0000
      4 C4          14.3339   7.2633  17.1959 C.2            1 RES1               0.0000
      5 C5          13.7697   5.3744  15.6835 C.3            1 RES1               0.0000
      6 C6          16.7352   7.5724  14.8447 C.ar           1 RES1               0.0000
      7 C7          14.4976   7.8256  14.0579 C.ar           1 RES1               0.0000
      8 N8          16.6818   5.8476  17.7442 N.am           1 RES1               0.0000
      9 O9          16.5653   4.6426  15.8440 O.2            1 RES1               0.0000
     10 N10         14.9830   7.3006  18.4021 N.am           1 RES1               0.0000
     11 O11         13.3473   7.9651  17.0106 O.2            1 RES1               0.0000
     12 C12         13.4656   4.2978  16.7134 C.3            1 RES1               0.0000
     13 C13         17.1861   8.3959  13.8265 C.ar           1 RES1               0.0000
     14 C14         14.9506   8.6492  13.0405 C.ar           1 RES1               0.0000
     15 C15         16.1495   6.6574  18.7151 C.2            1 RES1               0.0000
     16 C16         16.2943   8.9345  12.9236 C.ar           1 RES1               0.0000
     17 O17         16.7022   6.7835  19.8040 O.2            1 RES1               0.0000
     18 H18         12.8556   5.9508  15.4948 H              1 RES1               0.0000
     19 H19         14.0614   4.8910  14.7430 H              1 RES1               0.0000
     20 H20         17.4515   7.1598  15.5474 H              1 RES1               0.0000
     21 H21         13.4358   7.6158  14.1311 H              1 RES1               0.0000
     22 H22         17.5954   5.4470  17.9316 H              1 RES1               0.0000
     23 H23         14.5571   7.8594  19.1346 H              1 RES1               0.0000
     24 H24         12.6710   3.6424  16.3630 H              1 RES1               0.0000
     25 H25         14.3464   3.6892  16.9068 H              1 RES1               0.0000
     26 H26         13.1478   4.7427  17.6541 H              1 RES1               0.0000
     27 H27         18.2445   8.6185  13.7397 H              1 RES1               0.0000
     28 H28         14.2451   9.0713  12.3325 H              1 RES1               0.0000
     29 H29         16.6479   9.5793  12.1258 H              1 RES1               0.0000
@<TRIPOS>BOND
    1    1    2 1     
    2    1    3 1     
    3    1    4 1     
    4    1    5 1     
    5    2    6 ar    
    6    2    7 ar    
    7    3    8 1     
    8    3    9 2     
    9    4   10 1     
   10    4   11 2     
   11    5   12 1     
   12    5   18 1     
   13    5   19 1     
   14    6   13 ar    
   15    6   20 1     
   16    7   14 ar    
   17    7   21 1     
   18    8   15 1     
   19    8   22 1     
   20   10   15 1     
   21   10   23 1     
   22   12   24 1     
   23   12   25 1     
   24   12   26 1     
   25   13   16 ar    
   26   13   27 1     
   27   14   16 ar    
   28   14   28 1     
   29   15   17 2     
   30   16   29 1     
@<TRIPOS>SUBSTRUCTURE
      1 RES1           1
@<TRIPOS>SET
DONOR_HYDROGENS      STATIC     ATOMS    <user>   **** ""
2 22 23
ATOM$RED        STATIC     ATOMS    COLORGROUP SYSTEM
2 22 23
@<TRIPOS>COMMENT
> <Gold.Version>
2022.3.0

> <Gold.Id.Protein>
unknown|4i1b_cavity_clean|pdb

> <Gold.Protein.RotatedTorsions>
[ 1397 1388 1387 1385 ] final  121.73 input   60.01 | X-H torsion
[  952  941  940  939 ] final  175.85 input   60.01 | X-H torsion
[   48   47   46   43 ] final   71.66 input   60.02 | X-H torsion
[  987  978  977  976 ] final -161.34 input   59.99 | X-H torsion
[ 1041 1036 1035 1033 ] final  -22.82 input   59.96 | X-H torsion
[  651  646  645  642 ] final  147.92 input   60.00 | X-H torsion
[  678  674  673  670 ] final   64.56 input   59.98 | X-H torsion
[ 2412 2406 2405 2402 ] final    1.80 input   60.02 | X-H torsion
[ 2413 2407 2403 2402 ] final   60.02 input   60.02 | X-H torsion

> <Gold.Protein.ActiveResidues>
 SER5    ASN7    SER43   SER45   GLY61   LEU62   LYS63   GLU64   LYS65   ASN66  
 LEU67   TYR68   VAL85   ASP86   PRO87   TYR90   PRO91   SER153 

> <Gold.Protein.RotatedAtoms>
   17.5432   16.3205   14.9747 H   0  0  0  0  0  0  0  0  0  0  0  0  # atno 48   bound_to 47  
   14.7996   12.8428   12.9954 H   0  0  0  0  0  0  0  0  0  0  0  0  # atno 651  bound_to 646 
   17.9092   14.7577   11.7870 H   0  0  0  0  0  0  0  0  0  0  0  0  # atno 678  bound_to 674 
    4.3398   11.6501   12.5366 H   0  0  0  0  0  0  0  0  0  0  0  0  # atno 952  bound_to 941 
    5.5185   10.8077   11.7311 H   0  0  0  0  0  0  0  0  0  0  0  0  # atno 953  bound_to 941 
    4.9805   10.2759   13.2070 H   0  0  0  0  0  0  0  0  0  0  0  0  # atno 954  bound_to 941 
    7.9375    1.1433   10.5123 H   0  0  0  0  0  0  0  0  0  0  0  0  # atno 987  bound_to 978 
    9.5760    1.1146   10.2608 H   0  0  0  0  0  0  0  0  0  0  0  0  # atno 988  bound_to 978 
    8.9488    1.9556   11.5440 H   0  0  0  0  0  0  0  0  0  0  0  0  # atno 989  bound_to 978 
   18.9818   11.1278   12.3190 H   0  0  0  0  0  0  0  0  0  0  0  0  # atno 1041 bound_to 1036
   26.0772    6.0373   10.5699 H   0  0  0  0  0  0  0  0  0  0  0  0  # atno 1397 bound_to 1388
    6.8087   17.9845   16.7136 H   0  0  0  0  0  0  0  0  0  0  0  0  # atno 2412 bound_to 2406
    4.0820   14.8280   16.7990 H   0  0  0  0  0  0  0  0  0  0  0  0  # atno 2413 bound_to 2407
   26.5351    5.1107   11.8275 LP  0  0  0  0  0  0  0  0  0  0  0  0  # atno 2416 bound_to 1388
   26.9524    6.6887   11.7780 LP  0  0  0  0  0  0  0  0  0  0  0  0  # atno 2417 bound_to 1388
   17.2746   16.1735   13.3762 LP  0  0  0  0  0  0  0  0  0  0  0  0  # atno 2428 bound_to 47  
   16.5908   15.1220   14.4220 LP  0  0  0  0  0  0  0  0  0  0  0  0  # atno 2429 bound_to 47  
   19.2691    9.7479   13.1324 LP  0  0  0  0  0  0  0  0  0  0  0  0  # atno 2444 bound_to 1036
   17.7555   10.1056   12.6347 LP  0  0  0  0  0  0  0  0  0  0  0  0  # atno 2445 bound_to 1036
   15.1877   12.7663   11.4165 LP  0  0  0  0  0  0  0  0  0  0  0  0  # atno 2458 bound_to 646 
   14.0334   11.7844   12.0248 LP  0  0  0  0  0  0  0  0  0  0  0  0  # atno 2459 bound_to 646 
   18.1627   15.7403   13.0595 LP  0  0  0  0  0  0  0  0  0  0  0  0  # atno 2462 bound_to 674 
   19.0062   14.3492   12.9179 LP  0  0  0  0  0  0  0  0  0  0  0  0  # atno 2463 bound_to 674 
    7.7973   18.6108   15.5830 LP  0  0  0  0  0  0  0  0  0  0  0  0  # atno 2468 bound_to 2406
    8.2881   17.3448   16.4901 LP  0  0  0  0  0  0  0  0  0  0  0  0  # atno 2469 bound_to 2406
    4.2387   15.3444   18.2658 LP  0  0  0  0  0  0  0  0  0  0  0  0  # atno 2470 bound_to 2407

> <Gold.Score>
     Fitness  S(hb_ext) S(vdw_ext)  S(hb_int)    S(int)      intcor
     28.67       2.00      20.20       0.00      -1.11      -0.77

> <Gold.Goldscore.Fitness>
28.6694

> <Gold.Goldscore.Internal.Vdw>
-1.3269

> <Gold.Goldscore.Internal.Torsion>
-0.5519

> <Gold.Goldscore.External.Vdw>
20.2033

> <Gold.Goldscore.Internal.HBond>
0.0000

> <Gold.Goldscore.External.HBond>
2.0000

> <Gold.Goldscore.Internal.Correction>
-0.7686

> <Gold.Goldscore.Hbonds>
donor molecule, donor type, donor heavy atom, donor atom, acceptor molecule, acceptor atom, score
      L1  H     8    22       P1  1330  1.00

> <Gold.Goldscore.Internal.Vdw.Weighted>
-1.3269

> <Gold.Goldscore.Internal.Torsion.Weighted>
-0.5519

> <Gold.Goldscore.External.Vdw.Weighted>
27.7796

> <Gold.Goldscore.Internal.HBond.Weighted>
0.0000

> <Gold.Goldscore.External.HBond.Weighted>
2.0000

> <Gold.Goldscore.Internal.Correction.Weighted>
-0.7686

> <Gold.Rescore>
     Score     S(PLP)   S(hbond)     S(cho)   S(metal)  DE(clash)   DE(tors)     intcor
     27.74     -27.51       0.78       0.00       0.00       0.05       1.03       ----

> <Gold.PLP.Fitness>
27.7402

> <Gold.PLP.PLP>
-27.5110

> <Gold.PLP.part.hbond>
-1.0000

> <Gold.PLP.part.metal>
0.0000

> <Gold.PLP.part.buried>
-1.3483

> <Gold.PLP.part.nonpolar>
-26.0374

> <Gold.PLP.part.repulsive>
0.2031

> <Gold.PLP.ligand.clash>
0.0513

> <Gold.PLP.ligand.torsion>
1.0297

> <Gold.PLP.Chemscore.Hbond>
0.7800

> <Gold.PLP.Chemscore.CHOScore>
0.0000

> <Gold.PLP.Chemscore.Metal>
0.0000

> <Gold.Chemscore.Hbonds>
donor molecule, donor type, donor heavy atom, donor atom, acceptor molecule, acceptor atom, score
      L1  H     8    22       P1  1330  0.91

> <Gold.PLP.Chemscore.Internal.Correction>
   9.000000E+99

