#       Name:                CT1002167954
#       Creating user name   hitesit
#       Creation time:       Sun Apr 16 02:21:42 2023


#       File generated by GOLD software.
#

@<TRIPOS>MOLECULE
CT1002167954|ligand_prepared|mol2|1|dock1
    29    30     1
SMALL
NO_CHARGES


@<TRIPOS>ATOM
      1 C1          14.7824   6.1081  16.1251 C.3            1 RES1               0.0000
      2 C2          15.3085   7.0579  15.0297 C.ar           1 RES1               0.0000
      3 C3          15.8319   5.0115  16.2816 C.2            1 RES1               0.0000
      4 C4          14.5851   6.9628  17.3721 C.2            1 RES1               0.0000
      5 C5          13.4280   5.4461  15.7804 C.3            1 RES1               0.0000
      6 C6          14.4558   7.9668  14.4106 C.ar           1 RES1               0.0000
      7 C7          16.6422   7.0387  14.6303 C.ar           1 RES1               0.0000
      8 N8          16.6191   5.0446  17.3947 N.am           1 RES1               0.0000
      9 O9          15.9929   4.1538  15.4222 O.2            1 RES1               0.0000
     10 N10         15.3801   6.7069  18.4585 N.am           1 RES1               0.0000
     11 O11         13.7596   7.8666  17.4181 O.2            1 RES1               0.0000
     12 C12         12.9770   4.4078  16.7956 C.3            1 RES1               0.0000
     13 C13         14.9200   8.8275  13.4298 C.ar           1 RES1               0.0000
     14 C14         17.1043   7.9001  13.6490 C.ar           1 RES1               0.0000
     15 C15         16.4091   5.8068  18.5157 C.2            1 RES1               0.0000
     16 C16         16.2445   8.7951  13.0487 C.ar           1 RES1               0.0000
     17 O17         17.1148   5.6721  19.5112 O.2            1 RES1               0.0000
     18 H18         12.6611   6.2272  15.7096 H              1 RES1               0.0000
     19 H19         13.5096   4.9663  14.7972 H              1 RES1               0.0000
     20 H20         13.4097   8.0052  14.6957 H              1 RES1               0.0000
     21 H21         17.3364   6.3422  15.0880 H              1 RES1               0.0000
     22 H22         17.4399   4.4475  17.3935 H              1 RES1               0.0000
     23 H23         15.1869   7.2363  19.3027 H              1 RES1               0.0000
     24 H24         12.0219   3.9746  16.5060 H              1 RES1               0.0000
     25 H25         13.7046   3.6027  16.8732 H              1 RES1               0.0000
     26 H26         12.8612   4.8561  17.7803 H              1 RES1               0.0000
     27 H27         14.2390   9.5291  12.9594 H              1 RES1               0.0000
     28 H28         18.1474   7.8707  13.3518 H              1 RES1               0.0000
     29 H29         16.6080   9.4697  12.2806 H              1 RES1               0.0000
@<TRIPOS>BOND
    1    1    2 1     
    2    1    3 1     
    3    1    4 1     
    4    1    5 1     
    5    2    6 ar    
    6    2    7 ar    
    7    3    8 1     
    8    3    9 2     
    9    4   10 1     
   10    4   11 2     
   11    5   12 1     
   12    5   18 1     
   13    5   19 1     
   14    6   13 ar    
   15    6   20 1     
   16    7   14 ar    
   17    7   21 1     
   18    8   15 1     
   19    8   22 1     
   20   10   15 1     
   21   10   23 1     
   22   12   24 1     
   23   12   25 1     
   24   12   26 1     
   25   13   16 ar    
   26   13   27 1     
   27   14   16 ar    
   28   14   28 1     
   29   15   17 2     
   30   16   29 1     
@<TRIPOS>SUBSTRUCTURE
      1 RES1           1
@<TRIPOS>SET
DONOR_HYDROGENS      STATIC     ATOMS    <user>   **** ""
2 22 23
ATOM$RED        STATIC     ATOMS    COLORGROUP SYSTEM
2 22 23
@<TRIPOS>COMMENT
> <Gold.Version>
2022.3.0

> <Gold.Id.Protein>
unknown|4i1b_cavity_clean|pdb

> <Gold.Protein.RotatedTorsions>
[ 1397 1388 1387 1385 ] final -158.17 input   60.01 | X-H torsion
[  952  941  940  939 ] final   91.98 input   60.01 | X-H torsion
[   48   47   46   43 ] final   65.31 input   60.02 | X-H torsion
[  987  978  977  976 ] final   24.11 input   59.99 | X-H torsion
[ 1041 1036 1035 1033 ] final  -15.72 input   59.96 | X-H torsion
[  651  646  645  642 ] final  -14.36 input   60.00 | X-H torsion
[  678  674  673  670 ] final   47.64 input   59.98 | X-H torsion
[ 2412 2406 2405 2402 ] final -137.42 input   60.02 | X-H torsion
[ 2413 2407 2403 2402 ] final -119.98 input   60.02 | X-H torsion

> <Gold.Protein.ActiveResidues>
 SER5    ASN7    SER43   SER45   GLY61   LEU62   LYS63   GLU64   LYS65   ASN66  
 LEU67   TYR68   VAL85   ASP86   PRO87   TYR90   PRO91   SER153 

> <Gold.Protein.RotatedAtoms>
   17.5841   16.3844   14.9041 H   0  0  0  0  0  0  0  0  0  0  0  0  # atno 48   bound_to 47  
   14.7532   12.2794   11.2327 H   0  0  0  0  0  0  0  0  0  0  0  0  # atno 651  bound_to 646 
   17.7879   14.9982   11.8452 H   0  0  0  0  0  0  0  0  0  0  0  0  # atno 678  bound_to 674 
    4.5728   10.6851   13.3429 H   0  0  0  0  0  0  0  0  0  0  0  0  # atno 952  bound_to 941 
    4.6396   11.6895   12.0259 H   0  0  0  0  0  0  0  0  0  0  0  0  # atno 953  bound_to 941 
    5.6267   10.3592   12.1054 H   0  0  0  0  0  0  0  0  0  0  0  0  # atno 954  bound_to 941 
    9.6656    1.7111   11.1019 H   0  0  0  0  0  0  0  0  0  0  0  0  # atno 987  bound_to 978 
    8.0135    1.6494   11.2248 H   0  0  0  0  0  0  0  0  0  0  0  0  # atno 988  bound_to 978 
    8.7833    0.8536    9.9914 H   0  0  0  0  0  0  0  0  0  0  0  0  # atno 989  bound_to 978 
   18.8720   11.1470   12.2866 H   0  0  0  0  0  0  0  0  0  0  0  0  # atno 1041 bound_to 1036
   26.6790    6.8537   11.2217 H   0  0  0  0  0  0  0  0  0  0  0  0  # atno 1397 bound_to 1388
    8.0660   18.4490   15.5809 H   0  0  0  0  0  0  0  0  0  0  0  0  # atno 2412 bound_to 2406
    3.9547   16.2075   18.0592 H   0  0  0  0  0  0  0  0  0  0  0  0  # atno 2413 bound_to 2407
   26.0256    5.4315   10.7743 LP  0  0  0  0  0  0  0  0  0  0  0  0  # atno 2416 bound_to 1388
   26.8564    5.5465   12.1754 LP  0  0  0  0  0  0  0  0  0  0  0  0  # atno 2417 bound_to 1388
   17.2126   16.0951   13.3461 LP  0  0  0  0  0  0  0  0  0  0  0  0  # atno 2428 bound_to 47  
   16.6116   15.1361   14.5233 LP  0  0  0  0  0  0  0  0  0  0  0  0  # atno 2429 bound_to 47  
   19.3522    9.8258   13.1065 LP  0  0  0  0  0  0  0  0  0  0  0  0  # atno 2444 bound_to 1036
   17.7830   10.0082   12.6933 LP  0  0  0  0  0  0  0  0  0  0  0  0  # atno 2445 bound_to 1036
   14.0505   11.9914   12.6723 LP  0  0  0  0  0  0  0  0  0  0  0  0  # atno 2458 bound_to 646 
   15.2174   13.1263   12.5429 LP  0  0  0  0  0  0  0  0  0  0  0  0  # atno 2459 bound_to 646 
   18.3563   15.6379   13.2297 LP  0  0  0  0  0  0  0  0  0  0  0  0  # atno 2462 bound_to 674 
   18.9347   14.2097   12.6891 LP  0  0  0  0  0  0  0  0  0  0  0  0  # atno 2463 bound_to 674 
    8.0626   17.2614   16.6933 LP  0  0  0  0  0  0  0  0  0  0  0  0  # atno 2468 bound_to 2406
    6.7564   18.2262   16.5207 LP  0  0  0  0  0  0  0  0  0  0  0  0  # atno 2469 bound_to 2406
    3.5094   15.5577   16.7093 LP  0  0  0  0  0  0  0  0  0  0  0  0  # atno 2470 bound_to 2407

> <Gold.Score>
     Fitness  S(hb_ext) S(vdw_ext)  S(hb_int)    S(int)      intcor
     29.05       2.00      20.55       0.00      -1.20      -0.83

> <Gold.Goldscore.Fitness>
29.0489

> <Gold.Goldscore.Internal.Vdw>
-1.6097

> <Gold.Goldscore.Internal.Torsion>
-0.4226

> <Gold.Goldscore.External.Vdw>
20.5474

> <Gold.Goldscore.Internal.HBond>
0.0000

> <Gold.Goldscore.External.HBond>
2.0000

> <Gold.Goldscore.Internal.Correction>
-0.8284

> <Gold.Goldscore.Hbonds>
donor molecule, donor type, donor heavy atom, donor atom, acceptor molecule, acceptor atom, score
      L1  H     8    22       P1  1330  1.00

> <Gold.Goldscore.Internal.Vdw.Weighted>
-1.6097

> <Gold.Goldscore.Internal.Torsion.Weighted>
-0.4226

> <Gold.Goldscore.External.Vdw.Weighted>
28.2527

> <Gold.Goldscore.Internal.HBond.Weighted>
0.0000

> <Gold.Goldscore.External.HBond.Weighted>
2.0000

> <Gold.Goldscore.Internal.Correction.Weighted>
-0.8284

> <Gold.Rescore>
     Score     S(PLP)   S(hbond)     S(cho)   S(metal)  DE(clash)   DE(tors)     intcor
     29.30     -27.93       0.93       0.00       0.00       1.37       0.02       ----

> <Gold.PLP.Fitness>
29.2963

> <Gold.PLP.PLP>
-27.9337

> <Gold.PLP.part.hbond>
-1.0000

> <Gold.PLP.part.metal>
0.0000

> <Gold.PLP.part.buried>
-1.3339

> <Gold.PLP.part.nonpolar>
-26.7263

> <Gold.PLP.part.repulsive>
0.2317

> <Gold.PLP.ligand.clash>
1.3737

> <Gold.PLP.ligand.torsion>
0.0239

> <Gold.PLP.Chemscore.Hbond>
0.9280

> <Gold.PLP.Chemscore.CHOScore>
0.0000

> <Gold.PLP.Chemscore.Metal>
0.0000

> <Gold.Chemscore.Hbonds>
donor molecule, donor type, donor heavy atom, donor atom, acceptor molecule, acceptor atom, score
      L1  H     8    22       P1  1330  0.31

> <Gold.PLP.Chemscore.Internal.Correction>
   9.000000E+99

