#       Name:                CT1002167954
#       Creating user name   hitesit
#       Creation time:       Sun Apr 16 02:21:48 2023


#       File generated by GOLD software.
#

@<TRIPOS>MOLECULE
CT1002167954|ligand_prepared|mol2|1|dock6
    29    30     1
SMALL
NO_CHARGES


@<TRIPOS>ATOM
      1 C1          15.0134   6.6242  15.8572 C.3            1 RES1               0.0000
      2 C2          14.0734   5.4084  15.9871 C.ar           1 RES1               0.0000
      3 C3          14.3379   7.5860  14.8841 C.2            1 RES1               0.0000
      4 C4          15.1854   7.1829  17.2654 C.2            1 RES1               0.0000
      5 C5          16.4158   6.2739  15.3077 C.3            1 RES1               0.0000
      6 C6          12.7238   5.5840  16.2775 C.ar           1 RES1               0.0000
      7 C7          14.5399   4.1076  15.8170 C.ar           1 RES1               0.0000
      8 N8          13.7728   8.7145  15.4009 N.am           1 RES1               0.0000
      9 O9          14.2676   7.3386  13.6865 O.2            1 RES1               0.0000
     10 N10         14.6855   8.4319  17.5262 N.am           1 RES1               0.0000
     11 O11         15.7345   6.5460  18.1560 O.2            1 RES1               0.0000
     12 C12         17.2913   7.4885  15.0421 C.3            1 RES1               0.0000
     13 C13         11.8707   4.4987  16.3907 C.ar           1 RES1               0.0000
     14 C14         13.6852   3.0237  15.9309 C.ar           1 RES1               0.0000
     15 C15         13.9599   9.2103  16.6661 C.2            1 RES1               0.0000
     16 C16         12.3506   3.2181  16.2171 C.ar           1 RES1               0.0000
     17 O17         13.4969  10.2998  16.9913 O.2            1 RES1               0.0000
     18 H18         16.9250   5.6225  16.0287 H              1 RES1               0.0000
     19 H19         16.2985   5.7121  14.3728 H              1 RES1               0.0000
     20 H20         12.3285   6.5842  16.4199 H              1 RES1               0.0000
     21 H21         15.5863   3.9307  15.5923 H              1 RES1               0.0000
     22 H22         13.1538   9.2381  14.7902 H              1 RES1               0.0000
     23 H23         14.8717   8.8170  18.4467 H              1 RES1               0.0000
     24 H24         18.2635   7.1866  14.6580 H              1 RES1               0.0000
     25 H25         16.8270   8.1460  14.3102 H              1 RES1               0.0000
     26 H26         17.4497   8.0570  15.9562 H              1 RES1               0.0000
     27 H27         10.8215   4.6570  16.6175 H              1 RES1               0.0000
     28 H28         14.0673   2.0175  15.7940 H              1 RES1               0.0000
     29 H29         11.6820   2.3681  16.3055 H              1 RES1               0.0000
@<TRIPOS>BOND
    1    1    2 1     
    2    1    3 1     
    3    1    4 1     
    4    1    5 1     
    5    2    6 ar    
    6    2    7 ar    
    7    3    8 1     
    8    3    9 2     
    9    4   10 1     
   10    4   11 2     
   11    5   12 1     
   12    5   18 1     
   13    5   19 1     
   14    6   13 ar    
   15    6   20 1     
   16    7   14 ar    
   17    7   21 1     
   18    8   15 1     
   19    8   22 1     
   20   10   15 1     
   21   10   23 1     
   22   12   24 1     
   23   12   25 1     
   24   12   26 1     
   25   13   16 ar    
   26   13   27 1     
   27   14   16 ar    
   28   14   28 1     
   29   15   17 2     
   30   16   29 1     
@<TRIPOS>SUBSTRUCTURE
      1 RES1           1
@<TRIPOS>SET
DONOR_HYDROGENS      STATIC     ATOMS    <user>   **** ""
2 22 23
ATOM$RED        STATIC     ATOMS    COLORGROUP SYSTEM
2 22 23
@<TRIPOS>COMMENT
> <Gold.Version>
2022.3.0

> <Gold.Id.Protein>
unknown|4i1b_cavity_clean|pdb

> <Gold.Protein.RotatedTorsions>
[ 1397 1388 1387 1385 ] final -177.63 input   60.01 | X-H torsion
[  952  941  940  939 ] final -171.44 input   60.01 | X-H torsion
[   48   47   46   43 ] final   21.96 input   60.02 | X-H torsion
[  987  978  977  976 ] final  -72.96 input   59.99 | X-H torsion
[ 1041 1036 1035 1033 ] final  -67.54 input   59.96 | X-H torsion
[  651  646  645  642 ] final   64.76 input   60.00 | X-H torsion
[  678  674  673  670 ] final   93.48 input   59.98 | X-H torsion
[ 2412 2406 2405 2402 ] final  -21.08 input   60.02 | X-H torsion
[ 2413 2407 2403 2402 ] final   60.02 input   60.02 | X-H torsion

> <Gold.Protein.ActiveResidues>
 SER5    ASN7    SER43   SER45   GLY61   LEU62   LYS63   GLU64   LYS65   ASN66  
 LEU67   TYR68   VAL85   ASP86   PRO87   TYR90   PRO91   SER153 

> <Gold.Protein.RotatedAtoms>
   17.6984   16.6227   14.2646 H   0  0  0  0  0  0  0  0  0  0  0  0  # atno 48   bound_to 47  
   15.3452   13.0705   11.9015 H   0  0  0  0  0  0  0  0  0  0  0  0  # atno 651  bound_to 646 
   18.1993   14.3957   11.8473 H   0  0  0  0  0  0  0  0  0  0  0  0  # atno 678  bound_to 674 
    4.4230   11.6995   12.3481 H   0  0  0  0  0  0  0  0  0  0  0  0  # atno 952  bound_to 941 
    5.5859   10.6355   11.8349 H   0  0  0  0  0  0  0  0  0  0  0  0  # atno 953  bound_to 941 
    4.8298   10.3987   13.2918 H   0  0  0  0  0  0  0  0  0  0  0  0  # atno 954  bound_to 941 
    9.1577    0.9113   10.0247 H   0  0  0  0  0  0  0  0  0  0  0  0  # atno 987  bound_to 978 
    9.4258    1.8660   11.3533 H   0  0  0  0  0  0  0  0  0  0  0  0  # atno 988  bound_to 978 
    7.8794    1.4364   10.9396 H   0  0  0  0  0  0  0  0  0  0  0  0  # atno 989  bound_to 978 
   19.5022   10.7520   12.6281 H   0  0  0  0  0  0  0  0  0  0  0  0  # atno 1041 bound_to 1036
   26.5111    6.7799   10.9635 H   0  0  0  0  0  0  0  0  0  0  0  0  # atno 1397 bound_to 1388
    6.7638   18.2662   16.4759 H   0  0  0  0  0  0  0  0  0  0  0  0  # atno 2412 bound_to 2406
    4.0820   14.8280   16.7990 H   0  0  0  0  0  0  0  0  0  0  0  0  # atno 2413 bound_to 2407
   26.0875    5.2084   10.9933 LP  0  0  0  0  0  0  0  0  0  0  0  0  # atno 2416 bound_to 1388
   26.9635    5.8439   12.2161 LP  0  0  0  0  0  0  0  0  0  0  0  0  # atno 2417 bound_to 1388
   16.8048   15.5388   13.4427 LP  0  0  0  0  0  0  0  0  0  0  0  0  # atno 2428 bound_to 47  
   16.9044   15.4525   15.0704 LP  0  0  0  0  0  0  0  0  0  0  0  0  # atno 2429 bound_to 47  
   18.5967    9.4982   13.1343 LP  0  0  0  0  0  0  0  0  0  0  0  0  # atno 2444 bound_to 1036
   17.9040   10.7336   12.3216 LP  0  0  0  0  0  0  0  0  0  0  0  0  # atno 2445 bound_to 1036
   14.2948   11.8935   11.5006 LP  0  0  0  0  0  0  0  0  0  0  0  0  # atno 2458 bound_to 646 
   14.3772   12.4280   13.0415 LP  0  0  0  0  0  0  0  0  0  0  0  0  # atno 2459 bound_to 646 
   17.8794   15.7549   12.6837 LP  0  0  0  0  0  0  0  0  0  0  0  0  # atno 2462 bound_to 674 
   18.9974   14.6990   13.2330 LP  0  0  0  0  0  0  0  0  0  0  0  0  # atno 2463 bound_to 674 
    8.1173   18.4173   15.5853 LP  0  0  0  0  0  0  0  0  0  0  0  0  # atno 2468 bound_to 2406
    8.0133   17.2545   16.7271 LP  0  0  0  0  0  0  0  0  0  0  0  0  # atno 2469 bound_to 2406
    4.2387   15.3444   18.2658 LP  0  0  0  0  0  0  0  0  0  0  0  0  # atno 2470 bound_to 2407

> <Gold.Score>
     Fitness  S(hb_ext) S(vdw_ext)  S(hb_int)    S(int)      intcor
     29.56       1.64      20.36       0.00      -0.08      -0.77

> <Gold.Goldscore.Fitness>
29.5581

> <Gold.Goldscore.Internal.Vdw>
-0.4168

> <Gold.Goldscore.Internal.Torsion>
-0.4284

> <Gold.Goldscore.External.Vdw>
20.3599

> <Gold.Goldscore.Internal.HBond>
0.0000

> <Gold.Goldscore.External.HBond>
1.6399

> <Gold.Goldscore.Internal.Correction>
-0.7686

> <Gold.Goldscore.Hbonds>
donor molecule, donor type, donor heavy atom, donor atom, acceptor molecule, acceptor atom, score
      L1  H     8    22       P1   936  0.82

> <Gold.Goldscore.Internal.Vdw.Weighted>
-0.4168

> <Gold.Goldscore.Internal.Torsion.Weighted>
-0.4284

> <Gold.Goldscore.External.Vdw.Weighted>
27.9948

> <Gold.Goldscore.Internal.HBond.Weighted>
0.0000

> <Gold.Goldscore.External.HBond.Weighted>
1.6399

> <Gold.Goldscore.Internal.Correction.Weighted>
-0.7686

> <Gold.Rescore>
     Score     S(PLP)   S(hbond)     S(cho)   S(metal)  DE(clash)   DE(tors)     intcor
     31.49     -29.00       0.96       0.00       0.00       0.00       0.20       ----

> <Gold.PLP.Fitness>
31.4882

> <Gold.PLP.PLP>
-29.0014

> <Gold.PLP.part.hbond>
-1.6596

> <Gold.PLP.part.metal>
0.0000

> <Gold.PLP.part.buried>
-3.4016

> <Gold.PLP.part.nonpolar>
-30.0113

> <Gold.PLP.part.repulsive>
5.6438

> <Gold.PLP.ligand.clash>
0.0000

> <Gold.PLP.ligand.torsion>
0.1966

> <Gold.PLP.Chemscore.Hbond>
0.9600

> <Gold.PLP.Chemscore.CHOScore>
0.0000

> <Gold.PLP.Chemscore.Metal>
0.0000

> <Gold.Chemscore.Hbonds>
donor molecule, donor type, donor heavy atom, donor atom, acceptor molecule, acceptor atom, score
      L1  H     8    22       P1   936  1.00

> <Gold.PLP.Chemscore.Internal.Correction>
   9.000000E+99

