#       Name:                CT1002167954
#       Creating user name   hitesit
#       Creation time:       Sun Apr 16 02:21:47 2023


#       File generated by GOLD software.
#

@<TRIPOS>MOLECULE
CT1002167954|ligand_prepared|mol2|1|dock5
    29    30     1
SMALL
NO_CHARGES


@<TRIPOS>ATOM
      1 C1          14.9738   7.5765  15.3660 C.3            1 RES1               0.0000
      2 C2          13.8743   6.8790  16.1927 C.ar           1 RES1               0.0000
      3 C3          14.2596   8.3052  14.2315 C.2            1 RES1               0.0000
      4 C4          15.7122   8.4984  16.3301 C.2            1 RES1               0.0000
      5 C5          16.0059   6.6026  14.7514 C.3            1 RES1               0.0000
      6 C6          13.3533   5.6536  15.7879 C.ar           1 RES1               0.0000
      7 C7          13.3737   7.4462  17.3615 C.ar           1 RES1               0.0000
      8 N8          14.1640   9.6631  14.3141 N.am           1 RES1               0.0000
      9 O9          13.7534   7.6942  13.2984 O.2            1 RES1               0.0000
     10 N10         15.6217   9.8499  16.1224 N.am           1 RES1               0.0000
     11 O11         16.3578   8.0674  17.2775 O.2            1 RES1               0.0000
     12 C12         17.2382   7.2914  14.1865 C.3            1 RES1               0.0000
     13 C13         12.3697   5.0169  16.5264 C.ar           1 RES1               0.0000
     14 C14         12.3899   6.8079  18.0985 C.ar           1 RES1               0.0000
     15 C15         14.8560  10.4751  15.1764 C.2            1 RES1               0.0000
     16 C16         11.8876   5.5933  17.6823 C.ar           1 RES1               0.0000
     17 O17         14.7837  11.6973  15.0866 O.2            1 RES1               0.0000
     18 H18         16.3223   5.8901  15.5232 H              1 RES1               0.0000
     19 H19         15.5204   6.0338  13.9488 H              1 RES1               0.0000
     20 H20         13.7185   5.1859  14.8796 H              1 RES1               0.0000
     21 H21         13.7533   8.4017  17.7075 H              1 RES1               0.0000
     22 H22         13.5182  10.1167  13.6758 H              1 RES1               0.0000
     23 H23         16.1766  10.4450  16.7292 H              1 RES1               0.0000
     24 H24         17.9295   6.5630  13.7679 H              1 RES1               0.0000
     25 H25         16.9629   7.9892  13.3984 H              1 RES1               0.0000
     26 H26         17.7601   7.8463  14.9635 H              1 RES1               0.0000
     27 H27         11.9767   4.0618  16.1938 H              1 RES1               0.0000
     28 H28         12.0130   7.2655  19.0072 H              1 RES1               0.0000
     29 H29         11.1173   5.0942  18.2608 H              1 RES1               0.0000
@<TRIPOS>BOND
    1    1    2 1     
    2    1    3 1     
    3    1    4 1     
    4    1    5 1     
    5    2    6 ar    
    6    2    7 ar    
    7    3    8 1     
    8    3    9 2     
    9    4   10 1     
   10    4   11 2     
   11    5   12 1     
   12    5   18 1     
   13    5   19 1     
   14    6   13 ar    
   15    6   20 1     
   16    7   14 ar    
   17    7   21 1     
   18    8   15 1     
   19    8   22 1     
   20   10   15 1     
   21   10   23 1     
   22   12   24 1     
   23   12   25 1     
   24   12   26 1     
   25   13   16 ar    
   26   13   27 1     
   27   14   16 ar    
   28   14   28 1     
   29   15   17 2     
   30   16   29 1     
@<TRIPOS>SUBSTRUCTURE
      1 RES1           1
@<TRIPOS>SET
DONOR_HYDROGENS      STATIC     ATOMS    <user>   **** ""
2 22 23
ATOM$RED        STATIC     ATOMS    COLORGROUP SYSTEM
2 22 23
@<TRIPOS>COMMENT
> <Gold.Version>
2022.3.0

> <Gold.Id.Protein>
unknown|4i1b_cavity_clean|pdb

> <Gold.Protein.RotatedTorsions>
[ 1397 1388 1387 1385 ] final  -14.02 input   60.01 | X-H torsion
[  952  941  940  939 ] final  157.24 input   60.01 | X-H torsion
[   48   47   46   43 ] final   69.92 input   60.02 | X-H torsion
[  987  978  977  976 ] final -178.68 input   59.99 | X-H torsion
[ 1041 1036 1035 1033 ] final   86.31 input   59.96 | X-H torsion
[  651  646  645  642 ] final   73.86 input   60.00 | X-H torsion
[  678  674  673  670 ] final   14.88 input   59.98 | X-H torsion
[ 2412 2406 2405 2402 ] final  101.72 input   60.02 | X-H torsion
[ 2413 2407 2403 2402 ] final   60.02 input   60.02 | X-H torsion

> <Gold.Protein.ActiveResidues>
 SER5    ASN7    SER43   SER45   GLY61   LEU62   LYS63   GLU64   LYS65   ASN66  
 LEU67   TYR68   VAL85   ASP86   PRO87   TYR90   PRO91   SER153 

> <Gold.Protein.RotatedAtoms>
   17.5550   16.3386   14.9562 H   0  0  0  0  0  0  0  0  0  0  0  0  # atno 48   bound_to 47  
   15.3443   13.1114   12.0443 H   0  0  0  0  0  0  0  0  0  0  0  0  # atno 651  bound_to 646 
   17.6993   15.4337   12.1307 H   0  0  0  0  0  0  0  0  0  0  0  0  # atno 678  bound_to 674 
    4.2725   11.5136   12.8059 H   0  0  0  0  0  0  0  0  0  0  0  0  # atno 952  bound_to 941 
    5.3706   11.0663   11.6475 H   0  0  0  0  0  0  0  0  0  0  0  0  # atno 953  bound_to 941 
    5.1959   10.1537   13.0212 H   0  0  0  0  0  0  0  0  0  0  0  0  # atno 954  bound_to 941 
    7.8698    1.3001   10.7449 H   0  0  0  0  0  0  0  0  0  0  0  0  # atno 987  bound_to 978 
    9.3676    0.9879   10.1065 H   0  0  0  0  0  0  0  0  0  0  0  0  # atno 988  bound_to 978 
    9.2248    1.9255   11.4657 H   0  0  0  0  0  0  0  0  0  0  0  0  # atno 989  bound_to 978 
   17.7477   10.2598   12.5461 H   0  0  0  0  0  0  0  0  0  0  0  0  # atno 1041 bound_to 1036
   26.6688    5.2492   11.9989 H   0  0  0  0  0  0  0  0  0  0  0  0  # atno 1397 bound_to 1388
    8.0473   17.2632   16.6967 H   0  0  0  0  0  0  0  0  0  0  0  0  # atno 2412 bound_to 2406
    4.0820   14.8280   16.7990 H   0  0  0  0  0  0  0  0  0  0  0  0  # atno 2413 bound_to 2407
   26.8643    6.8060   11.5654 LP  0  0  0  0  0  0  0  0  0  0  0  0  # atno 2416 bound_to 1388
   26.0279    5.7865   10.6023 LP  0  0  0  0  0  0  0  0  0  0  0  0  # atno 2417 bound_to 1388
   17.2577   16.1524   13.3669 LP  0  0  0  0  0  0  0  0  0  0  0  0  # atno 2428 bound_to 47  
   16.5959   15.1250   14.4500 LP  0  0  0  0  0  0  0  0  0  0  0  0  # atno 2429 bound_to 47  
   19.1426   11.0811   12.3795 LP  0  0  0  0  0  0  0  0  0  0  0  0  # atno 2444 bound_to 1036
   19.1247    9.6463   13.1590 LP  0  0  0  0  0  0  0  0  0  0  0  0  # atno 2445 bound_to 1036
   14.3886   11.9596   11.4046 LP  0  0  0  0  0  0  0  0  0  0  0  0  # atno 2458 bound_to 646 
   14.2845   12.3208   12.9937 LP  0  0  0  0  0  0  0  0  0  0  0  0  # atno 2459 bound_to 646 
   18.7165   15.2822   13.3922 LP  0  0  0  0  0  0  0  0  0  0  0  0  # atno 2462 bound_to 674 
   18.6636   14.1270   12.2392 LP  0  0  0  0  0  0  0  0  0  0  0  0  # atno 2463 bound_to 674 
    6.7566   18.2366   16.5110 LP  0  0  0  0  0  0  0  0  0  0  0  0  # atno 2468 bound_to 2406
    8.0812   18.4455   15.5791 LP  0  0  0  0  0  0  0  0  0  0  0  0  # atno 2469 bound_to 2406
    4.2387   15.3444   18.2658 LP  0  0  0  0  0  0  0  0  0  0  0  0  # atno 2470 bound_to 2407

> <Gold.Score>
     Fitness  S(hb_ext) S(vdw_ext)  S(hb_int)    S(int)      intcor
     29.18       0.04      21.80       0.00      -0.84      -0.77

> <Gold.Goldscore.Fitness>
29.1775

> <Gold.Goldscore.Internal.Vdw>
-1.0187

> <Gold.Goldscore.Internal.Torsion>
-0.5862

> <Gold.Goldscore.External.Vdw>
21.8021

> <Gold.Goldscore.Internal.HBond>
0.0000

> <Gold.Goldscore.External.HBond>
0.0358

> <Gold.Goldscore.Internal.Correction>
-0.7686

> <Gold.Goldscore.Hbonds>
donor molecule, donor type, donor heavy atom, donor atom, acceptor molecule, acceptor atom, score
      L1  H     8    22       P1   936  0.02

> <Gold.Goldscore.Internal.Vdw.Weighted>
-1.0187

> <Gold.Goldscore.Internal.Torsion.Weighted>
-0.5862

> <Gold.Goldscore.External.Vdw.Weighted>
29.9779

> <Gold.Goldscore.Internal.HBond.Weighted>
0.0000

> <Gold.Goldscore.External.HBond.Weighted>
0.0358

> <Gold.Goldscore.Internal.Correction.Weighted>
-0.7686

> <Gold.Rescore>
     Score     S(PLP)   S(hbond)     S(cho)   S(metal)  DE(clash)   DE(tors)     intcor
     31.97     -30.16       1.00       0.00       0.00       0.00       0.60       ----

> <Gold.PLP.Fitness>
31.9671

> <Gold.PLP.PLP>
-30.1633

> <Gold.PLP.part.hbond>
-1.5180

> <Gold.PLP.part.metal>
0.0000

> <Gold.PLP.part.buried>
-5.2762

> <Gold.PLP.part.nonpolar>
-28.5712

> <Gold.PLP.part.repulsive>
4.3680

> <Gold.PLP.ligand.clash>
0.0000

> <Gold.PLP.ligand.torsion>
0.5981

> <Gold.PLP.Chemscore.Hbond>
1.0000

> <Gold.PLP.Chemscore.CHOScore>
0.0000

> <Gold.PLP.Chemscore.Metal>
0.0000

> <Gold.Chemscore.Hbonds>
donor molecule, donor type, donor heavy atom, donor atom, acceptor molecule, acceptor atom, score
      L1  H     8    22       P1   936  0.48
      P1  H   970   990       L1     9  0.03

> <Gold.PLP.Chemscore.Internal.Correction>
   9.000000E+99

