#       Name:                CT1002167954
#       Creating user name   hitesit
#       Creation time:       Sun Apr 16 02:21:52 2023


#       File generated by GOLD software.
#

@<TRIPOS>MOLECULE
CT1002167954|ligand_prepared|mol2|1|dock10
    29    30     1
SMALL
NO_CHARGES


@<TRIPOS>ATOM
      1 C1          14.9259   7.1502  15.9880 C.3            1 RES1               0.0000
      2 C2          13.9248   5.9779  15.9383 C.ar           1 RES1               0.0000
      3 C3          16.2669   6.5884  15.5251 C.2            1 RES1               0.0000
      4 C4          14.3584   8.2346  15.0787 C.2            1 RES1               0.0000
      5 C5          15.1081   7.7568  17.3988 C.3            1 RES1               0.0000
      6 C6          14.1946   4.8477  15.1725 C.ar           1 RES1               0.0000
      7 C7          12.7308   6.0110  16.6537 C.ar           1 RES1               0.0000
      8 N8          16.6993   6.9320  14.2781 N.am           1 RES1               0.0000
      9 O9          16.9162   5.8238  16.2279 O.2            1 RES1               0.0000
     10 N10         15.0575   8.5514  13.9436 N.am           1 RES1               0.0000
     11 O11         13.3036   8.8059  15.3265 O.2            1 RES1               0.0000
     12 C12         16.2263   8.7837  17.4849 C.3            1 RES1               0.0000
     13 C13         13.3045   3.7876  15.1258 C.ar           1 RES1               0.0000
     14 C14         11.8418   4.9499  16.6054 C.ar           1 RES1               0.0000
     15 C15         16.1863   7.9278  13.4863 C.2            1 RES1               0.0000
     16 C16         12.1278   3.8378  15.8425 C.ar           1 RES1               0.0000
     17 O17         16.7274   8.2333  12.4275 O.2            1 RES1               0.0000
     18 H18         14.1676   8.2326  17.7028 H              1 RES1               0.0000
     19 H19         15.3181   6.9461  18.1073 H              1 RES1               0.0000
     20 H20         15.1144   4.7913  14.5999 H              1 RES1               0.0000
     21 H21         12.4844   6.8762  17.2598 H              1 RES1               0.0000
     22 H22         17.4759   6.3993  13.8993 H              1 RES1               0.0000
     23 H23         14.7037   9.3238  13.3880 H              1 RES1               0.0000
     24 H24         16.3113   9.1775  18.4955 H              1 RES1               0.0000
     25 H25         17.1810   8.3381  17.2134 H              1 RES1               0.0000
     26 H26         16.0374   9.6170  16.8113 H              1 RES1               0.0000
     27 H27         13.5336   2.9152  14.5228 H              1 RES1               0.0000
     28 H28         10.9167   4.9940  17.1706 H              1 RES1               0.0000
     29 H29         11.4309   3.0070  15.8061 H              1 RES1               0.0000
@<TRIPOS>BOND
    1    1    2 1     
    2    1    3 1     
    3    1    4 1     
    4    1    5 1     
    5    2    6 ar    
    6    2    7 ar    
    7    3    8 1     
    8    3    9 2     
    9    4   10 1     
   10    4   11 2     
   11    5   12 1     
   12    5   18 1     
   13    5   19 1     
   14    6   13 ar    
   15    6   20 1     
   16    7   14 ar    
   17    7   21 1     
   18    8   15 1     
   19    8   22 1     
   20   10   15 1     
   21   10   23 1     
   22   12   24 1     
   23   12   25 1     
   24   12   26 1     
   25   13   16 ar    
   26   13   27 1     
   27   14   16 ar    
   28   14   28 1     
   29   15   17 2     
   30   16   29 1     
@<TRIPOS>SUBSTRUCTURE
      1 RES1           1
@<TRIPOS>SET
DONOR_HYDROGENS      STATIC     ATOMS    <user>   **** ""
2 22 23
ATOM$RED        STATIC     ATOMS    COLORGROUP SYSTEM
2 22 23
@<TRIPOS>COMMENT
> <Gold.Version>
2022.3.0

> <Gold.Id.Protein>
unknown|4i1b_cavity_clean|pdb

> <Gold.Protein.RotatedTorsions>
[ 1397 1388 1387 1385 ] final -155.52 input   60.01 | X-H torsion
[  952  941  940  939 ] final   37.55 input   60.01 | X-H torsion
[   48   47   46   43 ] final  -78.62 input   60.02 | X-H torsion
[  987  978  977  976 ] final   -9.87 input   59.99 | X-H torsion
[ 1041 1036 1035 1033 ] final  111.59 input   59.96 | X-H torsion
[  651  646  645  642 ] final  159.67 input   60.00 | X-H torsion
[  678  674  673  670 ] final -175.51 input   59.98 | X-H torsion
[ 2412 2406 2405 2402 ] final -140.39 input   60.02 | X-H torsion
[ 2413 2407 2403 2402 ] final -119.98 input   60.02 | X-H torsion

> <Gold.Protein.ActiveResidues>
 SER5    ASN7    SER43   SER45   GLY61   LEU62   LYS63   GLU64   LYS65   ASN66  
 LEU67   TYR68   VAL85   ASP86   PRO87   TYR90   PRO91   SER153 

> <Gold.Protein.RotatedAtoms>
   16.9764   15.7851   13.3408 H   0  0  0  0  0  0  0  0  0  0  0  0  # atno 48   bound_to 47  
   14.6621   12.7202   13.0486 H   0  0  0  0  0  0  0  0  0  0  0  0  # atno 651  bound_to 646 
   19.0036   14.3537   12.9136 H   0  0  0  0  0  0  0  0  0  0  0  0  # atno 678  bound_to 674 
    5.1923   10.1554   13.0240 H   0  0  0  0  0  0  0  0  0  0  0  0  # atno 952  bound_to 941 
    4.2731   11.5169   12.8021 H   0  0  0  0  0  0  0  0  0  0  0  0  # atno 953  bound_to 941 
    5.3736   11.0618   11.6479 H   0  0  0  0  0  0  0  0  0  0  0  0  # atno 954  bound_to 941 
    9.7697    1.4021   10.6473 H   0  0  0  0  0  0  0  0  0  0  0  0  # atno 987  bound_to 978 
    8.4361    1.8843   11.5062 H   0  0  0  0  0  0  0  0  0  0  0  0  # atno 988  bound_to 978 
    8.2568    0.9277   10.1646 H   0  0  0  0  0  0  0  0  0  0  0  0  # atno 989  bound_to 978 
   17.8316    9.9150   12.7510 H   0  0  0  0  0  0  0  0  0  0  0  0  # atno 1041 bound_to 1036
   26.7008    6.8558   11.2590 H   0  0  0  0  0  0  0  0  0  0  0  0  # atno 1397 bound_to 1388
    8.1043   18.4197   15.5869 H   0  0  0  0  0  0  0  0  0  0  0  0  # atno 2412 bound_to 2406
    3.9547   16.2075   18.0592 H   0  0  0  0  0  0  0  0  0  0  0  0  # atno 2413 bound_to 2407
   26.0215    5.4671   10.7494 LP  0  0  0  0  0  0  0  0  0  0  0  0  # atno 2416 bound_to 1388
   26.8385    5.5088   12.1627 LP  0  0  0  0  0  0  0  0  0  0  0  0  # atno 2417 bound_to 1388
   16.7450   15.2677   14.8664 LP  0  0  0  0  0  0  0  0  0  0  0  0  # atno 2428 bound_to 47  
   17.6910   16.5668   14.5766 LP  0  0  0  0  0  0  0  0  0  0  0  0  # atno 2429 bound_to 47  
   18.7561   11.1605   12.2589 LP  0  0  0  0  0  0  0  0  0  0  0  0  # atno 2444 bound_to 1036
   19.4267    9.9140   13.0732 LP  0  0  0  0  0  0  0  0  0  0  0  0  # atno 2445 bound_to 1036
   15.2674   12.8845   11.5466 LP  0  0  0  0  0  0  0  0  0  0  0  0  # atno 2458 bound_to 646 
   14.0922   11.7896   11.8410 LP  0  0  0  0  0  0  0  0  0  0  0  0  # atno 2459 bound_to 646 
   17.9039   14.7562   11.7832 LP  0  0  0  0  0  0  0  0  0  0  0  0  # atno 2462 bound_to 674 
   18.1635   15.7400   13.0604 LP  0  0  0  0  0  0  0  0  0  0  0  0  # atno 2463 bound_to 674 
    8.0226   17.2556   16.7210 LP  0  0  0  0  0  0  0  0  0  0  0  0  # atno 2468 bound_to 2406
    6.7578   18.2617   16.4869 LP  0  0  0  0  0  0  0  0  0  0  0  0  # atno 2469 bound_to 2406
    3.5094   15.5577   16.7093 LP  0  0  0  0  0  0  0  0  0  0  0  0  # atno 2470 bound_to 2407

> <Gold.Score>
     Fitness  S(hb_ext) S(vdw_ext)  S(hb_int)    S(int)      intcor
     30.13       0.07      22.77       0.00      -1.25      -0.76

> <Gold.Goldscore.Fitness>
30.1300

> <Gold.Goldscore.Internal.Vdw>
-1.5489

> <Gold.Goldscore.Internal.Torsion>
-0.4648

> <Gold.Goldscore.External.Vdw>
22.7680

> <Gold.Goldscore.Internal.HBond>
0.0000

> <Gold.Goldscore.External.HBond>
0.0727

> <Gold.Goldscore.Internal.Correction>
-0.7650

> <Gold.Goldscore.Hbonds>
donor molecule, donor type, donor heavy atom, donor atom, acceptor molecule, acceptor atom, score
      P1  H  1036  1041       L1    17  0.04

> <Gold.Goldscore.Internal.Vdw.Weighted>
-1.5489

> <Gold.Goldscore.Internal.Torsion.Weighted>
-0.4648

> <Gold.Goldscore.External.Vdw.Weighted>
31.3060

> <Gold.Goldscore.Internal.HBond.Weighted>
0.0000

> <Gold.Goldscore.External.HBond.Weighted>
0.0727

> <Gold.Goldscore.Internal.Correction.Weighted>
-0.7650

> <Gold.Rescore>
     Score     S(PLP)   S(hbond)     S(cho)   S(metal)  DE(clash)   DE(tors)     intcor
     29.43     -28.91       1.00       0.00       0.00       0.62       0.93       ----

> <Gold.PLP.Fitness>
29.4270

> <Gold.PLP.PLP>
-28.9074

> <Gold.PLP.part.hbond>
-1.6051

> <Gold.PLP.part.metal>
0.0000

> <Gold.PLP.part.buried>
-5.7529

> <Gold.PLP.part.nonpolar>
-23.0394

> <Gold.PLP.part.repulsive>
0.8790

> <Gold.PLP.ligand.clash>
0.6229

> <Gold.PLP.ligand.torsion>
0.9288

> <Gold.PLP.Chemscore.Hbond>
1.0000

> <Gold.PLP.Chemscore.CHOScore>
0.0000

> <Gold.PLP.Chemscore.Metal>
0.0000

> <Gold.Chemscore.Hbonds>
donor molecule, donor type, donor heavy atom, donor atom, acceptor molecule, acceptor atom, score
      P1  H  1036  1041       L1    17  0.61

> <Gold.PLP.Chemscore.Internal.Correction>
   9.000000E+99

