#       Name:                CT1002167954
#       Creating user name   hitesit
#       Creation time:       Sun Apr 16 02:21:51 2023


#       File generated by GOLD software.
#

@<TRIPOS>MOLECULE
CT1002167954|ligand_prepared|mol2|1|dock9
    29    30     1
SMALL
NO_CHARGES


@<TRIPOS>ATOM
      1 C1          15.1249   8.9567  16.3587 C.3            1 RES1               0.0000
      2 C2          16.1508   8.0524  15.6455 C.ar           1 RES1               0.0000
      3 C3          15.9036  10.1621  16.8771 C.2            1 RES1               0.0000
      4 C4          14.0644   9.3014  15.3188 C.2            1 RES1               0.0000
      5 C5          14.4181   8.2772  17.5547 C.3            1 RES1               0.0000
      6 C6          17.0411   7.2747  16.3798 C.ar           1 RES1               0.0000
      7 C7          16.2170   7.9835  14.2564 C.ar           1 RES1               0.0000
      8 N8          15.7406  11.3481  16.2238 N.am           1 RES1               0.0000
      9 O9          16.6791  10.0644  17.8201 O.2            1 RES1               0.0000
     10 N10         13.9533  10.6089  14.9242 N.am           1 RES1               0.0000
     11 O11         13.3353   8.4498  14.8254 O.2            1 RES1               0.0000
     12 C12         14.0051   6.8386  17.2861 C.3            1 RES1               0.0000
     13 C13         17.9623   6.4555  15.7484 C.ar           1 RES1               0.0000
     14 C14         17.1392   7.1638  13.6271 C.ar           1 RES1               0.0000
     15 C15         14.7639  11.6428  15.3068 C.2            1 RES1               0.0000
     16 C16         18.0117   6.3991  14.3719 C.ar           1 RES1               0.0000
     17 O17         14.6353  12.7814  14.8663 O.2            1 RES1               0.0000
     18 H18         15.0921   8.2954  18.4199 H              1 RES1               0.0000
     19 H19         13.5245   8.8585  17.8135 H              1 RES1               0.0000
     20 H20         17.0187   7.3079  17.4640 H              1 RES1               0.0000
     21 H21         15.5411   8.5770  13.6502 H              1 RES1               0.0000
     22 H22         16.4065  12.0840  16.4368 H              1 RES1               0.0000
     23 H23         13.1961  10.8323  14.2861 H              1 RES1               0.0000
     24 H24         13.5140   6.4093  18.1569 H              1 RES1               0.0000
     25 H25         13.3144   6.7858  16.4471 H              1 RES1               0.0000
     26 H26         14.8727   6.2260  17.0500 H              1 RES1               0.0000
     27 H27         18.6477   5.8568  16.3391 H              1 RES1               0.0000
     28 H28         17.1749   7.1230  12.5434 H              1 RES1               0.0000
     29 H29         18.7332   5.7570  13.8775 H              1 RES1               0.0000
@<TRIPOS>BOND
    1    1    2 1     
    2    1    3 1     
    3    1    4 1     
    4    1    5 1     
    5    2    6 ar    
    6    2    7 ar    
    7    3    8 1     
    8    3    9 2     
    9    4   10 1     
   10    4   11 2     
   11    5   12 1     
   12    5   18 1     
   13    5   19 1     
   14    6   13 ar    
   15    6   20 1     
   16    7   14 ar    
   17    7   21 1     
   18    8   15 1     
   19    8   22 1     
   20   10   15 1     
   21   10   23 1     
   22   12   24 1     
   23   12   25 1     
   24   12   26 1     
   25   13   16 ar    
   26   13   27 1     
   27   14   16 ar    
   28   14   28 1     
   29   15   17 2     
   30   16   29 1     
@<TRIPOS>SUBSTRUCTURE
      1 RES1           1
@<TRIPOS>SET
DONOR_HYDROGENS      STATIC     ATOMS    <user>   **** ""
2 22 23
ATOM$RED        STATIC     ATOMS    COLORGROUP SYSTEM
2 22 23
@<TRIPOS>COMMENT
> <Gold.Version>
2022.3.0

> <Gold.Id.Protein>
unknown|4i1b_cavity_clean|pdb

> <Gold.Protein.RotatedTorsions>
[ 1397 1388 1387 1385 ] final  -48.03 input   60.01 | X-H torsion
[  952  941  940  939 ] final  174.38 input   60.01 | X-H torsion
[   48   47   46   43 ] final  160.94 input   60.02 | X-H torsion
[  987  978  977  976 ] final -125.95 input   59.99 | X-H torsion
[ 1041 1036 1035 1033 ] final  -20.62 input   59.96 | X-H torsion
[  651  646  645  642 ] final  162.61 input   60.00 | X-H torsion
[  678  674  673  670 ] final -111.83 input   59.98 | X-H torsion
[ 2412 2406 2405 2402 ] final  -88.79 input   60.02 | X-H torsion
[ 2413 2407 2403 2402 ] final -119.98 input   60.02 | X-H torsion

> <Gold.Protein.ActiveResidues>
 SER5    ASN7    SER43   SER45   GLY61   LEU62   LYS63   GLU64   LYS65   ASN66  
 LEU67   TYR68   VAL85   ASP86   PRO87   TYR90   PRO91   SER153 

> <Gold.Protein.RotatedAtoms>
   16.7489   15.2766   14.8681 H   0  0  0  0  0  0  0  0  0  0  0  0  # atno 48   bound_to 47  
   14.6276   12.6877   13.0561 H   0  0  0  0  0  0  0  0  0  0  0  0  # atno 651  bound_to 646 
   18.7787   15.1911   13.3876 H   0  0  0  0  0  0  0  0  0  0  0  0  # atno 678  bound_to 674 
    4.3321   11.6420   12.5584 H   0  0  0  0  0  0  0  0  0  0  0  0  # atno 952  bound_to 941 
    5.5089   10.8280   11.7215 H   0  0  0  0  0  0  0  0  0  0  0  0  # atno 953  bound_to 941 
    4.9979   10.2637   13.1949 H   0  0  0  0  0  0  0  0  0  0  0  0  # atno 954  bound_to 941 
    8.3104    0.9100   10.1314 H   0  0  0  0  0  0  0  0  0  0  0  0  # atno 987  bound_to 978 
    9.7746    1.4401   10.7003 H   0  0  0  0  0  0  0  0  0  0  0  0  # atno 988  bound_to 978 
    8.3777    1.8633   11.4855 H   0  0  0  0  0  0  0  0  0  0  0  0  # atno 989  bound_to 978 
   18.9482   11.1351   12.3083 H   0  0  0  0  0  0  0  0  0  0  0  0  # atno 1041 bound_to 1036
   26.9117    5.6957   12.2040 H   0  0  0  0  0  0  0  0  0  0  0  0  # atno 1397 bound_to 1388
    7.3559   18.7047   15.7376 H   0  0  0  0  0  0  0  0  0  0  0  0  # atno 2412 bound_to 2406
    3.9547   16.2075   18.0592 H   0  0  0  0  0  0  0  0  0  0  0  0  # atno 2413 bound_to 2407
   26.5977    6.8340   11.0834 LP  0  0  0  0  0  0  0  0  0  0  0  0  # atno 2416 bound_to 1388
   26.0502    5.3093   10.8779 LP  0  0  0  0  0  0  0  0  0  0  0  0  # atno 2417 bound_to 1388
   17.6920   16.5691   14.5698 LP  0  0  0  0  0  0  0  0  0  0  0  0  # atno 2428 bound_to 47  
   16.9730   15.7773   13.3358 LP  0  0  0  0  0  0  0  0  0  0  0  0  # atno 2429 bound_to 47  
   19.2960    9.7712   13.1251 LP  0  0  0  0  0  0  0  0  0  0  0  0  # atno 2444 bound_to 1036
   17.7626   10.0749   12.6528 LP  0  0  0  0  0  0  0  0  0  0  0  0  # atno 2445 bound_to 1036
   15.2835   12.9115   11.5834 LP  0  0  0  0  0  0  0  0  0  0  0  0  # atno 2458 bound_to 646 
   14.1108   11.7953   11.7967 LP  0  0  0  0  0  0  0  0  0  0  0  0  # atno 2459 bound_to 646 
   18.5925   14.1430   12.1563 LP  0  0  0  0  0  0  0  0  0  0  0  0  # atno 2462 bound_to 674 
   17.7013   15.5103   12.2101 LP  0  0  0  0  0  0  0  0  0  0  0  0  # atno 2463 bound_to 674 
    8.4849   17.6038   16.1391 LP  0  0  0  0  0  0  0  0  0  0  0  0  # atno 2468 bound_to 2406
    7.0493   17.6263   16.9170 LP  0  0  0  0  0  0  0  0  0  0  0  0  # atno 2469 bound_to 2406
    3.5094   15.5577   16.7093 LP  0  0  0  0  0  0  0  0  0  0  0  0  # atno 2470 bound_to 2407

> <Gold.Score>
     Fitness  S(hb_ext) S(vdw_ext)  S(hb_int)    S(int)      intcor
     25.92       1.32      20.08       0.00      -3.02      -0.76

> <Gold.Goldscore.Fitness>
25.9181

> <Gold.Goldscore.Internal.Vdw>
-2.9543

> <Gold.Goldscore.Internal.Torsion>
-0.8279

> <Gold.Goldscore.External.Vdw>
20.0818

> <Gold.Goldscore.Internal.HBond>
0.0000

> <Gold.Goldscore.External.HBond>
1.3228

> <Gold.Goldscore.Internal.Correction>
-0.7650

> <Gold.Goldscore.Hbonds>
donor molecule, donor type, donor heavy atom, donor atom, acceptor molecule, acceptor atom, score
      P1  H   646   651       L1    17  0.57
      L1  H    10    23       P1   936  0.09

> <Gold.Goldscore.Internal.Vdw.Weighted>
-2.9543

> <Gold.Goldscore.Internal.Torsion.Weighted>
-0.8279

> <Gold.Goldscore.External.Vdw.Weighted>
27.6125

> <Gold.Goldscore.Internal.HBond.Weighted>
0.0000

> <Gold.Goldscore.External.HBond.Weighted>
1.3228

> <Gold.Goldscore.Internal.Correction.Weighted>
-0.7650

> <Gold.Rescore>
     Score     S(PLP)   S(hbond)     S(cho)   S(metal)  DE(clash)   DE(tors)     intcor
     31.28     -29.51       1.44       0.00       0.00       0.00       1.28       ----

> <Gold.PLP.Fitness>
31.2792

> <Gold.PLP.PLP>
-29.5068

> <Gold.PLP.part.hbond>
-2.6594

> <Gold.PLP.part.metal>
0.0000

> <Gold.PLP.part.buried>
-0.6764

> <Gold.PLP.part.nonpolar>
-32.2718

> <Gold.PLP.part.repulsive>
4.7761

> <Gold.PLP.ligand.clash>
0.0000

> <Gold.PLP.ligand.torsion>
1.2799

> <Gold.PLP.Chemscore.Hbond>
1.4441

> <Gold.PLP.Chemscore.CHOScore>
0.0000

> <Gold.PLP.Chemscore.Metal>
0.0000

> <Gold.Chemscore.Hbonds>
donor molecule, donor type, donor heavy atom, donor atom, acceptor molecule, acceptor atom, score
      L1  H    10    23       P1   936  0.64
      P1  H   646   651       L1    17  1.00

> <Gold.PLP.Chemscore.Internal.Correction>
   9.000000E+99

