#       Name:                CT1002167954
#       Creating user name   hitesit
#       Creation time:       Sun Apr 16 02:21:45 2023


#       File generated by GOLD software.
#

@<TRIPOS>MOLECULE
CT1002167954|ligand_prepared|mol2|1|dock3
    29    30     1
SMALL
NO_CHARGES


@<TRIPOS>ATOM
      1 C1          15.3643   7.6476  15.6551 C.3            1 RES1               0.0000
      2 C2          15.1925   8.3533  14.2945 C.ar           1 RES1               0.0000
      3 C3          14.0995   6.8222  15.8723 C.2            1 RES1               0.0000
      4 C4          16.6383   6.8170  15.5469 C.2            1 RES1               0.0000
      5 C5          15.5274   8.6195  16.8469 C.3            1 RES1               0.0000
      6 C6          15.8951   7.9160  13.1756 C.ar           1 RES1               0.0000
      7 C7          14.3346   9.4394  14.1423 C.ar           1 RES1               0.0000
      8 N8          14.1951   5.4695  15.7273 N.am           1 RES1               0.0000
      9 O9          13.0259   7.3534  16.1281 O.2            1 RES1               0.0000
     10 N10         16.5217   5.4526  15.5998 N.am           1 RES1               0.0000
     11 O11         17.7403   7.3311  15.3996 O.2            1 RES1               0.0000
     12 C12         15.9162   7.9347  18.1477 C.3            1 RES1               0.0000
     13 C13         15.7434   8.5398  11.9484 C.ar           1 RES1               0.0000
     14 C14         14.1845  10.0619  12.9141 C.ar           1 RES1               0.0000
     15 C15         15.3547   4.7404  15.6542 C.2            1 RES1               0.0000
     16 C16         14.8878   9.6127  11.8166 C.ar           1 RES1               0.0000
     17 O17         15.3283   3.5130  15.6436 O.2            1 RES1               0.0000
     18 H18         16.2954   9.3612  16.5951 H              1 RES1               0.0000
     19 H19         14.5816   9.1542  16.9984 H              1 RES1               0.0000
     20 H20         16.5748   7.0747  13.2606 H              1 RES1               0.0000
     21 H21         13.7720   9.8105  14.9922 H              1 RES1               0.0000
     22 H22         13.3238   4.9522  15.6676 H              1 RES1               0.0000
     23 H23         17.3849   4.9185  15.5986 H              1 RES1               0.0000
     24 H24         16.0174   8.6615  18.9509 H              1 RES1               0.0000
     25 H25         15.1617   7.2078  18.4414 H              1 RES1               0.0000
     26 H26         16.8653   7.4136  18.0405 H              1 RES1               0.0000
     27 H27         16.3001   8.1833  11.0880 H              1 RES1               0.0000
     28 H28         13.5105  10.9064  12.8152 H              1 RES1               0.0000
     29 H29         14.7688  10.1010  10.8551 H              1 RES1               0.0000
@<TRIPOS>BOND
    1    1    2 1     
    2    1    3 1     
    3    1    4 1     
    4    1    5 1     
    5    2    6 ar    
    6    2    7 ar    
    7    3    8 1     
    8    3    9 2     
    9    4   10 1     
   10    4   11 2     
   11    5   12 1     
   12    5   18 1     
   13    5   19 1     
   14    6   13 ar    
   15    6   20 1     
   16    7   14 ar    
   17    7   21 1     
   18    8   15 1     
   19    8   22 1     
   20   10   15 1     
   21   10   23 1     
   22   12   24 1     
   23   12   25 1     
   24   12   26 1     
   25   13   16 ar    
   26   13   27 1     
   27   14   16 ar    
   28   14   28 1     
   29   15   17 2     
   30   16   29 1     
@<TRIPOS>SUBSTRUCTURE
      1 RES1           1
@<TRIPOS>SET
DONOR_HYDROGENS      STATIC     ATOMS    <user>   **** ""
2 22 23
ATOM$RED        STATIC     ATOMS    COLORGROUP SYSTEM
2 22 23
@<TRIPOS>COMMENT
> <Gold.Version>
2022.3.0

> <Gold.Id.Protein>
unknown|4i1b_cavity_clean|pdb

> <Gold.Protein.RotatedTorsions>
[ 1397 1388 1387 1385 ] final   65.49 input   60.01 | X-H torsion
[  952  941  940  939 ] final   89.26 input   60.01 | X-H torsion
[   48   47   46   43 ] final  -88.04 input   60.02 | X-H torsion
[  987  978  977  976 ] final  107.74 input   59.99 | X-H torsion
[ 1041 1036 1035 1033 ] final  161.08 input   59.96 | X-H torsion
[  651  646  645  642 ] final   85.66 input   60.00 | X-H torsion
[  678  674  673  670 ] final  -60.35 input   59.98 | X-H torsion
[ 2412 2406 2405 2402 ] final  102.64 input   60.02 | X-H torsion
[ 2413 2407 2403 2402 ] final   60.02 input   60.02 | X-H torsion

> <Gold.Protein.ActiveResidues>
 SER5    ASN7    SER43   SER45   GLY61   LEU62   LYS63   GLU64   LYS65   ASN66  
 LEU67   TYR68   VAL85   ASP86   PRO87   TYR90   PRO91   SER153 

> <Gold.Protein.RotatedAtoms>
   16.8898   15.6644   13.3803 H   0  0  0  0  0  0  0  0  0  0  0  0  # atno 48   bound_to 47  
   15.3178   13.1402   12.2329 H   0  0  0  0  0  0  0  0  0  0  0  0  # atno 651  bound_to 646 
   18.2206   15.7136   13.1092 H   0  0  0  0  0  0  0  0  0  0  0  0  # atno 678  bound_to 674 
    4.6002   10.6489   13.3441 H   0  0  0  0  0  0  0  0  0  0  0  0  # atno 952  bound_to 941 
    4.6111   11.6975   12.0603 H   0  0  0  0  0  0  0  0  0  0  0  0  # atno 953  bound_to 941 
    5.6278   10.3873   12.0698 H   0  0  0  0  0  0  0  0  0  0  0  0  # atno 954  bound_to 941 
    8.4730    1.8950   11.5173 H   0  0  0  0  0  0  0  0  0  0  0  0  # atno 987  bound_to 978 
    8.2247    0.9402   10.1849 H   0  0  0  0  0  0  0  0  0  0  0  0  # atno 988  bound_to 978 
    9.7641    1.3785   10.6154 H   0  0  0  0  0  0  0  0  0  0  0  0  # atno 989  bound_to 978 
   18.4176    9.5164   13.0857 H   0  0  0  0  0  0  0  0  0  0  0  0  # atno 1041 bound_to 1036
   26.0746    5.2440   10.9584 H   0  0  0  0  0  0  0  0  0  0  0  0  # atno 1397 bound_to 1388
    8.0594   17.2652   16.6881 H   0  0  0  0  0  0  0  0  0  0  0  0  # atno 2412 bound_to 2406
    4.0820   14.8280   16.7990 H   0  0  0  0  0  0  0  0  0  0  0  0  # atno 2413 bound_to 2407
   26.9494    5.7944   12.2160 LP  0  0  0  0  0  0  0  0  0  0  0  0  # atno 2416 bound_to 1388
   26.5407    6.8032   10.9987 LP  0  0  0  0  0  0  0  0  0  0  0  0  # atno 2417 bound_to 1388
   16.8177   15.3498   14.9756 LP  0  0  0  0  0  0  0  0  0  0  0  0  # atno 2428 bound_to 47  
   17.7055   16.6061   14.4276 LP  0  0  0  0  0  0  0  0  0  0  0  0  # atno 2429 bound_to 47  
   18.0229   10.8690   12.2715 LP  0  0  0  0  0  0  0  0  0  0  0  0  # atno 2444 bound_to 1036
   19.5699   10.6069   12.7237 LP  0  0  0  0  0  0  0  0  0  0  0  0  # atno 2445 bound_to 1036
   14.5205   12.0639   11.3082 LP  0  0  0  0  0  0  0  0  0  0  0  0  # atno 2458 bound_to 646 
   14.1792   12.1876   12.9003 LP  0  0  0  0  0  0  0  0  0  0  0  0  # atno 2459 bound_to 646 
   18.9910   14.3028   12.8536 LP  0  0  0  0  0  0  0  0  0  0  0  0  # atno 2462 bound_to 674 
   17.8644   14.8247   11.7930 LP  0  0  0  0  0  0  0  0  0  0  0  0  # atno 2463 bound_to 674 
    6.7564   18.2256   16.5213 LP  0  0  0  0  0  0  0  0  0  0  0  0  # atno 2468 bound_to 2406
    8.0692   18.4544   15.5774 LP  0  0  0  0  0  0  0  0  0  0  0  0  # atno 2469 bound_to 2406
    4.2387   15.3444   18.2658 LP  0  0  0  0  0  0  0  0  0  0  0  0  # atno 2470 bound_to 2407

> <Gold.Score>
     Fitness  S(hb_ext) S(vdw_ext)  S(hb_int)    S(int)      intcor
     32.92       0.18      25.06       0.00      -1.72      -0.77

> <Gold.Goldscore.Fitness>
32.9186

> <Gold.Goldscore.Internal.Vdw>
-1.9903

> <Gold.Goldscore.Internal.Torsion>
-0.4986

> <Gold.Goldscore.External.Vdw>
25.0625

> <Gold.Goldscore.Internal.HBond>
0.0000

> <Gold.Goldscore.External.HBond>
0.1779

> <Gold.Goldscore.Internal.Correction>
-0.7686

> <Gold.Goldscore.Hbonds>
donor molecule, donor type, donor heavy atom, donor atom, acceptor molecule, acceptor atom, score
      P1  H  1036  1041       L1    11  0.09

> <Gold.Goldscore.Internal.Vdw.Weighted>
-1.9903

> <Gold.Goldscore.Internal.Torsion.Weighted>
-0.4986

> <Gold.Goldscore.External.Vdw.Weighted>
34.4610

> <Gold.Goldscore.Internal.HBond.Weighted>
0.0000

> <Gold.Goldscore.External.HBond.Weighted>
0.1779

> <Gold.Goldscore.Internal.Correction.Weighted>
-0.7686

> <Gold.Rescore>
     Score     S(PLP)   S(hbond)     S(cho)   S(metal)  DE(clash)   DE(tors)     intcor
     22.48     -24.85       0.00       0.00       0.00       1.45       0.47       ----

> <Gold.PLP.Fitness>
22.4766

> <Gold.PLP.PLP>
-24.8531

> <Gold.PLP.part.hbond>
0.0000

> <Gold.PLP.part.metal>
0.0000

> <Gold.PLP.part.buried>
-4.4218

> <Gold.PLP.part.nonpolar>
-21.3362

> <Gold.PLP.part.repulsive>
0.6636

> <Gold.PLP.ligand.clash>
1.4456

> <Gold.PLP.ligand.torsion>
0.4654

> <Gold.PLP.Chemscore.Hbond>
0.0000

> <Gold.PLP.Chemscore.CHOScore>
0.0000

> <Gold.PLP.Chemscore.Metal>
0.0000

> <Gold.PLP.Chemscore.Internal.Correction>
   9.000000E+99

