@<TRIPOS>MOLECULE
A:SKE351
    39    41     1     0     1
SMALL
NO_CHARGES
****
Generated from the CSD

@<TRIPOS>ATOM
     1 C1     -32.1560   9.8830   3.7540   C.2       1 SKE351   0.0000
     2 N1     -32.7050   9.9840   2.5270   N.pl3     1 SKE351   0.0000
     3 O1     -29.5200  10.0720  13.1440   O.2       1 SKE351   0.0000
     4 C2     -31.9350   9.7100   5.8650   C.2       1 SKE351   0.0000
     5 N2     -32.8470   9.7610   4.8840   N.2       1 SKE351   0.0000
     6 O2     -27.9410  11.4000  11.7950   O.2       1 SKE351   0.0000
     7 C3     -31.4040   9.6890   8.2320   C.ar      1 SKE351   0.0000
     8 N3     -32.2440   9.5780   7.1800   N.pl3     1 SKE351   0.0000
     9 O3     -29.9410  10.0090   1.9880   O.2       1 SKE351   0.0000
    10 C4     -30.0060   9.7340   8.1000   C.ar      1 SKE351   0.0000
    11 N4     -27.6010   8.8890  11.9620   N.pl3     1 SKE351   0.0000
    12 C5     -29.1850   9.8560   9.2300   C.ar      1 SKE351   0.0000
    13 N5     -30.7180   9.7660   5.3140   N.2       1 SKE351   0.0000
    14 C6     -29.7490   9.9280  10.5000   C.ar      1 SKE351   0.0000
    15 N6     -30.8520   9.9000   4.0690   N.am      1 SKE351   0.0000
    16 C7     -31.1380   9.8940  10.6410   C.ar      1 SKE351   0.0000
    17 C8     -31.9640   9.7690   9.5190   C.ar      1 SKE351   0.0000
    18 C9     -29.8050   9.9720   3.2190   C.2       1 SKE351   0.0000
    19 C10    -28.4260   9.7910   3.8830   C.ar      1 SKE351   0.0000
    20 C11    -27.9940  10.7000   4.8540   C.ar      1 SKE351   0.0000
    21 C12    -26.7610  10.5130   5.4890   C.ar      1 SKE351   0.0000
    22 C13    -25.9770   9.4020   5.1640   C.ar      1 SKE351   0.0000
    23 C14    -26.4190   8.4880   4.2010   C.ar      1 SKE351   0.0000
    24 C15    -27.6450   8.6810   3.5630   C.ar      1 SKE351   0.0000
    25 F1     -28.7600  11.7680   5.1630   F         1 SKE351   0.0000
    26 F2     -28.0770   7.7870   2.6430   F         1 SKE351   0.0000
    27 S      -28.6830  10.0970  11.9220   S.o2      1 SKE351   0.0000
    28 H1     -33.0453   9.7335   9.6430   H         1 SKE351   0.0000
    29 H2     -29.5556   9.6735   7.1103   H         1 SKE351   0.0000
    30 H3     -33.2141   9.3731   7.3970   H         1 SKE351   0.0000
    31 H4     -25.8051   7.6245   3.9490   H         1 SKE351   0.0000
    32 H5     -32.1092  10.0745   1.7103   H         1 SKE351   0.0000
    33 H6     -33.7142   9.9695   2.4198   H         1 SKE351   0.0000
    34 H7     -25.0205   9.2476   5.6612   H         1 SKE351   0.0000
    35 H8     -28.1029   9.8945   9.1134   H         1 SKE351   0.0000
    36 H9     -26.4140  11.2291   6.2324   H         1 SKE351   0.0000
    37 H10    -31.5819   9.9654  11.6329   H         1 SKE351   0.0000
    38 H11    -26.9483   8.7667  11.1944   H         1 SKE351   0.0000
    39 H12    -27.5767   8.2555  12.7547   H         1 SKE351   0.0000
@<TRIPOS>BOND
     1     1     2    1
     2     1     5    2
     3     4     5    1
     4     4     8    1
     5     7     8    1
     6     7    10   ar
     7    10    12   ar
     8     4    13    2
     9    12    14   ar
    10     1    15    1
    11    13    15    1
    12    14    16   ar
    13     7    17   ar
    14    16    17   ar
    15     9    18    2
    16    15    18   am
    17    18    19    1
    18    19    20   ar
    19    20    21   ar
    20    21    22   ar
    21    22    23   ar
    22    19    24   ar
    23    23    24   ar
    24    20    25    1
    25    24    26    1
    26     3    27    2
    27     6    27    2
    28    11    27    1
    29    14    27    1
    30    17    28    1
    31    10    29    1
    32     8    30    1
    33    23    31    1
    34     2    32    1
    35     2    33    1
    36    22    34    1
    37    12    35    1
    38    21    36    1
    39    16    37    1
    40    11    38    1
    41    11    39    1
@<TRIPOS>SUBSTRUCTURE
     1 SKE351      1 GROUP             0 A     SKE     0  
@<TRIPOS>SET
CCDC_LIGAND STATIC ATOMS
39 1 2 3 4 5 6 7 8 9 \
10 11 12 13 14 15 16 17 18 19 \
20 21 22 23 24 25 26 27 28 29 \
30 31 32 33 34 35 36 37 38 39 
