#       Name:                CT1002167954
#       Creating user name   hitesit
#       Creation time:       Sun Apr 16 02:36:48 2023


#       File generated by GOLD software.
#

@<TRIPOS>MOLECULE
CT1002167954|ligand_prepared|mol2|1|dock8
    29    30     1
SMALL
NO_CHARGES


@<TRIPOS>ATOM
      1 C1         253.7750 391.0565 -101.6858 C.3            1 RES1               0.0000
      2 C2         253.4871 390.7846 -100.1952 C.ar           1 RES1               0.0000
      3 C3         254.2220 392.5126 -101.7771 C.2            1 RES1               0.0000
      4 C4         254.8416 390.0508 -102.1046 C.2            1 RES1               0.0000
      5 C5         252.5469 390.8612 -102.6051 C.3            1 RES1               0.0000
      6 C6         252.3382 390.1009 -99.8086 C.ar           1 RES1               0.0000
      7 C7         254.3607 391.2081 -99.1971 C.ar           1 RES1               0.0000
      8 N8         255.5462 392.7544 -101.9963 N.am           1 RES1               0.0000
      9 O9         253.4314 393.4348 -101.6197 O.2            1 RES1               0.0000
     10 N10        256.0744 390.5327 -102.4594 N.am           1 RES1               0.0000
     11 O11        254.6308 388.8443 -102.1147 O.2            1 RES1               0.0000
     12 C12        252.7701 391.3300 -104.0343 C.3            1 RES1               0.0000
     13 C13        252.0737 389.8471 -98.4730 C.ar           1 RES1               0.0000
     14 C14        254.0941 390.9535 -97.8620 C.ar           1 RES1               0.0000
     15 C15        256.4844 391.8365 -102.3947 C.2            1 RES1               0.0000
     16 C16        252.9515 390.2728 -97.4989 C.ar           1 RES1               0.0000
     17 O17        257.6267 392.1850 -102.6789 O.2            1 RES1               0.0000
     18 H18        252.2827 389.7966 -102.6199 H              1 RES1               0.0000
     19 H19        251.6977 391.4116 -102.1816 H              1 RES1               0.0000
     20 H20        251.6346 389.7603 -100.5609 H              1 RES1               0.0000
     21 H21        255.2652 391.7463 -99.4594 H              1 RES1               0.0000
     22 H22        255.8686 393.7058 -101.8503 H              1 RES1               0.0000
     23 H23        256.7489 389.8568 -102.8038 H              1 RES1               0.0000
     24 H24        251.8781 391.1703 -104.6364 H              1 RES1               0.0000
     25 H25        253.0103 392.3909 -104.0592 H              1 RES1               0.0000
     26 H26        253.5918 390.7855 -104.4949 H              1 RES1               0.0000
     27 H27        251.1724 389.3122 -98.1923 H              1 RES1               0.0000
     28 H28        254.7875 391.2909 -97.0987 H              1 RES1               0.0000
     29 H29        252.7443 390.0735 -96.4527 H              1 RES1               0.0000
@<TRIPOS>BOND
    1    1    2 1     
    2    1    3 1     
    3    1    4 1     
    4    1    5 1     
    5    2    6 ar    
    6    2    7 ar    
    7    3    8 1     
    8    3    9 2     
    9    4   10 1     
   10    4   11 2     
   11    5   12 1     
   12    5   18 1     
   13    5   19 1     
   14    6   13 ar    
   15    6   20 1     
   16    7   14 ar    
   17    7   21 1     
   18    8   15 1     
   19    8   22 1     
   20   10   15 1     
   21   10   23 1     
   22   12   24 1     
   23   12   25 1     
   24   12   26 1     
   25   13   16 ar    
   26   13   27 1     
   27   14   16 ar    
   28   14   28 1     
   29   15   17 2     
   30   16   29 1     
@<TRIPOS>SUBSTRUCTURE
      1 RES1           1
@<TRIPOS>SET
DONOR_HYDROGENS      STATIC     ATOMS    <user>   **** ""
2 22 23
ATOM$RED        STATIC     ATOMS    COLORGROUP SYSTEM
2 22 23
@<TRIPOS>COMMENT
> <Gold.Version>
2022.3.0

> <Gold.Id.Protein>
unknown|7ts3_clean|pdb

> <Gold.Protein.RotatedTorsions>
[ 1244 1203 1204 1205 ] final   35.94 input  115.91 | X-H torsion
[ 1316 1285 1286 1287 ] final  -12.51 input  116.80 | X-H torsion
[ 1474 1426 1427 1428 ] final   34.84 input   84.58 | X-H torsion
[ 1484 1434 1433 1432 ] final  -43.57 input   60.01 | X-H torsion
[ 1526 1505 1506 1507 ] final  -43.95 input   90.12 | X-H torsion
[ 3997 3964 3965 3966 ] final   -4.02 input  106.83 | X-H torsion
[ 4216 4196 4195 4192 ] final  -86.78 input   60.00 | X-H torsion
[ 6608 6572 6571 6569 ] final  -98.95 input   60.00 | X-H torsion
[ 25713 25680 25681 25682 ] final -102.51 input   66.88 | X-H torsion
[ 4080 4041 4042 4043 ] final  -34.41 input  118.05 | X-H torsion
[ 4256 4235 4236 4237 ] final   16.31 input  121.49 | X-H torsion
[ 23722 23672 23673 23674 ] final -142.85 input   67.42 | X-H torsion
[ 23760 23747 23748 23749 ] final  119.21 input  -89.77 | X-H torsion
[ 4260 4240 4239 4236 ] final  -13.40 input   60.02 | X-H torsion
[ 1178 1150 1148 1145 ] final  -81.69 input   60.00 | X-H torsion
[ 25482 25446 25445 25443 ] final  -93.48 input   60.01 | X-H torsion
[ 4422 4372 4371 4370 ] final  125.45 input   59.99 | X-H torsion
[ 23788 23775 23776 23777 ] final   20.43 input  -27.92 | X-H torsion
[ 27271 1147 1146 1145 ] final -114.08 input   -0.00 | X-H torsion
[ 27274 1206 1205 1204 ] final   65.44 input    0.00 | X-H torsion
[ 27278 1429 1428 1427 ] final    5.66 input    0.00 | X-H torsion
[ 27284 3967 3966 3965 ] final  -27.06 input    0.00 | X-H torsion
[ 27291 23675 23674 23673 ] final  143.92 input    0.00 | X-H torsion
[ 27294 25683 25682 25681 ] final   33.98 input    0.00 | X-H torsion
[ 27296 1350 1349 1348 ] final  160.47 input    0.00 | X-H torsion
[ 27298 3703 3702 3701 ] final    0.44 input   -0.00 | X-H torsion
[ 27304 6798 6797 6796 ] final   81.39 input    0.00 | X-H torsion
[ 27307 23613 23612 23611 ] final  115.29 input   -0.00 | X-H torsion
[ 27311 23778 23777 23776 ] final  174.64 input   -0.00 | X-H torsion
[ 27313 4194 4193 4192 ] final   64.64 input    0.00 | X-H torsion

> <Gold.Protein.ActiveResidues>
 THR320  LEU321  HIS322  LEU323  LYS324  SER325  THR326  GLU365  PHE366  GLN369 
 TYR370  SER372  SER373  LYS375  TYR408  HIS412  ARG415  ASN416  TRP426  GLU670 
 CYS673  ARG674  GLY675  GLY676  TYR703  LEU705  THR706  PRO707 

> <Gold.Protein.RotatedAtoms>
  256.4207  379.9957 -103.3415 H   0  0  0  0  0  0  0  0  0  0  0  0  # atno 1178 bound_to 1150
  252.5315  380.1109 -102.1721 H   0  0  0  0  0  0  0  0  0  0  0  0  # atno 1244 bound_to 1203
  251.2531  381.1510 -100.4462 H   0  0  0  0  0  0  0  0  0  0  0  0  # atno 1316 bound_to 1285
  250.0473  382.6897  -98.0428 H   0  0  0  0  0  0  0  0  0  0  0  0  # atno 1474 bound_to 1426
  255.8417  384.6263  -98.7592 H   0  0  0  0  0  0  0  0  0  0  0  0  # atno 1484 bound_to 1434
  254.7289  383.3994  -98.7256 H   0  0  0  0  0  0  0  0  0  0  0  0  # atno 1485 bound_to 1434
  255.5018  383.7780 -100.1416 H   0  0  0  0  0  0  0  0  0  0  0  0  # atno 1486 bound_to 1434
  248.4630  384.4189  -96.5672 H   0  0  0  0  0  0  0  0  0  0  0  0  # atno 1526 bound_to 1505
  253.1650  396.2441  -97.0064 H   0  0  0  0  0  0  0  0  0  0  0  0  # atno 3997 bound_to 3964
  253.5494  396.0898  -99.1950 H   0  0  0  0  0  0  0  0  0  0  0  0  # atno 4080 bound_to 4041
  257.9572  392.7164 -100.2358 H   0  0  0  0  0  0  0  0  0  0  0  0  # atno 4216 bound_to 4196
  257.0326  396.4042 -101.3531 H   0  0  0  0  0  0  0  0  0  0  0  0  # atno 4256 bound_to 4235
  255.5452  397.6683 -103.2167 H   0  0  0  0  0  0  0  0  0  0  0  0  # atno 4260 bound_to 4240
  259.7813  393.1888 -105.5980 H   0  0  0  0  0  0  0  0  0  0  0  0  # atno 4422 bound_to 4372
  261.2977  392.6233 -105.9567 H   0  0  0  0  0  0  0  0  0  0  0  0  # atno 4423 bound_to 4372
  260.8840  392.9480 -104.3849 H   0  0  0  0  0  0  0  0  0  0  0  0  # atno 4424 bound_to 4372
  250.9245  393.8221 -103.0943 H   0  0  0  0  0  0  0  0  0  0  0  0  # atno 6608 bound_to 6572
  256.7633  386.0965 -108.4573 H   0  0  0  0  0  0  0  0  0  0  0  0  # atno 23722 bound_to 23672
  255.7243  384.1607 -105.9963 H   0  0  0  0  0  0  0  0  0  0  0  0  # atno 23760 bound_to 23747
  253.2590  382.8236 -106.6008 H   0  0  0  0  0  0  0  0  0  0  0  0  # atno 23788 bound_to 23775
  248.6875  381.2923 -105.2546 H   0  0  0  0  0  0  0  0  0  0  0  0  # atno 25482 bound_to 25446
  244.2546  388.7130 -100.6099 H   0  0  0  0  0  0  0  0  0  0  0  0  # atno 25713 bound_to 25680
  252.6605  380.5420  -99.4193 LP  0  0  0  0  0  0  0  0  0  0  0  0  # atno 27271 bound_to 1147
  254.3293  381.0050  -99.3903 LP  0  0  0  0  0  0  0  0  0  0  0  0  # atno 27272 bound_to 1147
  253.9893  381.0780 -102.1212 LP  0  0  0  0  0  0  0  0  0  0  0  0  # atno 27273 bound_to 1203
  250.0519  383.5939 -100.6700 LP  0  0  0  0  0  0  0  0  0  0  0  0  # atno 27274 bound_to 1206
  250.5191  382.7594  -99.2259 LP  0  0  0  0  0  0  0  0  0  0  0  0  # atno 27275 bound_to 1206
  250.5524  380.3826 -101.8501 LP  0  0  0  0  0  0  0  0  0  0  0  0  # atno 27276 bound_to 1285
  251.2930  382.6931  -96.8133 LP  0  0  0  0  0  0  0  0  0  0  0  0  # atno 27277 bound_to 1426
  249.0743  386.7724  -97.3288 LP  0  0  0  0  0  0  0  0  0  0  0  0  # atno 27278 bound_to 1429
  247.4291  386.2314  -97.3026 LP  0  0  0  0  0  0  0  0  0  0  0  0  # atno 27279 bound_to 1429
  248.4202  383.1239  -97.7403 LP  0  0  0  0  0  0  0  0  0  0  0  0  # atno 27280 bound_to 1505
  252.8081  394.6952  -96.2918 LP  0  0  0  0  0  0  0  0  0  0  0  0  # atno 27283 bound_to 3964
  254.9452  394.6731 -100.3023 LP  0  0  0  0  0  0  0  0  0  0  0  0  # atno 27284 bound_to 3967
  254.0840  395.7772 -101.3218 LP  0  0  0  0  0  0  0  0  0  0  0  0  # atno 27285 bound_to 3967
  258.0112  392.3969  -98.6413 LP  0  0  0  0  0  0  0  0  0  0  0  0  # atno 27286 bound_to 4196
  259.0592  393.4624  -99.2994 LP  0  0  0  0  0  0  0  0  0  0  0  0  # atno 27287 bound_to 4196
  251.4480  394.6233 -101.7781 LP  0  0  0  0  0  0  0  0  0  0  0  0  # atno 27288 bound_to 6572
  252.4474  394.3941 -103.0491 LP  0  0  0  0  0  0  0  0  0  0  0  0  # atno 27289 bound_to 6572
  254.2676  384.0243 -104.3226 LP  0  0  0  0  0  0  0  0  0  0  0  0  # atno 27291 bound_to 23675
  255.1711  385.5019 -104.3009 LP  0  0  0  0  0  0  0  0  0  0  0  0  # atno 27292 bound_to 23675
  245.1018  389.0721  -99.1310 LP  0  0  0  0  0  0  0  0  0  0  0  0  # atno 27293 bound_to 25680
  246.6038  390.4513 -100.1821 LP  0  0  0  0  0  0  0  0  0  0  0  0  # atno 27294 bound_to 25683
  246.9624  392.1369 -100.0079 LP  0  0  0  0  0  0  0  0  0  0  0  0  # atno 27295 bound_to 25683
  250.4535  383.4552  -94.8543 LP  0  0  0  0  0  0  0  0  0  0  0  0  # atno 27296 bound_to 1350
  250.2125  381.7690  -94.5398 LP  0  0  0  0  0  0  0  0  0  0  0  0  # atno 27297 bound_to 1350
  251.1904  393.7994  -95.2101 LP  0  0  0  0  0  0  0  0  0  0  0  0  # atno 27298 bound_to 3703
  250.5268  394.8574  -96.4103 LP  0  0  0  0  0  0  0  0  0  0  0  0  # atno 27299 bound_to 3703
  251.9631  396.7676  -98.9272 LP  0  0  0  0  0  0  0  0  0  0  0  0  # atno 27302 bound_to 4041
  256.2948  394.8222 -101.2622 LP  0  0  0  0  0  0  0  0  0  0  0  0  # atno 27303 bound_to 4235
  245.3703  391.2754 -105.4262 LP  0  0  0  0  0  0  0  0  0  0  0  0  # atno 27304 bound_to 6798
  244.6963  391.2347 -107.0212 LP  0  0  0  0  0  0  0  0  0  0  0  0  # atno 27305 bound_to 6798
  257.5375  387.4642 -107.1387 LP  0  0  0  0  0  0  0  0  0  0  0  0  # atno 27307 bound_to 23613
  258.7908  386.2705 -107.0723 LP  0  0  0  0  0  0  0  0  0  0  0  0  # atno 27308 bound_to 23613
  256.0748  384.4896 -108.5394 LP  0  0  0  0  0  0  0  0  0  0  0  0  # atno 27309 bound_to 23672
  255.3782  383.1625 -107.3864 LP  0  0  0  0  0  0  0  0  0  0  0  0  # atno 27310 bound_to 23747
  250.5920  383.8651 -108.2587 LP  0  0  0  0  0  0  0  0  0  0  0  0  # atno 27311 bound_to 23778
  252.1360  383.6521 -107.5031 LP  0  0  0  0  0  0  0  0  0  0  0  0  # atno 27312 bound_to 23778
  259.3455  394.3739 -101.7162 LP  0  0  0  0  0  0  0  0  0  0  0  0  # atno 27313 bound_to 4194
  259.2093  395.9622 -102.3936 LP  0  0  0  0  0  0  0  0  0  0  0  0  # atno 27314 bound_to 4194
  253.9469  397.3612 -103.2305 LP  0  0  0  0  0  0  0  0  0  0  0  0  # atno 27315 bound_to 4240
  254.7641  397.5132 -104.6362 LP  0  0  0  0  0  0  0  0  0  0  0  0  # atno 27316 bound_to 4240

> <Gold.Score>
     Fitness  S(hb_ext) S(vdw_ext)  S(hb_int)    S(int)      intcor
     33.83       3.95      22.20       0.00      -0.65      -0.76

> <Gold.Goldscore.Fitness>
33.8282

> <Gold.Goldscore.Internal.Vdw>
-0.9163

> <Gold.Goldscore.Internal.Torsion>
-0.4947

> <Gold.Goldscore.External.Vdw>
22.2018

> <Gold.Goldscore.Internal.HBond>
0.0000

> <Gold.Goldscore.External.HBond>
3.9532

> <Gold.Goldscore.Internal.Correction>
-0.7585

> <Gold.Goldscore.Hbonds>
donor molecule, donor type, donor heavy atom, donor atom, acceptor molecule, acceptor atom, score
      P1  H  4196  4216       L1    17  0.14
      L1  H     8    22       P1  4235  0.61

> <Gold.Goldscore.Internal.Vdw.Weighted>
-0.9163

> <Gold.Goldscore.Internal.Torsion.Weighted>
-0.4947

> <Gold.Goldscore.External.Vdw.Weighted>
30.5275

> <Gold.Goldscore.Internal.HBond.Weighted>
0.0000

> <Gold.Goldscore.External.HBond.Weighted>
3.9532

> <Gold.Goldscore.Internal.Correction.Weighted>
-0.7585

> <Gold.Rescore>
     Score     S(PLP)   S(hbond)     S(cho)   S(metal)  DE(clash)   DE(tors)     intcor
     33.40     -30.20       1.20       0.00       0.00       0.00       0.20       ----

> <Gold.PLP.Fitness>
33.4029

> <Gold.PLP.PLP>
-30.1952

> <Gold.PLP.part.hbond>
-1.7227

> <Gold.PLP.part.metal>
0.0000

> <Gold.PLP.part.buried>
-5.5395

> <Gold.PLP.part.nonpolar>
-23.8366

> <Gold.PLP.part.repulsive>
1.5672

> <Gold.PLP.ligand.clash>
0.0000

> <Gold.PLP.ligand.torsion>
0.2033

> <Gold.PLP.Chemscore.Hbond>
1.2047

> <Gold.PLP.Chemscore.CHOScore>
0.0000

> <Gold.PLP.Chemscore.Metal>
0.0000

> <Gold.Chemscore.Hbonds>
donor molecule, donor type, donor heavy atom, donor atom, acceptor molecule, acceptor atom, score
      L1  H     8    22       P1  4235  0.30

> <Gold.PLP.Chemscore.Internal.Correction>
   9.000000E+99

