#       Name:                CT1002167954
#       Creating user name   hitesit
#       Creation time:       Sun Apr 16 02:36:48 2023


#       File generated by GOLD software.
#

@<TRIPOS>MOLECULE
CT1002167954|ligand_prepared|mol2|1|dock9
    29    30     1
SMALL
NO_CHARGES


@<TRIPOS>ATOM
      1 C1         253.9721 390.9139 -101.0970 C.3            1 RES1               0.0000
      2 C2         253.1921 390.4179 -99.8625 C.ar           1 RES1               0.0000
      3 C3         254.5234 389.6682 -101.7845 C.2            1 RES1               0.0000
      4 C4         252.9773 391.7020 -101.9419 C.2            1 RES1               0.0000
      5 C5         255.1547 391.8497 -100.7544 C.3            1 RES1               0.0000
      6 C6         252.0745 389.6020 -100.0112 C.ar           1 RES1               0.0000
      7 C7         253.5788 390.7649 -98.5707 C.ar           1 RES1               0.0000
      8 N8         253.9286 389.2722 -102.9461 N.am           1 RES1               0.0000
      9 O9         255.4401 389.0206 -101.2942 O.2            1 RES1               0.0000
     10 N10        252.6449 391.2034 -103.1743 N.am           1 RES1               0.0000
     11 O11        252.4656 392.7416 -101.5447 O.2            1 RES1               0.0000
     12 C12        255.9228 392.3382 -101.9724 C.3            1 RES1               0.0000
     13 C13        251.3707 389.1471 -98.9084 C.ar           1 RES1               0.0000
     14 C14        252.8735 390.3091 -97.4693 C.ar           1 RES1               0.0000
     15 C15        253.0520 390.0084 -103.7019 C.2            1 RES1               0.0000
     16 C16        251.7699 389.4998 -97.6369 C.ar           1 RES1               0.0000
     17 O17        252.6666 389.6028 -104.7946 O.2            1 RES1               0.0000
     18 H18        254.7698 392.7193 -100.2075 H              1 RES1               0.0000
     19 H19        255.8467 391.3160 -100.0913 H              1 RES1               0.0000
     20 H20        251.7440 389.3160 -101.0041 H              1 RES1               0.0000
     21 H21        254.4432 391.4014 -98.4149 H              1 RES1               0.0000
     22 H22        254.1567 388.3426 -103.2841 H              1 RES1               0.0000
     23 H23        252.0378 391.7763 -103.7519 H              1 RES1               0.0000
     24 H24        256.7413 392.9908 -101.6760 H              1 RES1               0.0000
     25 H25        256.3411 391.5003 -102.5263 H              1 RES1               0.0000
     26 H26        255.2706 392.8953 -102.6418 H              1 RES1               0.0000
     27 H27        250.5021 388.5116 -99.0457 H              1 RES1               0.0000
     28 H28        253.1908 390.5897 -96.4704 H              1 RES1               0.0000
     29 H29        251.2186 389.1430 -96.7731 H              1 RES1               0.0000
@<TRIPOS>BOND
    1    1    2 1     
    2    1    3 1     
    3    1    4 1     
    4    1    5 1     
    5    2    6 ar    
    6    2    7 ar    
    7    3    8 1     
    8    3    9 2     
    9    4   10 1     
   10    4   11 2     
   11    5   12 1     
   12    5   18 1     
   13    5   19 1     
   14    6   13 ar    
   15    6   20 1     
   16    7   14 ar    
   17    7   21 1     
   18    8   15 1     
   19    8   22 1     
   20   10   15 1     
   21   10   23 1     
   22   12   24 1     
   23   12   25 1     
   24   12   26 1     
   25   13   16 ar    
   26   13   27 1     
   27   14   16 ar    
   28   14   28 1     
   29   15   17 2     
   30   16   29 1     
@<TRIPOS>SUBSTRUCTURE
      1 RES1           1
@<TRIPOS>SET
DONOR_HYDROGENS      STATIC     ATOMS    <user>   **** ""
2 22 23
ATOM$RED        STATIC     ATOMS    COLORGROUP SYSTEM
2 22 23
@<TRIPOS>COMMENT
> <Gold.Version>
2022.3.0

> <Gold.Id.Protein>
unknown|7ts3_clean|pdb

> <Gold.Protein.RotatedTorsions>
[ 1244 1203 1204 1205 ] final  -83.18 input  115.91 | X-H torsion
[ 1316 1285 1286 1287 ] final   72.19 input  116.80 | X-H torsion
[ 1474 1426 1427 1428 ] final  -96.53 input   84.58 | X-H torsion
[ 1484 1434 1433 1432 ] final  127.69 input   60.01 | X-H torsion
[ 1526 1505 1506 1507 ] final  145.06 input   90.12 | X-H torsion
[ 3997 3964 3965 3966 ] final   -0.08 input  106.83 | X-H torsion
[ 4216 4196 4195 4192 ] final  163.11 input   60.00 | X-H torsion
[ 6608 6572 6571 6569 ] final   -9.50 input   60.00 | X-H torsion
[ 25713 25680 25681 25682 ] final -137.05 input   66.88 | X-H torsion
[ 4080 4041 4042 4043 ] final    6.07 input  118.05 | X-H torsion
[ 4256 4235 4236 4237 ] final  -70.40 input  121.49 | X-H torsion
[ 23722 23672 23673 23674 ] final  119.25 input   67.42 | X-H torsion
[ 23760 23747 23748 23749 ] final    9.59 input  -89.77 | X-H torsion
[ 4260 4240 4239 4236 ] final   49.30 input   60.02 | X-H torsion
[ 1178 1150 1148 1145 ] final  117.13 input   60.00 | X-H torsion
[ 25482 25446 25445 25443 ] final -137.44 input   60.01 | X-H torsion
[ 4422 4372 4371 4370 ] final -176.97 input   59.99 | X-H torsion
[ 23788 23775 23776 23777 ] final   61.34 input  -27.92 | X-H torsion
[ 27271 1147 1146 1145 ] final  125.79 input   -0.00 | X-H torsion
[ 27274 1206 1205 1204 ] final   21.70 input    0.00 | X-H torsion
[ 27278 1429 1428 1427 ] final  100.42 input    0.00 | X-H torsion
[ 27284 3967 3966 3965 ] final  -43.20 input    0.00 | X-H torsion
[ 27291 23675 23674 23673 ] final  -98.08 input    0.00 | X-H torsion
[ 27294 25683 25682 25681 ] final  112.89 input    0.00 | X-H torsion
[ 27296 1350 1349 1348 ] final  131.00 input    0.00 | X-H torsion
[ 27298 3703 3702 3701 ] final   14.29 input   -0.00 | X-H torsion
[ 27304 6798 6797 6796 ] final  140.84 input    0.00 | X-H torsion
[ 27307 23613 23612 23611 ] final   76.08 input   -0.00 | X-H torsion
[ 27311 23778 23777 23776 ] final -109.74 input   -0.00 | X-H torsion
[ 27313 4194 4193 4192 ] final   83.57 input    0.00 | X-H torsion

> <Gold.Protein.ActiveResidues>
 THR320  LEU321  HIS322  LEU323  LYS324  SER325  THR326  GLU365  PHE366  GLN369 
 TYR370  SER372  SER373  LYS375  TYR408  HIS412  ARG415  ASN416  TRP426  GLU670 
 CYS673  ARG674  GLY675  GLY676  TYR703  LEU705  THR706  PRO707 

> <Gold.Protein.RotatedAtoms>
  256.4829  381.4304 -102.1782 H   0  0  0  0  0  0  0  0  0  0  0  0  # atno 1178 bound_to 1150
  253.6839  380.7234 -101.3675 H   0  0  0  0  0  0  0  0  0  0  0  0  # atno 1244 bound_to 1203
  251.3027  380.0355 -100.8582 H   0  0  0  0  0  0  0  0  0  0  0  0  # atno 1316 bound_to 1285
  250.6454  382.5228  -96.5446 H   0  0  0  0  0  0  0  0  0  0  0  0  # atno 1474 bound_to 1426
  254.8113  383.2172  -99.5292 H   0  0  0  0  0  0  0  0  0  0  0  0  # atno 1484 bound_to 1434
  255.9486  384.3891  -99.8082 H   0  0  0  0  0  0  0  0  0  0  0  0  # atno 1485 bound_to 1434
  255.3125  384.1970  -98.2902 H   0  0  0  0  0  0  0  0  0  0  0  0  # atno 1486 bound_to 1434
  248.4391  383.2084  -97.8491 H   0  0  0  0  0  0  0  0  0  0  0  0  # atno 1526 bound_to 1505
  253.1062  396.2506  -97.0167 H   0  0  0  0  0  0  0  0  0  0  0  0  # atno 3997 bound_to 3964
  253.5690  396.5006  -98.7461 H   0  0  0  0  0  0  0  0  0  0  0  0  # atno 4080 bound_to 4041
  257.9080  392.3353  -98.7501 H   0  0  0  0  0  0  0  0  0  0  0  0  # atno 4216 bound_to 4196
  257.4787  395.2742 -101.3602 H   0  0  0  0  0  0  0  0  0  0  0  0  # atno 4256 bound_to 4235
  255.5334  397.6618 -104.1910 H   0  0  0  0  0  0  0  0  0  0  0  0  # atno 4260 bound_to 4240
  260.3874  392.9063 -106.2319 H   0  0  0  0  0  0  0  0  0  0  0  0  # atno 4422 bound_to 4372
  261.5367  392.6436 -105.0667 H   0  0  0  0  0  0  0  0  0  0  0  0  # atno 4423 bound_to 4372
  260.0386  393.2103 -104.6409 H   0  0  0  0  0  0  0  0  0  0  0  0  # atno 4424 bound_to 4372
  252.1711  394.1446 -103.3753 H   0  0  0  0  0  0  0  0  0  0  0  0  # atno 6608 bound_to 6572
  255.7037  385.4770 -108.9962 H   0  0  0  0  0  0  0  0  0  0  0  0  # atno 23722 bound_to 23672
  254.6821  383.6557 -106.8526 H   0  0  0  0  0  0  0  0  0  0  0  0  # atno 23760 bound_to 23747
  253.2672  382.6584 -106.0041 H   0  0  0  0  0  0  0  0  0  0  0  0  # atno 23788 bound_to 23775
  248.8011  380.6035 -105.1919 H   0  0  0  0  0  0  0  0  0  0  0  0  # atno 25482 bound_to 25446
  243.9333  388.6043 -100.2183 H   0  0  0  0  0  0  0  0  0  0  0  0  # atno 25713 bound_to 25680
  253.7232  381.5882  -99.5898 LP  0  0  0  0  0  0  0  0  0  0  0  0  # atno 27271 bound_to 1147
  253.2666  379.9589  -99.2199 LP  0  0  0  0  0  0  0  0  0  0  0  0  # atno 27272 bound_to 1147
  252.8735  380.4849 -102.9003 LP  0  0  0  0  0  0  0  0  0  0  0  0  # atno 27273 bound_to 1203
  250.6430  383.7635 -100.4750 LP  0  0  0  0  0  0  0  0  0  0  0  0  # atno 27274 bound_to 1206
  249.9279  382.5898  -99.4209 LP  0  0  0  0  0  0  0  0  0  0  0  0  # atno 27275 bound_to 1206
  250.5039  381.4732 -101.4472 LP  0  0  0  0  0  0  0  0  0  0  0  0  # atno 27276 bound_to 1285
  250.7147  382.8544  -98.2619 LP  0  0  0  0  0  0  0  0  0  0  0  0  # atno 27277 bound_to 1426
  248.1882  386.4234  -98.1758 LP  0  0  0  0  0  0  0  0  0  0  0  0  # atno 27278 bound_to 1429
  248.3152  386.5803  -96.4555 LP  0  0  0  0  0  0  0  0  0  0  0  0  # atno 27279 bound_to 1429
  248.4435  384.3058  -96.4887 LP  0  0  0  0  0  0  0  0  0  0  0  0  # atno 27280 bound_to 1505
  252.8665  394.6888  -96.2815 LP  0  0  0  0  0  0  0  0  0  0  0  0  # atno 27283 bound_to 3964
  255.0760  394.8725 -100.2548 LP  0  0  0  0  0  0  0  0  0  0  0  0  # atno 27284 bound_to 3967
  253.9533  395.5778 -101.3693 LP  0  0  0  0  0  0  0  0  0  0  0  0  # atno 27285 bound_to 3967
  259.0539  393.4220  -99.1419 LP  0  0  0  0  0  0  0  0  0  0  0  0  # atno 27286 bound_to 4196
  258.0660  392.8211 -100.2950 LP  0  0  0  0  0  0  0  0  0  0  0  0  # atno 27287 bound_to 4196
  250.7226  393.9479 -102.6602 LP  0  0  0  0  0  0  0  0  0  0  0  0  # atno 27288 bound_to 6572
  251.9179  394.7449 -101.8840 LP  0  0  0  0  0  0  0  0  0  0  0  0  # atno 27289 bound_to 6572
  255.5447  384.7313 -104.0512 LP  0  0  0  0  0  0  0  0  0  0  0  0  # atno 27291 bound_to 23675
  253.8941  384.7949 -104.5723 LP  0  0  0  0  0  0  0  0  0  0  0  0  # atno 27292 bound_to 23675
  245.4219  389.1803  -99.5210 LP  0  0  0  0  0  0  0  0  0  0  0  0  # atno 27293 bound_to 25680
  246.9081  391.1840 -100.9448 LP  0  0  0  0  0  0  0  0  0  0  0  0  # atno 27294 bound_to 25683
  246.6580  391.4042  -99.2451 LP  0  0  0  0  0  0  0  0  0  0  0  0  # atno 27295 bound_to 25683
  250.8519  383.3039  -94.7429 LP  0  0  0  0  0  0  0  0  0  0  0  0  # atno 27296 bound_to 1350
  249.8141  381.9203  -94.6512 LP  0  0  0  0  0  0  0  0  0  0  0  0  # atno 27297 bound_to 1350
  251.0643  393.6594  -95.3001 LP  0  0  0  0  0  0  0  0  0  0  0  0  # atno 27298 bound_to 3703
  250.6529  394.9974  -96.3202 LP  0  0  0  0  0  0  0  0  0  0  0  0  # atno 27299 bound_to 3703
  251.9439  396.3634  -99.3689 LP  0  0  0  0  0  0  0  0  0  0  0  0  # atno 27302 bound_to 4041
  255.8596  395.9244 -101.2553 LP  0  0  0  0  0  0  0  0  0  0  0  0  # atno 27303 bound_to 4235
  244.5184  391.3095 -105.5294 LP  0  0  0  0  0  0  0  0  0  0  0  0  # atno 27304 bound_to 6798
  245.5481  391.2005 -106.9179 LP  0  0  0  0  0  0  0  0  0  0  0  0  # atno 27305 bound_to 6798
  257.9522  387.5951 -107.5243 LP  0  0  0  0  0  0  0  0  0  0  0  0  # atno 27307 bound_to 23613
  258.3761  386.1395 -106.6867 LP  0  0  0  0  0  0  0  0  0  0  0  0  # atno 27308 bound_to 23613
  257.1017  385.0900 -108.0171 LP  0  0  0  0  0  0  0  0  0  0  0  0  # atno 27309 bound_to 23672
  256.4010  383.6581 -106.5459 LP  0  0  0  0  0  0  0  0  0  0  0  0  # atno 27310 bound_to 23747
  250.8645  384.0947 -107.2584 LP  0  0  0  0  0  0  0  0  0  0  0  0  # atno 27311 bound_to 23778
  251.8635  383.4226 -108.5035 LP  0  0  0  0  0  0  0  0  0  0  0  0  # atno 27312 bound_to 23778
  259.1976  394.3119 -101.9517 LP  0  0  0  0  0  0  0  0  0  0  0  0  # atno 27313 bound_to 4194
  259.3572  396.0242 -102.1581 LP  0  0  0  0  0  0  0  0  0  0  0  0  # atno 27314 bound_to 4194
  254.7868  397.5257 -102.7512 LP  0  0  0  0  0  0  0  0  0  0  0  0  # atno 27315 bound_to 4240
  253.9360  397.3552 -104.1346 LP  0  0  0  0  0  0  0  0  0  0  0  0  # atno 27316 bound_to 4240

> <Gold.Score>
     Fitness  S(hb_ext) S(vdw_ext)  S(hb_int)    S(int)      intcor
     31.95       2.91      21.16       0.00      -0.05      -0.76

> <Gold.Goldscore.Fitness>
31.9493

> <Gold.Goldscore.Internal.Vdw>
-0.4440

> <Gold.Goldscore.Internal.Torsion>
-0.3673

> <Gold.Goldscore.External.Vdw>
21.1613

> <Gold.Goldscore.Internal.HBond>
0.0000

> <Gold.Goldscore.External.HBond>
2.9052

> <Gold.Goldscore.Internal.Correction>
-0.7585

> <Gold.Goldscore.Hbonds>
donor molecule, donor type, donor heavy atom, donor atom, acceptor molecule, acceptor atom, score
      P1  H 23679 23730       L1    17  0.41
      L1  H    10    23       P1  6804  0.07

> <Gold.Goldscore.Internal.Vdw.Weighted>
-0.4440

> <Gold.Goldscore.Internal.Torsion.Weighted>
-0.3673

> <Gold.Goldscore.External.Vdw.Weighted>
29.0969

> <Gold.Goldscore.Internal.HBond.Weighted>
0.0000

> <Gold.Goldscore.External.HBond.Weighted>
2.9052

> <Gold.Goldscore.Internal.Correction.Weighted>
-0.7585

> <Gold.Rescore>
     Score     S(PLP)   S(hbond)     S(cho)   S(metal)  DE(clash)   DE(tors)     intcor
     30.78     -28.58       0.74       0.00       0.00       0.00       0.01       ----

> <Gold.PLP.Fitness>
30.7763

> <Gold.PLP.PLP>
-28.5809

> <Gold.PLP.part.hbond>
-3.1106

> <Gold.PLP.part.metal>
0.0000

> <Gold.PLP.part.buried>
-3.4026

> <Gold.PLP.part.nonpolar>
-24.5101

> <Gold.PLP.part.repulsive>
3.3859

> <Gold.PLP.ligand.clash>
0.0000

> <Gold.PLP.ligand.torsion>
0.0063

> <Gold.PLP.Chemscore.Hbond>
0.7360

> <Gold.PLP.Chemscore.CHOScore>
0.0000

> <Gold.PLP.Chemscore.Metal>
0.0000

> <Gold.Chemscore.Hbonds>
donor molecule, donor type, donor heavy atom, donor atom, acceptor molecule, acceptor atom, score
      P1  H 23679 23730       L1    17  0.62

> <Gold.PLP.Chemscore.Internal.Correction>
   9.000000E+99

