#       Name:                CT1002167954
#       Creating user name   hitesit
#       Creation time:       Sun Apr 16 02:36:45 2023


#       File generated by GOLD software.
#

@<TRIPOS>MOLECULE
CT1002167954|ligand_prepared|mol2|1|dock3
    29    30     1
SMALL
NO_CHARGES


@<TRIPOS>ATOM
      1 C1         252.8353 390.3136 -102.0507 C.3            1 RES1               0.0000
      2 C2         251.4219 389.9236 -101.5722 C.ar           1 RES1               0.0000
      3 C3         253.7381 390.2431 -100.8226 C.2            1 RES1               0.0000
      4 C4         253.2020 389.3228 -103.1501 C.2            1 RES1               0.0000
      5 C5         252.9231 391.7391 -102.6437 C.3            1 RES1               0.0000
      6 C6         251.2316 388.8130 -100.7555 C.ar           1 RES1               0.0000
      7 C7         250.3010 390.6650 -101.9364 C.ar           1 RES1               0.0000
      8 N8         254.6047 389.1937 -100.7348 N.am           1 RES1               0.0000
      9 O9         253.6629 391.0739 -99.9258 O.2            1 RES1               0.0000
     10 N10        254.2383 388.4575 -102.9151 N.am           1 RES1               0.0000
     11 O11        252.5922 389.2724 -104.2111 O.2            1 RES1               0.0000
     12 C12        254.3437 392.1943 -102.9382 C.3            1 RES1               0.0000
     13 C13        249.9670 388.4580 -100.3163 C.ar           1 RES1               0.0000
     14 C14        249.0372 390.3081 -101.4962 C.ar           1 RES1               0.0000
     15 C15        254.9363 388.3275 -101.7454 C.2            1 RES1               0.0000
     16 C16        248.8691 389.2054 -100.6859 C.ar           1 RES1               0.0000
     17 O17        255.8191 387.4882 -101.5924 O.2            1 RES1               0.0000
     18 H18        252.3421 391.7711 -103.5736 H              1 RES1               0.0000
     19 H19        252.4657 392.4438 -101.9382 H              1 RES1               0.0000
     20 H20        252.0834 388.2113 -100.4564 H              1 RES1               0.0000
     21 H21        250.4093 391.5357 -102.5740 H              1 RES1               0.0000
     22 H22        255.0472 389.0387 -99.8345 H              1 RES1               0.0000
     23 H23        254.5151 387.8546 -103.6833 H              1 RES1               0.0000
     24 H24        254.3484 393.2004 -103.3523 H              1 RES1               0.0000
     25 H25        254.9434 392.1988 -102.0303 H              1 RES1               0.0000
     26 H26        254.8205 391.5302 -103.6561 H              1 RES1               0.0000
     27 H27        249.8398 387.5885 -99.6799 H              1 RES1               0.0000
     28 H28        248.1759 390.8988 -101.7900 H              1 RES1               0.0000
     29 H29        247.8785 388.9273 -100.3413 H              1 RES1               0.0000
@<TRIPOS>BOND
    1    1    2 1     
    2    1    3 1     
    3    1    4 1     
    4    1    5 1     
    5    2    6 ar    
    6    2    7 ar    
    7    3    8 1     
    8    3    9 2     
    9    4   10 1     
   10    4   11 2     
   11    5   12 1     
   12    5   18 1     
   13    5   19 1     
   14    6   13 ar    
   15    6   20 1     
   16    7   14 ar    
   17    7   21 1     
   18    8   15 1     
   19    8   22 1     
   20   10   15 1     
   21   10   23 1     
   22   12   24 1     
   23   12   25 1     
   24   12   26 1     
   25   13   16 ar    
   26   13   27 1     
   27   14   16 ar    
   28   14   28 1     
   29   15   17 2     
   30   16   29 1     
@<TRIPOS>SUBSTRUCTURE
      1 RES1           1
@<TRIPOS>SET
DONOR_HYDROGENS      STATIC     ATOMS    <user>   **** ""
2 22 23
ATOM$RED        STATIC     ATOMS    COLORGROUP SYSTEM
2 22 23
@<TRIPOS>COMMENT
> <Gold.Version>
2022.3.0

> <Gold.Id.Protein>
unknown|7ts3_clean|pdb

> <Gold.Protein.RotatedTorsions>
[ 1244 1203 1204 1205 ] final   29.53 input  115.91 | X-H torsion
[ 1316 1285 1286 1287 ] final -158.21 input  116.80 | X-H torsion
[ 1474 1426 1427 1428 ] final   11.61 input   84.58 | X-H torsion
[ 1484 1434 1433 1432 ] final  163.27 input   60.01 | X-H torsion
[ 1526 1505 1506 1507 ] final  142.46 input   90.12 | X-H torsion
[ 3997 3964 3965 3966 ] final  -97.19 input  106.83 | X-H torsion
[ 4216 4196 4195 4192 ] final -104.76 input   60.00 | X-H torsion
[ 6608 6572 6571 6569 ] final -164.78 input   60.00 | X-H torsion
[ 25713 25680 25681 25682 ] final   51.06 input   66.88 | X-H torsion
[ 4080 4041 4042 4043 ] final  -92.81 input  118.05 | X-H torsion
[ 4256 4235 4236 4237 ] final  -37.49 input  121.49 | X-H torsion
[ 23722 23672 23673 23674 ] final -130.41 input   67.42 | X-H torsion
[ 23760 23747 23748 23749 ] final -131.90 input  -89.77 | X-H torsion
[ 4260 4240 4239 4236 ] final  -70.58 input   60.02 | X-H torsion
[ 1178 1150 1148 1145 ] final  -29.69 input   60.00 | X-H torsion
[ 25482 25446 25445 25443 ] final  174.08 input   60.01 | X-H torsion
[ 4422 4372 4371 4370 ] final -124.35 input   59.99 | X-H torsion
[ 23788 23775 23776 23777 ] final  -95.48 input  -27.92 | X-H torsion
[ 27271 1147 1146 1145 ] final  -44.20 input   -0.00 | X-H torsion
[ 27274 1206 1205 1204 ] final   84.12 input    0.00 | X-H torsion
[ 27278 1429 1428 1427 ] final   17.77 input    0.00 | X-H torsion
[ 27284 3967 3966 3965 ] final -118.25 input    0.00 | X-H torsion
[ 27291 23675 23674 23673 ] final   -6.42 input    0.00 | X-H torsion
[ 27294 25683 25682 25681 ] final  124.29 input    0.00 | X-H torsion
[ 27296 1350 1349 1348 ] final   27.60 input    0.00 | X-H torsion
[ 27298 3703 3702 3701 ] final  -58.48 input   -0.00 | X-H torsion
[ 27304 6798 6797 6796 ] final -129.04 input    0.00 | X-H torsion
[ 27307 23613 23612 23611 ] final   33.92 input   -0.00 | X-H torsion
[ 27311 23778 23777 23776 ] final -115.30 input   -0.00 | X-H torsion
[ 27313 4194 4193 4192 ] final  136.31 input    0.00 | X-H torsion

> <Gold.Protein.ActiveResidues>
 THR320  LEU321  HIS322  LEU323  LYS324  SER325  THR326  GLU365  PHE366  GLN369 
 TYR370  SER372  SER373  LYS375  TYR408  HIS412  ARG415  ASN416  TRP426  GLU670 
 CYS673  ARG674  GLY675  GLY676  TYR703  LEU705  THR706  PRO707 

> <Gold.Protein.RotatedAtoms>
  255.6538  380.2836 -103.2830 H   0  0  0  0  0  0  0  0  0  0  0  0  # atno 1178 bound_to 1150
  252.5437  380.0974 -102.0743 H   0  0  0  0  0  0  0  0  0  0  0  0  # atno 1244 bound_to 1203
  250.3915  380.8720 -101.8709 H   0  0  0  0  0  0  0  0  0  0  0  0  # atno 1316 bound_to 1285
  249.8620  382.5920  -97.7521 H   0  0  0  0  0  0  0  0  0  0  0  0  # atno 1474 bound_to 1426
  255.1273  383.4158  -99.9794 H   0  0  0  0  0  0  0  0  0  0  0  0  # atno 1484 bound_to 1434
  256.0067  384.6334  -99.2803 H   0  0  0  0  0  0  0  0  0  0  0  0  # atno 1485 bound_to 1434
  254.9387  383.7543  -98.3681 H   0  0  0  0  0  0  0  0  0  0  0  0  # atno 1486 bound_to 1434
  248.4318  383.1783  -97.8235 H   0  0  0  0  0  0  0  0  0  0  0  0  # atno 1526 bound_to 1505
  253.8241  395.3080  -96.4561 H   0  0  0  0  0  0  0  0  0  0  0  0  # atno 3997 bound_to 3964
  252.8915  395.8189  -99.6757 H   0  0  0  0  0  0  0  0  0  0  0  0  # atno 4080 bound_to 4041
  257.7906  392.5349 -100.0783 H   0  0  0  0  0  0  0  0  0  0  0  0  # atno 4216 bound_to 4196
  257.5249  395.7732 -101.3736 H   0  0  0  0  0  0  0  0  0  0  0  0  # atno 4256 bound_to 4235
  254.7890  397.5240 -102.7576 H   0  0  0  0  0  0  0  0  0  0  0  0  # atno 4260 bound_to 4240
  261.1794  392.6520 -106.0666 H   0  0  0  0  0  0  0  0  0  0  0  0  # atno 4422 bound_to 4372
  261.0297  392.8918 -104.4333 H   0  0  0  0  0  0  0  0  0  0  0  0  # atno 4423 bound_to 4372
  259.7534  393.2165 -105.4396 H   0  0  0  0  0  0  0  0  0  0  0  0  # atno 4424 bound_to 4372
  250.8032  394.2126 -102.1625 H   0  0  0  0  0  0  0  0  0  0  0  0  # atno 6608 bound_to 6572
  256.8978  386.0106 -108.3495 H   0  0  0  0  0  0  0  0  0  0  0  0  # atno 23722 bound_to 23672
  256.3057  383.3263 -107.0070 H   0  0  0  0  0  0  0  0  0  0  0  0  # atno 23760 bound_to 23747
  253.8838  381.6247 -107.2543 H   0  0  0  0  0  0  0  0  0  0  0  0  # atno 23788 bound_to 23775
  249.2009  380.1733 -104.6958 H   0  0  0  0  0  0  0  0  0  0  0  0  # atno 25482 bound_to 25446
  245.3782  389.1420  -99.4099 H   0  0  0  0  0  0  0  0  0  0  0  0  # atno 25713 bound_to 25680
  253.4147  379.9356  -99.2011 LP  0  0  0  0  0  0  0  0  0  0  0  0  # atno 27271 bound_to 1147
  253.5751  381.6114  -99.6085 LP  0  0  0  0  0  0  0  0  0  0  0  0  # atno 27272 bound_to 1147
  253.9776  381.0910 -102.2158 LP  0  0  0  0  0  0  0  0  0  0  0  0  # atno 27273 bound_to 1203
  249.8203  383.4397 -100.6294 LP  0  0  0  0  0  0  0  0  0  0  0  0  # atno 27274 bound_to 1206
  250.7507  382.9137  -99.2665 LP  0  0  0  0  0  0  0  0  0  0  0  0  # atno 27275 bound_to 1206
  251.3948  380.6554 -100.4571 LP  0  0  0  0  0  0  0  0  0  0  0  0  # atno 27276 bound_to 1285
  251.4722  382.7875  -97.0944 LP  0  0  0  0  0  0  0  0  0  0  0  0  # atno 27277 bound_to 1426
  249.0569  386.7546  -97.5098 LP  0  0  0  0  0  0  0  0  0  0  0  0  # atno 27278 bound_to 1429
  247.4464  386.2492  -97.1215 LP  0  0  0  0  0  0  0  0  0  0  0  0  # atno 27279 bound_to 1429
  248.4506  384.3353  -96.5136 LP  0  0  0  0  0  0  0  0  0  0  0  0  # atno 27280 bound_to 1505
  252.1536  395.6248  -96.8382 LP  0  0  0  0  0  0  0  0  0  0  0  0  # atno 27283 bound_to 3964
  255.0371  395.8755 -100.5796 LP  0  0  0  0  0  0  0  0  0  0  0  0  # atno 27284 bound_to 3967
  253.9922  394.5748 -101.0445 LP  0  0  0  0  0  0  0  0  0  0  0  0  # atno 27285 bound_to 3967
  258.2238  392.5528  -98.5100 LP  0  0  0  0  0  0  0  0  0  0  0  0  # atno 27286 bound_to 4196
  259.0144  393.4892  -99.5893 LP  0  0  0  0  0  0  0  0  0  0  0  0  # atno 27287 bound_to 4196
  252.3450  394.7237 -102.2627 LP  0  0  0  0  0  0  0  0  0  0  0  0  # atno 27288 bound_to 6572
  251.6725  393.9006 -103.5025 LP  0  0  0  0  0  0  0  0  0  0  0  0  # atno 27289 bound_to 6572
  254.7682  385.6173 -104.4456 LP  0  0  0  0  0  0  0  0  0  0  0  0  # atno 27291 bound_to 23675
  254.6706  383.9089 -104.1780 LP  0  0  0  0  0  0  0  0  0  0  0  0  # atno 27292 bound_to 23675
  243.9828  388.6448 -100.3261 LP  0  0  0  0  0  0  0  0  0  0  0  0  # atno 27293 bound_to 25680
  246.9466  391.3517 -100.9435 LP  0  0  0  0  0  0  0  0  0  0  0  0  # atno 27294 bound_to 25683
  246.6195  391.2365  -99.2465 LP  0  0  0  0  0  0  0  0  0  0  0  0  # atno 27295 bound_to 25683
  250.8679  381.9757  -94.4544 LP  0  0  0  0  0  0  0  0  0  0  0  0  # atno 27296 bound_to 1350
  249.7981  383.2485  -94.9397 LP  0  0  0  0  0  0  0  0  0  0  0  0  # atno 27297 bound_to 1350
  251.4466  394.6113  -95.2407 LP  0  0  0  0  0  0  0  0  0  0  0  0  # atno 27298 bound_to 3703
  250.2706  394.0455  -96.3796 LP  0  0  0  0  0  0  0  0  0  0  0  0  # atno 27299 bound_to 3703
  252.6103  397.0341  -98.4543 LP  0  0  0  0  0  0  0  0  0  0  0  0  # atno 27302 bound_to 4041
  255.8145  395.4376 -101.2422 LP  0  0  0  0  0  0  0  0  0  0  0  0  # atno 27303 bound_to 4235
  244.3391  391.2635 -106.7414 LP  0  0  0  0  0  0  0  0  0  0  0  0  # atno 27304 bound_to 6798
  245.7274  391.2466 -105.7059 LP  0  0  0  0  0  0  0  0  0  0  0  0  # atno 27305 bound_to 6798
  258.4979  387.3718 -107.7253 LP  0  0  0  0  0  0  0  0  0  0  0  0  # atno 27307 bound_to 23613
  257.8303  386.3629 -106.4858 LP  0  0  0  0  0  0  0  0  0  0  0  0  # atno 27308 bound_to 23613
  255.9444  384.5728 -108.6439 LP  0  0  0  0  0  0  0  0  0  0  0  0  # atno 27309 bound_to 23672
  254.8076  383.9814 -106.3945 LP  0  0  0  0  0  0  0  0  0  0  0  0  # atno 27310 bound_to 23747
  250.8020  384.0954 -107.3146 LP  0  0  0  0  0  0  0  0  0  0  0  0  # atno 27311 bound_to 23778
  251.9260  383.4219 -108.4473 LP  0  0  0  0  0  0  0  0  0  0  0  0  # atno 27312 bound_to 23778
  258.8771  394.6112 -102.5837 LP  0  0  0  0  0  0  0  0  0  0  0  0  # atno 27313 bound_to 4194
  259.6777  395.7249 -101.5261 LP  0  0  0  0  0  0  0  0  0  0  0  0  # atno 27314 bound_to 4194
  253.9351  397.3550 -104.1328 LP  0  0  0  0  0  0  0  0  0  0  0  0  # atno 27315 bound_to 4240
  255.5372  397.6646 -104.1961 LP  0  0  0  0  0  0  0  0  0  0  0  0  # atno 27316 bound_to 4240

> <Gold.Score>
     Fitness  S(hb_ext) S(vdw_ext)  S(hb_int)    S(int)      intcor
     37.83       4.91      24.01       0.00      -0.10      -0.76

> <Gold.Goldscore.Fitness>
37.8281

> <Gold.Goldscore.Internal.Vdw>
-0.3851

> <Gold.Goldscore.Internal.Torsion>
-0.4703

> <Gold.Goldscore.External.Vdw>
24.0143

> <Gold.Goldscore.Internal.HBond>
0.0000

> <Gold.Goldscore.External.HBond>
4.9053

> <Gold.Goldscore.Internal.Correction>
-0.7585

> <Gold.Goldscore.Hbonds>
donor molecule, donor type, donor heavy atom, donor atom, acceptor molecule, acceptor atom, score
      P1  H 23679 23730       L1    11  0.82

> <Gold.Goldscore.Internal.Vdw.Weighted>
-0.3851

> <Gold.Goldscore.Internal.Torsion.Weighted>
-0.4703

> <Gold.Goldscore.External.Vdw.Weighted>
33.0197

> <Gold.Goldscore.Internal.HBond.Weighted>
0.0000

> <Gold.Goldscore.External.HBond.Weighted>
4.9053

> <Gold.Goldscore.Internal.Correction.Weighted>
-0.7585

> <Gold.Rescore>
     Score     S(PLP)   S(hbond)     S(cho)   S(metal)  DE(clash)   DE(tors)     intcor
     34.61     -33.44       1.00       0.00       0.00       0.00       0.92       ----

> <Gold.PLP.Fitness>
34.6105

> <Gold.PLP.PLP>
-33.4427

> <Gold.PLP.part.hbond>
-1.0000

> <Gold.PLP.part.metal>
0.0000

> <Gold.PLP.part.buried>
-3.4576

> <Gold.PLP.part.nonpolar>
-29.9017

> <Gold.PLP.part.repulsive>
0.0360

> <Gold.PLP.ligand.clash>
0.0000

> <Gold.PLP.ligand.torsion>
0.9161

> <Gold.PLP.Chemscore.Hbond>
1.0000

> <Gold.PLP.Chemscore.CHOScore>
0.0000

> <Gold.PLP.Chemscore.Metal>
0.0000

> <Gold.Chemscore.Hbonds>
donor molecule, donor type, donor heavy atom, donor atom, acceptor molecule, acceptor atom, score
      P1  H 23679 23730       L1    11  0.54

> <Gold.PLP.Chemscore.Internal.Correction>
   9.000000E+99

