#       Name:                CT1002167954
#       Creating user name   hitesit
#       Creation time:       Sun Apr 16 02:36:44 2023


#       File generated by GOLD software.
#

@<TRIPOS>MOLECULE
CT1002167954|ligand_prepared|mol2|1|dock1
    29    30     1
SMALL
NO_CHARGES


@<TRIPOS>ATOM
      1 C1         252.5993 389.6706 -101.3273 C.3            1 RES1               0.0000
      2 C2         251.5543 389.5213 -100.2028 C.ar           1 RES1               0.0000
      3 C3         252.1594 390.8678 -102.1648 C.2            1 RES1               0.0000
      4 C4         253.9458 389.8558 -100.6364 C.2            1 RES1               0.0000
      5 C5         252.7027 388.4356 -102.2522 C.3            1 RES1               0.0000
      6 C6         250.3551 388.8539 -100.4340 C.ar           1 RES1               0.0000
      7 C7         251.7759 390.0423 -98.9308 C.ar           1 RES1               0.0000
      8 N8         252.8715 392.0239 -102.0375 N.am           1 RES1               0.0000
      9 O9         251.1785 390.8102 -102.8961 O.2            1 RES1               0.0000
     10 N10        254.5841 391.0592 -100.7859 N.am           1 RES1               0.0000
     11 O11        254.4520 388.9764 -99.9503 O.2            1 RES1               0.0000
     12 C12        253.9246 388.4480 -103.1572 C.3            1 RES1               0.0000
     13 C13        249.4129 388.7099 -99.4291 C.ar           1 RES1               0.0000
     14 C14        250.8321 389.8973 -97.9274 C.ar           1 RES1               0.0000
     15 C15        254.0935 392.1623 -101.4298 C.2            1 RES1               0.0000
     16 C16        249.6509 389.2311 -98.1752 C.ar           1 RES1               0.0000
     17 O17        254.7034 393.2269 -101.4751 O.2            1 RES1               0.0000
     18 H18        252.7320 387.5313 -101.6319 H              1 RES1               0.0000
     19 H19        251.8018 388.3852 -102.8761 H              1 RES1               0.0000
     20 H20        250.1492 388.4392 -101.4151 H              1 RES1               0.0000
     21 H21        252.6976 390.5712 -98.7133 H              1 RES1               0.0000
     22 H22        252.4572 392.8631 -102.4303 H              1 RES1               0.0000
     23 H23        255.5107 391.1400 -100.3796 H              1 RES1               0.0000
     24 H24        253.9487 387.5596 -103.7849 H              1 RES1               0.0000
     25 H25        253.9151 389.3212 -103.8062 H              1 RES1               0.0000
     26 H26        254.8398 388.4724 -102.5693 H              1 RES1               0.0000
     27 H27        248.4842 388.1859 -99.6296 H              1 RES1               0.0000
     28 H28        251.0234 390.3097 -96.9422 H              1 RES1               0.0000
     29 H29        248.9128 389.1178 -97.3880 H              1 RES1               0.0000
@<TRIPOS>BOND
    1    1    2 1     
    2    1    3 1     
    3    1    4 1     
    4    1    5 1     
    5    2    6 ar    
    6    2    7 ar    
    7    3    8 1     
    8    3    9 2     
    9    4   10 1     
   10    4   11 2     
   11    5   12 1     
   12    5   18 1     
   13    5   19 1     
   14    6   13 ar    
   15    6   20 1     
   16    7   14 ar    
   17    7   21 1     
   18    8   15 1     
   19    8   22 1     
   20   10   15 1     
   21   10   23 1     
   22   12   24 1     
   23   12   25 1     
   24   12   26 1     
   25   13   16 ar    
   26   13   27 1     
   27   14   16 ar    
   28   14   28 1     
   29   15   17 2     
   30   16   29 1     
@<TRIPOS>SUBSTRUCTURE
      1 RES1           1
@<TRIPOS>SET
DONOR_HYDROGENS      STATIC     ATOMS    <user>   **** ""
2 22 23
ATOM$RED        STATIC     ATOMS    COLORGROUP SYSTEM
2 22 23
@<TRIPOS>COMMENT
> <Gold.Version>
2022.3.0

> <Gold.Id.Protein>
unknown|7ts3_clean|pdb

> <Gold.Protein.RotatedTorsions>
[ 1244 1203 1204 1205 ] final  -29.51 input  115.91 | X-H torsion
[ 1316 1285 1286 1287 ] final  -49.94 input  116.80 | X-H torsion
[ 1474 1426 1427 1428 ] final  144.44 input   84.58 | X-H torsion
[ 1484 1434 1433 1432 ] final    7.92 input   60.01 | X-H torsion
[ 1526 1505 1506 1507 ] final  136.35 input   90.12 | X-H torsion
[ 3997 3964 3965 3966 ] final   55.70 input  106.83 | X-H torsion
[ 4216 4196 4195 4192 ] final -122.10 input   60.00 | X-H torsion
[ 6608 6572 6571 6569 ] final -161.33 input   60.00 | X-H torsion
[ 25713 25680 25681 25682 ] final  -94.40 input   66.88 | X-H torsion
[ 4080 4041 4042 4043 ] final  133.81 input  118.05 | X-H torsion
[ 4256 4235 4236 4237 ] final  144.52 input  121.49 | X-H torsion
[ 23722 23672 23673 23674 ] final   80.30 input   67.42 | X-H torsion
[ 23760 23747 23748 23749 ] final  153.50 input  -89.77 | X-H torsion
[ 4260 4240 4239 4236 ] final -107.97 input   60.02 | X-H torsion
[ 1178 1150 1148 1145 ] final    4.72 input   60.00 | X-H torsion
[ 25482 25446 25445 25443 ] final  129.89 input   60.01 | X-H torsion
[ 4422 4372 4371 4370 ] final   51.13 input   59.99 | X-H torsion
[ 23788 23775 23776 23777 ] final   22.30 input  -27.92 | X-H torsion
[ 27271 1147 1146 1145 ] final -157.82 input   -0.00 | X-H torsion
[ 27274 1206 1205 1204 ] final  -93.16 input    0.00 | X-H torsion
[ 27278 1429 1428 1427 ] final  -88.95 input    0.00 | X-H torsion
[ 27284 3967 3966 3965 ] final   52.59 input    0.00 | X-H torsion
[ 27291 23675 23674 23673 ] final  176.68 input    0.00 | X-H torsion
[ 27294 25683 25682 25681 ] final -143.90 input    0.00 | X-H torsion
[ 27296 1350 1349 1348 ] final   77.01 input    0.00 | X-H torsion
[ 27298 3703 3702 3701 ] final    3.16 input   -0.00 | X-H torsion
[ 27304 6798 6797 6796 ] final   10.45 input    0.00 | X-H torsion
[ 27307 23613 23612 23611 ] final  -55.59 input   -0.00 | X-H torsion
[ 27311 23778 23777 23776 ] final  -19.38 input   -0.00 | X-H torsion
[ 27313 4194 4193 4192 ] final  128.98 input    0.00 | X-H torsion

> <Gold.Protein.ActiveResidues>
 THR320  LEU321  HIS322  LEU323  LYS324  SER325  THR326  GLU365  PHE366  GLN369 
 TYR370  SER372  SER373  LYS375  TYR408  HIS412  ARG415  ASN416  TRP426  GLU670 
 CYS673  ARG674  GLY675  GLY676  TYR703  LEU705  THR706  PRO707 

> <Gold.Protein.RotatedAtoms>
  255.3955  380.6928 -103.0131 H   0  0  0  0  0  0  0  0  0  0  0  0  # atno 1178 bound_to 1150
  253.0230  380.2678 -101.3609 H   0  0  0  0  0  0  0  0  0  0  0  0  # atno 1244 bound_to 1203
  250.9521  381.5362 -100.7331 H   0  0  0  0  0  0  0  0  0  0  0  0  # atno 1316 bound_to 1285
  251.4548  382.9421  -97.7780 H   0  0  0  0  0  0  0  0  0  0  0  0  # atno 1474 bound_to 1426
  255.3098  384.1939  -98.2893 H   0  0  0  0  0  0  0  0  0  0  0  0  # atno 1484 bound_to 1434
  254.8124  383.2179  -99.5322 H   0  0  0  0  0  0  0  0  0  0  0  0  # atno 1485 bound_to 1434
  255.9500  384.3914  -99.8050 H   0  0  0  0  0  0  0  0  0  0  0  0  # atno 1486 bound_to 1434
  248.4149  383.1123  -97.7583 H   0  0  0  0  0  0  0  0  0  0  0  0  # atno 1526 bound_to 1505
  252.3413  395.9653  -96.9652 H   0  0  0  0  0  0  0  0  0  0  0  0  # atno 3997 bound_to 3964
  252.0322  396.8652  -98.7928 H   0  0  0  0  0  0  0  0  0  0  0  0  # atno 4080 bound_to 4041
  257.6805  392.3897  -99.8627 H   0  0  0  0  0  0  0  0  0  0  0  0  # atno 4216 bound_to 4196
  255.7991  395.4030 -101.2484 H   0  0  0  0  0  0  0  0  0  0  0  0  # atno 4256 bound_to 4235
  254.2239  397.4140 -102.9278 H   0  0  0  0  0  0  0  0  0  0  0  0  # atno 4260 bound_to 4240
  260.1889  393.1730 -104.5166 H   0  0  0  0  0  0  0  0  0  0  0  0  # atno 4422 bound_to 4372
  260.2149  392.9734 -106.1619 H   0  0  0  0  0  0  0  0  0  0  0  0  # atno 4423 bound_to 4372
  261.5591  392.6136 -105.2616 H   0  0  0  0  0  0  0  0  0  0  0  0  # atno 4424 bound_to 4372
  250.7815  394.1844 -102.2061 H   0  0  0  0  0  0  0  0  0  0  0  0  # atno 6608 bound_to 6572
  255.6973  384.8999 -108.8621 H   0  0  0  0  0  0  0  0  0  0  0  0  # atno 23722 bound_to 23672
  256.1778  383.9731 -106.1669 H   0  0  0  0  0  0  0  0  0  0  0  0  # atno 23760 bound_to 23747
  253.2552  382.8247 -106.5722 H   0  0  0  0  0  0  0  0  0  0  0  0  # atno 23788 bound_to 23775
  249.5933  380.3215 -104.1300 H   0  0  0  0  0  0  0  0  0  0  0  0  # atno 25482 bound_to 25446
  244.3577  388.7491 -100.6674 H   0  0  0  0  0  0  0  0  0  0  0  0  # atno 25713 bound_to 25680
  252.7398  381.1645  -99.5690 LP  0  0  0  0  0  0  0  0  0  0  0  0  # atno 27271 bound_to 1147
  254.2500  380.3825  -99.2407 LP  0  0  0  0  0  0  0  0  0  0  0  0  # atno 27272 bound_to 1147
  253.5135  380.9260 -102.9067 LP  0  0  0  0  0  0  0  0  0  0  0  0  # atno 27273 bound_to 1203
  250.7808  382.9388  -99.2785 LP  0  0  0  0  0  0  0  0  0  0  0  0  # atno 27274 bound_to 1206
  249.7902  383.4145 -100.6174 LP  0  0  0  0  0  0  0  0  0  0  0  0  # atno 27275 bound_to 1206
  250.8466  380.0060 -101.5695 LP  0  0  0  0  0  0  0  0  0  0  0  0  # atno 27276 bound_to 1285
  249.9321  382.4490  -97.0694 LP  0  0  0  0  0  0  0  0  0  0  0  0  # atno 27277 bound_to 1426
  248.1808  386.5362  -96.4532 LP  0  0  0  0  0  0  0  0  0  0  0  0  # atno 27278 bound_to 1429
  248.3225  386.4676  -98.1781 LP  0  0  0  0  0  0  0  0  0  0  0  0  # atno 27279 bound_to 1429
  248.4671  384.3997  -96.5773 LP  0  0  0  0  0  0  0  0  0  0  0  0  # atno 27280 bound_to 1505
  253.6261  394.9721  -96.3327 LP  0  0  0  0  0  0  0  0  0  0  0  0  # atno 27283 bound_to 3964
  254.0691  394.4973 -100.9597 LP  0  0  0  0  0  0  0  0  0  0  0  0  # atno 27284 bound_to 3967
  254.9602  395.9530 -100.6645 LP  0  0  0  0  0  0  0  0  0  0  0  0  # atno 27285 bound_to 3967
  258.4402  392.7317  -98.4651 LP  0  0  0  0  0  0  0  0  0  0  0  0  # atno 27286 bound_to 4196
  258.9089  393.4566  -99.8513 LP  0  0  0  0  0  0  0  0  0  0  0  0  # atno 27287 bound_to 4196
  252.3134  394.7336 -102.2168 LP  0  0  0  0  0  0  0  0  0  0  0  0  # atno 27288 bound_to 6572
  251.7260  393.9191 -103.5045 LP  0  0  0  0  0  0  0  0  0  0  0  0  # atno 27289 bound_to 6572
  254.7154  383.9097 -104.1643 LP  0  0  0  0  0  0  0  0  0  0  0  0  # atno 27291 bound_to 23675
  254.7234  385.6165 -104.4592 LP  0  0  0  0  0  0  0  0  0  0  0  0  # atno 27292 bound_to 23675
  244.9992  389.0361  -99.0737 LP  0  0  0  0  0  0  0  0  0  0  0  0  # atno 27293 bound_to 25680
  246.9562  392.1343  -99.9766 LP  0  0  0  0  0  0  0  0  0  0  0  0  # atno 27294 bound_to 25683
  246.6099  390.4539 -100.2134 LP  0  0  0  0  0  0  0  0  0  0  0  0  # atno 27295 bound_to 25683
  251.1829  382.6230  -94.5311 LP  0  0  0  0  0  0  0  0  0  0  0  0  # atno 27296 bound_to 1350
  249.4831  382.6012  -94.8630 LP  0  0  0  0  0  0  0  0  0  0  0  0  # atno 27297 bound_to 1350
  251.1670  393.7693  -95.2251 LP  0  0  0  0  0  0  0  0  0  0  0  0  # atno 27298 bound_to 3703
  250.5502  394.8875  -96.3952 LP  0  0  0  0  0  0  0  0  0  0  0  0  # atno 27299 bound_to 3703
  253.4557  396.0047  -99.3229 LP  0  0  0  0  0  0  0  0  0  0  0  0  # atno 27302 bound_to 4041
  257.4978  395.7987 -101.3644 LP  0  0  0  0  0  0  0  0  0  0  0  0  # atno 27303 bound_to 4235
  245.8964  391.2132 -106.2803 LP  0  0  0  0  0  0  0  0  0  0  0  0  # atno 27304 bound_to 6798
  244.1701  391.2969 -106.1671 LP  0  0  0  0  0  0  0  0  0  0  0  0  # atno 27305 bound_to 6798
  258.8514  386.3445 -107.1712 LP  0  0  0  0  0  0  0  0  0  0  0  0  # atno 27307 bound_to 23613
  257.4769  387.3902 -107.0398 LP  0  0  0  0  0  0  0  0  0  0  0  0  # atno 27308 bound_to 23613
  257.1080  385.6493 -108.1471 LP  0  0  0  0  0  0  0  0  0  0  0  0  # atno 27309 bound_to 23672
  254.9331  383.3467 -107.2190 LP  0  0  0  0  0  0  0  0  0  0  0  0  # atno 27310 bound_to 23747
  252.0360  383.7327 -107.3353 LP  0  0  0  0  0  0  0  0  0  0  0  0  # atno 27311 bound_to 23778
  250.6920  383.7846 -108.4265 LP  0  0  0  0  0  0  0  0  0  0  0  0  # atno 27312 bound_to 23778
  258.9064  394.5325 -102.5115 LP  0  0  0  0  0  0  0  0  0  0  0  0  # atno 27313 bound_to 4194
  259.6484  395.8036 -101.5983 LP  0  0  0  0  0  0  0  0  0  0  0  0  # atno 27314 bound_to 4194
  254.3657  397.4365 -104.5491 LP  0  0  0  0  0  0  0  0  0  0  0  0  # atno 27315 bound_to 4240
  255.6756  397.6939 -103.6085 LP  0  0  0  0  0  0  0  0  0  0  0  0  # atno 27316 bound_to 4240

> <Gold.Score>
     Fitness  S(hb_ext) S(vdw_ext)  S(hb_int)    S(int)      intcor
     40.03       6.68      24.84       0.00      -0.80      -0.79

> <Gold.Goldscore.Fitness>
40.0344

> <Gold.Goldscore.Internal.Vdw>
-0.9749

> <Gold.Goldscore.Internal.Torsion>
-0.6161

> <Gold.Goldscore.External.Vdw>
24.8419

> <Gold.Goldscore.Internal.HBond>
0.0000

> <Gold.Goldscore.External.HBond>
6.6766

> <Gold.Goldscore.Internal.Correction>
-0.7912

> <Gold.Goldscore.Hbonds>
donor molecule, donor type, donor heavy atom, donor atom, acceptor molecule, acceptor atom, score
      P1  H 23682 23734       L1     9  1.00
      L1  H     8    22       P1  6572  0.34

> <Gold.Goldscore.Internal.Vdw.Weighted>
-0.9749

> <Gold.Goldscore.Internal.Torsion.Weighted>
-0.6161

> <Gold.Goldscore.External.Vdw.Weighted>
34.1576

> <Gold.Goldscore.Internal.HBond.Weighted>
0.0000

> <Gold.Goldscore.External.HBond.Weighted>
6.6766

> <Gold.Goldscore.Internal.Correction.Weighted>
-0.7912

> <Gold.Rescore>
     Score     S(PLP)   S(hbond)     S(cho)   S(metal)  DE(clash)   DE(tors)     intcor
     36.17     -34.35       1.45       0.00       0.00       0.00       1.26       ----

> <Gold.PLP.Fitness>
36.1657

> <Gold.PLP.PLP>
-34.3526

> <Gold.PLP.part.hbond>
-2.9671

> <Gold.PLP.part.metal>
0.0000

> <Gold.PLP.part.buried>
-6.0729

> <Gold.PLP.part.nonpolar>
-29.5267

> <Gold.PLP.part.repulsive>
3.6820

> <Gold.PLP.ligand.clash>
0.0000

> <Gold.PLP.ligand.torsion>
1.2625

> <Gold.PLP.Chemscore.Hbond>
1.4461

> <Gold.PLP.Chemscore.CHOScore>
0.0000

> <Gold.PLP.Chemscore.Metal>
0.0000

> <Gold.Chemscore.Hbonds>
donor molecule, donor type, donor heavy atom, donor atom, acceptor molecule, acceptor atom, score
      L1  H     8    22       P1  6572  0.25
      P1  H 23682 23734       L1     9  0.75
      P1  H  4235  4256       L1    17  0.05

> <Gold.PLP.Chemscore.Internal.Correction>
   9.000000E+99

