#       Name:                CT1002167954
#       Creating user name   hitesit
#       Creation time:       Sun Apr 16 02:21:30 2023


#       File generated by GOLD software.
#

@<TRIPOS>MOLECULE
CT1002167954|ligand_prepared|mol2|1|dock7
    29    30     1
SMALL
NO_CHARGES


@<TRIPOS>ATOM
      1 C1           3.5615  11.1383  32.2511 C.3            1 RES1               0.0000
      2 C2           2.9456   9.9875  33.0727 C.ar           1 RES1               0.0000
      3 C3           4.4682  11.9091  33.2061 C.2            1 RES1               0.0000
      4 C4           4.2969  10.4849  31.0862 C.2            1 RES1               0.0000
      5 C5           2.5169  12.1180  31.6674 C.3            1 RES1               0.0000
      6 C6           3.5013   9.6107  34.2917 C.ar           1 RES1               0.0000
      7 C7           1.8223   9.2962  32.6267 C.ar           1 RES1               0.0000
      8 N8           5.8154  11.7561  33.0599 N.am           1 RES1               0.0000
      9 O9           4.0075  12.6095  34.0991 O.2            1 RES1               0.0000
     10 N10          5.6612  10.6039  31.0404 N.am           1 RES1               0.0000
     11 O11          3.7087   9.8540  30.2166 O.2            1 RES1               0.0000
     12 C12          3.1262  13.3624  31.0410 C.3            1 RES1               0.0000
     13 C13          2.9523   8.5822  35.0393 C.ar           1 RES1               0.0000
     14 C14          1.2749   8.2677  33.3758 C.ar           1 RES1               0.0000
     15 C15          6.4567  11.1837  31.9909 C.2            1 RES1               0.0000
     16 C16          1.8386   7.9103  34.5821 C.ar           1 RES1               0.0000
     17 O17          7.6812  11.2037  31.9055 O.2            1 RES1               0.0000
     18 H18          1.9265  11.5926  30.9066 H              1 RES1               0.0000
     19 H19          1.8338  12.4247  32.4691 H              1 RES1               0.0000
     20 H20          4.3793  10.1263  34.6664 H              1 RES1               0.0000
     21 H21          1.3627   9.5595  31.6801 H              1 RES1               0.0000
     22 H22          6.4003  12.0990  33.8154 H              1 RES1               0.0000
     23 H23          6.1271  10.2253  30.2219 H              1 RES1               0.0000
     24 H24          2.3502  14.0154  30.6472 H              1 RES1               0.0000
     25 H25          3.6999  13.9229  31.7762 H              1 RES1               0.0000
     26 H26          3.7921  13.0958  30.2229 H              1 RES1               0.0000
     27 H27          3.4004   8.3038  35.9874 H              1 RES1               0.0000
     28 H28          0.3987   7.7413  33.0119 H              1 RES1               0.0000
     29 H29          1.4084   7.1049  35.1682 H              1 RES1               0.0000
@<TRIPOS>BOND
    1    1    2 1     
    2    1    3 1     
    3    1    4 1     
    4    1    5 1     
    5    2    6 ar    
    6    2    7 ar    
    7    3    8 1     
    8    3    9 2     
    9    4   10 1     
   10    4   11 2     
   11    5   12 1     
   12    5   18 1     
   13    5   19 1     
   14    6   13 ar    
   15    6   20 1     
   16    7   14 ar    
   17    7   21 1     
   18    8   15 1     
   19    8   22 1     
   20   10   15 1     
   21   10   23 1     
   22   12   24 1     
   23   12   25 1     
   24   12   26 1     
   25   13   16 ar    
   26   13   27 1     
   27   14   16 ar    
   28   14   28 1     
   29   15   17 2     
   30   16   29 1     
@<TRIPOS>SUBSTRUCTURE
      1 RES1           1
@<TRIPOS>SET
DONOR_HYDROGENS      STATIC     ATOMS    <user>   **** ""
2 22 23
ATOM$RED        STATIC     ATOMS    COLORGROUP SYSTEM
2 22 23
@<TRIPOS>COMMENT
> <Gold.Version>
2022.3.0

> <Gold.Id.Protein>
unknown|1wbs_clean|pdb

> <Gold.Protein.RotatedTorsions>
[ 1700 1693 1691 1688 ] final -137.10 input   60.03 | X-H torsion

> <Gold.Protein.ActiveResidues>
 TRP18   VAL30   GLY31   GLY36   SER37   VAL38   CYS39   ALA40   ARG49   VAL50  
 ALA51   VAL52   LYS53   LYS54   LEU55   ARG67   THR68   ARG70   GLU71   LEU72  
 LEU74   LEU75   MET78   HIS80   ASN82   VAL83   ILE84   GLY85   LEU86   LEU87  
 ASP88   VAL89   TYR103  LEU104  VAL105  THR106  HIS107  LEU108  MET109  GLY110 
 ALA111  ASP112  GLY137  LEU138  TYR140  ILE141  HIS142  ALA144  ILE146  ILE147 
 HIS148  ARG149  ASP150  LEU151  SER154  ASN155  LEU156  ALA157  LYS165  ILE166 
 LEU167  ASP168  PHE169  GLY170  LEU171  ASP205 

> <Gold.Protein.RotatedAtoms>
    5.8488    6.6975   35.7248 H   0  0  0  0  0  0  0  0  0  0  0  0  # atno 1700 bound_to 1693
    7.4606    6.6531   35.9456 LP  0  0  0  0  0  0  0  0  0  0  0  0  # atno 5694 bound_to 1693
    6.6861    5.3675   35.3021 LP  0  0  0  0  0  0  0  0  0  0  0  0  # atno 5695 bound_to 1693

> <Gold.Score>
     Fitness  S(hb_ext) S(vdw_ext)  S(hb_int)    S(int)      intcor
     39.44       0.00      29.74       0.00      -1.46      -0.77

> <Gold.Goldscore.Fitness>
39.4363

> <Gold.Goldscore.Internal.Vdw>
-1.7284

> <Gold.Goldscore.Internal.Torsion>
-0.4934

> <Gold.Goldscore.External.Vdw>
29.7403

> <Gold.Goldscore.Internal.HBond>
0.0000

> <Gold.Goldscore.External.HBond>
0.0000

> <Gold.Goldscore.Internal.Correction>
-0.7653

> <Gold.Goldscore.Internal.Vdw.Weighted>
-1.7284

> <Gold.Goldscore.Internal.Torsion.Weighted>
-0.4934

> <Gold.Goldscore.External.Vdw.Weighted>
40.8929

> <Gold.Goldscore.Internal.HBond.Weighted>
0.0000

> <Gold.Goldscore.External.HBond.Weighted>
0.0000

> <Gold.Goldscore.Internal.Correction.Weighted>
-0.7653

> <Gold.Rescore>
     Score     S(PLP)   S(hbond)     S(cho)   S(metal)  DE(clash)   DE(tors)     intcor
     42.23     -44.69       0.00       0.00       0.00       1.21       0.62       ----

> <Gold.PLP.Fitness>
42.2308

> <Gold.PLP.PLP>
-44.6927

> <Gold.PLP.part.hbond>
0.0000

> <Gold.PLP.part.metal>
0.0000

> <Gold.PLP.part.buried>
-5.6301

> <Gold.PLP.part.nonpolar>
-41.0298

> <Gold.PLP.part.repulsive>
1.5289

> <Gold.PLP.ligand.clash>
1.2122

> <Gold.PLP.ligand.torsion>
0.6248

> <Gold.PLP.Chemscore.Hbond>
0.0000

> <Gold.PLP.Chemscore.CHOScore>
0.0000

> <Gold.PLP.Chemscore.Metal>
0.0000

> <Gold.PLP.Chemscore.Internal.Correction>
   9.000000E+99

