#       Name:                CT1002167954
#       Creating user name   hitesit
#       Creation time:       Sun Apr 16 02:21:31 2023


#       File generated by GOLD software.
#

@<TRIPOS>MOLECULE
CT1002167954|ligand_prepared|mol2|1|dock8
    29    30     1
SMALL
NO_CHARGES


@<TRIPOS>ATOM
      1 C1           6.4270  15.5241  41.2219 C.3            1 RES1               0.0000
      2 C2           6.7278  15.2511  39.7340 C.ar           1 RES1               0.0000
      3 C3           7.7796  15.6278  41.9204 C.2            1 RES1               0.0000
      4 C4           5.6058  16.8081  41.2625 C.2            1 RES1               0.0000
      5 C5           5.6041  14.4088  41.9078 C.3            1 RES1               0.0000
      6 C6           6.0830  14.2193  39.0584 C.ar           1 RES1               0.0000
      7 C7           7.6438  16.0229  39.0242 C.ar           1 RES1               0.0000
      8 N8           8.2022  16.8681  42.2982 N.am           1 RES1               0.0000
      9 O9           8.4826  14.6412  42.1014 O.2            1 RES1               0.0000
     10 N10          6.1652  17.9095  41.8555 N.am           1 RES1               0.0000
     11 O11          4.4860  16.8806  40.7716 O.2            1 RES1               0.0000
     12 C12          5.5228  14.5486  43.4198 C.3            1 RES1               0.0000
     13 C13          6.3423  13.9698  37.7209 C.ar           1 RES1               0.0000
     14 C14          7.9019  15.7715  37.6867 C.ar           1 RES1               0.0000
     15 C15          7.4381  18.0063  42.3479 C.2            1 RES1               0.0000
     16 C16          7.2515  14.7459  37.0341 C.ar           1 RES1               0.0000
     17 O17          7.8879  19.0478  42.8172 O.2            1 RES1               0.0000
     18 H18          4.5869  14.4171  41.4972 H              1 RES1               0.0000
     19 H19          6.0551  13.4382  41.6668 H              1 RES1               0.0000
     20 H20          5.3662  13.5964  39.5831 H              1 RES1               0.0000
     21 H21          8.1681  16.8343  39.5174 H              1 RES1               0.0000
     22 H22          9.1764  16.9578  42.5688 H              1 RES1               0.0000
     23 H23          5.5782  18.7336  41.9376 H              1 RES1               0.0000
     24 H24          4.9346  13.7411  43.8507 H              1 RES1               0.0000
     25 H25          6.5156  14.5190  43.8639 H              1 RES1               0.0000
     26 H26          5.0562  15.4921  43.6953 H              1 RES1               0.0000
     27 H27          5.8288  13.1606  37.2123 H              1 RES1               0.0000
     28 H28          8.6186  16.3845  37.1503 H              1 RES1               0.0000
     29 H29          7.4542  14.5506  35.9863 H              1 RES1               0.0000
@<TRIPOS>BOND
    1    1    2 1     
    2    1    3 1     
    3    1    4 1     
    4    1    5 1     
    5    2    6 ar    
    6    2    7 ar    
    7    3    8 1     
    8    3    9 2     
    9    4   10 1     
   10    4   11 2     
   11    5   12 1     
   12    5   18 1     
   13    5   19 1     
   14    6   13 ar    
   15    6   20 1     
   16    7   14 ar    
   17    7   21 1     
   18    8   15 1     
   19    8   22 1     
   20   10   15 1     
   21   10   23 1     
   22   12   24 1     
   23   12   25 1     
   24   12   26 1     
   25   13   16 ar    
   26   13   27 1     
   27   14   16 ar    
   28   14   28 1     
   29   15   17 2     
   30   16   29 1     
@<TRIPOS>SUBSTRUCTURE
      1 RES1           1
@<TRIPOS>SET
DONOR_HYDROGENS      STATIC     ATOMS    <user>   **** ""
2 22 23
ATOM$RED        STATIC     ATOMS    COLORGROUP SYSTEM
2 22 23
@<TRIPOS>COMMENT
> <Gold.Version>
2022.3.0

> <Gold.Id.Protein>
unknown|1wbs_clean|pdb

> <Gold.Protein.RotatedTorsions>
[ 1700 1693 1691 1688 ] final  -81.17 input   60.03 | X-H torsion

> <Gold.Protein.ActiveResidues>
 TRP18   VAL30   GLY31   GLY36   SER37   VAL38   CYS39   ALA40   ARG49   VAL50  
 ALA51   VAL52   LYS53   LYS54   LEU55   ARG67   THR68   ARG70   GLU71   LEU72  
 LEU74   LEU75   MET78   HIS80   ASN82   VAL83   ILE84   GLY85   LEU86   LEU87  
 ASP88   VAL89   TYR103  LEU104  VAL105  THR106  HIS107  LEU108  MET109  GLY110 
 ALA111  ASP112  GLY137  LEU138  TYR140  ILE141  HIS142  ALA144  ILE146  ILE147 
 HIS148  ARG149  ASP150  LEU151  SER154  ASN155  LEU156  ALA157  LYS165  ILE166 
 LEU167  ASP168  PHE169  GLY170  LEU171  ASP205 

> <Gold.Protein.RotatedAtoms>
    5.8393    5.8861   35.3889 H   0  0  0  0  0  0  0  0  0  0  0  0  # atno 1700 bound_to 1693
    6.7067    7.1085   36.0228 LP  0  0  0  0  0  0  0  0  0  0  0  0  # atno 5694 bound_to 1693
    7.4497    5.7290   35.5630 LP  0  0  0  0  0  0  0  0  0  0  0  0  # atno 5695 bound_to 1693

> <Gold.Score>
     Fitness  S(hb_ext) S(vdw_ext)  S(hb_int)    S(int)      intcor
     36.74       0.87      26.77       0.00      -0.94      -0.77

> <Gold.Goldscore.Fitness>
36.7427

> <Gold.Goldscore.Internal.Vdw>
-1.1562

> <Gold.Goldscore.Internal.Torsion>
-0.5465

> <Gold.Goldscore.External.Vdw>
26.7684

> <Gold.Goldscore.Internal.HBond>
0.0000

> <Gold.Goldscore.External.HBond>
0.8736

> <Gold.Goldscore.Internal.Correction>
-0.7653

> <Gold.Goldscore.Hbonds>
donor molecule, donor type, donor heavy atom, donor atom, acceptor molecule, acceptor atom, score
      L1  H    10    23       P1  2381  0.44

> <Gold.Goldscore.Internal.Vdw.Weighted>
-1.1562

> <Gold.Goldscore.Internal.Torsion.Weighted>
-0.5465

> <Gold.Goldscore.External.Vdw.Weighted>
36.8065

> <Gold.Goldscore.Internal.HBond.Weighted>
0.0000

> <Gold.Goldscore.External.HBond.Weighted>
0.8736

> <Gold.Goldscore.Internal.Correction.Weighted>
-0.7653

> <Gold.Rescore>
     Score     S(PLP)   S(hbond)     S(cho)   S(metal)  DE(clash)   DE(tors)     intcor
     27.70     -27.78       0.00       0.00       0.00       0.00       0.04       ----

> <Gold.PLP.Fitness>
27.6995

> <Gold.PLP.PLP>
-27.7793

> <Gold.PLP.part.hbond>
-0.1907

> <Gold.PLP.part.metal>
0.0000

> <Gold.PLP.part.buried>
9.7072

> <Gold.PLP.part.nonpolar>
-41.0043

> <Gold.PLP.part.repulsive>
2.9096

> <Gold.PLP.ligand.clash>
0.0000

> <Gold.PLP.ligand.torsion>
0.0399

> <Gold.PLP.Chemscore.Hbond>
0.0000

> <Gold.PLP.Chemscore.CHOScore>
0.0000

> <Gold.PLP.Chemscore.Metal>
0.0000

> <Gold.PLP.Chemscore.Internal.Correction>
   9.000000E+99

