#       Name:                CT1002167954
#       Creating user name   hitesit
#       Creation time:       Sun Apr 16 20:16:41 2023


#       File generated by GOLD software.
#

@<TRIPOS>MOLECULE
CT1002167954|ligand_prepared|mol2|1|dock1
    29    30     1
SMALL
NO_CHARGES


@<TRIPOS>ATOM
      1 C1         123.1914 245.8698 357.7424 C.3            1 RES1               0.0000
      2 C2         121.7510 246.1311 358.2282 C.ar           1 RES1               0.0000
      3 C3         124.1132 246.3282 358.8686 C.2            1 RES1               0.0000
      4 C4         123.2750 244.3780 357.4384 C.2            1 RES1               0.0000
      5 C5         123.5665 246.6413 356.4558 C.3            1 RES1               0.0000
      6 C6         121.0476 245.1498 358.9202 C.ar           1 RES1               0.0000
      7 C7         121.1147 247.3473 357.9945 C.ar           1 RES1               0.0000
      8 N8         124.7271 245.3654 359.6142 N.am           1 RES1               0.0000
      9 O9         124.2681 247.5161 359.1240 O.2            1 RES1               0.0000
     10 N10        124.1021 243.6098 358.2152 N.am           1 RES1               0.0000
     11 O11        122.6194 243.8581 356.5439 O.2            1 RES1               0.0000
     12 C12        124.8876 246.2048 355.8423 C.3            1 RES1               0.0000
     13 C13        119.7558 245.3770 359.3652 C.ar           1 RES1               0.0000
     14 C14        119.8227 247.5723 358.4402 C.ar           1 RES1               0.0000
     15 C15        124.8085 244.0305 359.3089 C.2            1 RES1               0.0000
     16 C16        119.1427 246.5884 359.1259 C.ar           1 RES1               0.0000
     17 O17        125.4881 243.2681 359.9901 O.2            1 RES1               0.0000
     18 H18        122.7697 246.5011 355.7150 H              1 RES1               0.0000
     19 H19        123.6224 247.7117 356.6895 H              1 RES1               0.0000
     20 H20        121.5128 244.1894 359.1157 H              1 RES1               0.0000
     21 H21        121.6300 248.1355 357.4562 H              1 RES1               0.0000
     22 H22        125.1662 245.6655 360.4787 H              1 RES1               0.0000
     23 H23        124.2005 242.6339 357.9538 H              1 RES1               0.0000
     24 H24        125.1029 246.7775 354.9426 H              1 RES1               0.0000
     25 H25        125.7064 246.3541 356.5430 H              1 RES1               0.0000
     26 H26        124.8588 245.1507 355.5743 H              1 RES1               0.0000
     27 H27        119.2244 244.5989 359.9032 H              1 RES1               0.0000
     28 H28        119.3438 248.5270 358.2491 H              1 RES1               0.0000
     29 H29        118.1309 246.7663 359.4749 H              1 RES1               0.0000
@<TRIPOS>BOND
    1    1    2 1     
    2    1    3 1     
    3    1    4 1     
    4    1    5 1     
    5    2    6 ar    
    6    2    7 ar    
    7    3    8 1     
    8    3    9 2     
    9    4   10 1     
   10    4   11 2     
   11    5   12 1     
   12    5   18 1     
   13    5   19 1     
   14    6   13 ar    
   15    6   20 1     
   16    7   14 ar    
   17    7   21 1     
   18    8   15 1     
   19    8   22 1     
   20   10   15 1     
   21   10   23 1     
   22   12   24 1     
   23   12   25 1     
   24   12   26 1     
   25   13   16 ar    
   26   13   27 1     
   27   14   16 ar    
   28   14   28 1     
   29   15   17 2     
   30   16   29 1     
@<TRIPOS>SUBSTRUCTURE
      1 RES1           1
@<TRIPOS>SET
DONOR_HYDROGENS      STATIC     ATOMS    <user>   **** ""
2 22 23
ATOM$RED        STATIC     ATOMS    COLORGROUP SYSTEM
2 22 23
@<TRIPOS>COMMENT
> <Gold.Version>
2022.3.0

> <Gold.Id.Protein>
unknown|4uh6_clean|pdb

> <Gold.Protein.RotatedTorsions>
[ 9103 9086 9085 9083 ] final  -21.99 input   60.02 | X-H torsion
[ 9012 8996 8995 8992 ] final   92.32 input   59.99 | X-H torsion
[ 8362 8332 8331 8329 ] final -156.24 input   59.98 | X-H torsion
[ 5561 5545 5544 5541 ] final  -65.54 input   59.99 | X-H torsion
[ 8509 8500 8499 8496 ] final -164.70 input   60.00 | X-H torsion
[ 12897 12876 12875 12873 ] final  114.65 input   59.99 | X-H torsion
[ 13481 13433 13432 13428 ] final   38.77 input   60.03 | X-H torsion
[ 9185 9171 9169 9166 ] final   75.88 input   60.01 | X-H torsion

> <Gold.Protein.ActiveResidues>
 TRP311  MET341  HIS342  TRP414  ARG419  CYS420  VAL421  GLY422  LEU429  LEU460 
 SER462  ALA463  ILE464  ASN481  SER482  GLN483  LEU484  ILE485  ARG486  ASP500 
 ALA502  ASN503  TRP566  TYR567  GLY568  LEU569  PRO570  ALA571  VAL572  SER573 
 ASN574  MET575  PRO588  PHE589  SER590  GLY591  TRP592  TYR593  MET594  GLY595 
 THR596  GLU597  ILE598  VAL600  ARG601  ASP602  TYR603  ASP605  ARG608  ILE653 
 VAL654  TRP683  PRO687  SER691  PHE696  HIS697  TYR711  HEM750  H4B760 

> <Gold.Protein.RotatedAtoms>
  128.3204  249.9746  363.2894 H   0  0  0  0  0  0  0  0  0  0  0  0  # atno 5561 bound_to 5545
  125.1552  243.4304  362.3444 H   0  0  0  0  0  0  0  0  0  0  0  0  # atno 8362 bound_to 8332
  124.3829  250.4610  367.7489 H   0  0  0  0  0  0  0  0  0  0  0  0  # atno 8509 bound_to 8500
  115.1310  244.3666  368.3150 H   0  0  0  0  0  0  0  0  0  0  0  0  # atno 9012 bound_to 8996
  122.8959  242.1108  360.1463 H   0  0  0  0  0  0  0  0  0  0  0  0  # atno 9103 bound_to 9086
  118.2412  240.6398  351.6024 H   0  0  0  0  0  0  0  0  0  0  0  0  # atno 9185 bound_to 9171
  119.5751  255.1266  354.4052 H   0  0  0  0  0  0  0  0  0  0  0  0  # atno 12897 bound_to 12876
  123.9650  249.6911  346.1682 H   0  0  0  0  0  0  0  0  0  0  0  0  # atno 13481 bound_to 13433
  123.2387  241.0765  361.3550 LP  0  0  0  0  0  0  0  0  0  0  0  0  # atno 13496 bound_to 9086
  122.3582  242.4195  361.6509 LP  0  0  0  0  0  0  0  0  0  0  0  0  # atno 13497 bound_to 9086
  114.8448  245.9583  368.4944 LP  0  0  0  0  0  0  0  0  0  0  0  0  # atno 13516 bound_to 8996
  116.0512  245.2433  369.3310 LP  0  0  0  0  0  0  0  0  0  0  0  0  # atno 13517 bound_to 8996
  125.6562  242.3173  361.2680 LP  0  0  0  0  0  0  0  0  0  0  0  0  # atno 13530 bound_to 8332
  126.7038  242.9304  362.3603 LP  0  0  0  0  0  0  0  0  0  0  0  0  # atno 13531 bound_to 8332
  127.9250  250.0041  361.7115 LP  0  0  0  0  0  0  0  0  0  0  0  0  # atno 13538 bound_to 5545
  126.8711  249.4123  362.8095 LP  0  0  0  0  0  0  0  0  0  0  0  0  # atno 13539 bound_to 5545
  124.6224  251.9100  367.0477 LP  0  0  0  0  0  0  0  0  0  0  0  0  # atno 13551 bound_to 8500
  123.8281  250.7317  366.2431 LP  0  0  0  0  0  0  0  0  0  0  0  0  # atno 13552 bound_to 8500
  120.6000  254.2282  355.2946 LP  0  0  0  0  0  0  0  0  0  0  0  0  # atno 13567 bound_to 12876
  121.1210  254.9528  353.9271 LP  0  0  0  0  0  0  0  0  0  0  0  0  # atno 13568 bound_to 12876
  125.0505  250.0816  347.3162 LP  0  0  0  0  0  0  0  0  0  0  0  0  # atno 13569 bound_to 13433
  125.1499  250.7547  345.8317 LP  0  0  0  0  0  0  0  0  0  0  0  0  # atno 13570 bound_to 13433

> <Gold.Score>
     Fitness  S(hb_ext) S(vdw_ext)  S(hb_int)    S(int)      intcor
     37.57       5.86      23.42       0.00      -0.48      -0.77

> <Gold.Goldscore.Fitness>
37.5727

> <Gold.Goldscore.Internal.Vdw>
-0.7246

> <Gold.Goldscore.Internal.Torsion>
-0.5249

> <Gold.Goldscore.External.Vdw>
23.4155

> <Gold.Goldscore.Internal.HBond>
0.0000

> <Gold.Goldscore.External.HBond>
5.8572

> <Gold.Goldscore.Internal.Correction>
-0.7686

> <Gold.Goldscore.Hbonds>
donor molecule, donor type, donor heavy atom, donor atom, acceptor molecule, acceptor atom, score
      P1  H  5679  5715       L1    17  0.26
      L1  H     8    22       P1  5570  0.05
      L1  H    10    23       P1  9362  0.70

> <Gold.Goldscore.Internal.Vdw.Weighted>
-0.7246

> <Gold.Goldscore.Internal.Torsion.Weighted>
-0.5249

> <Gold.Goldscore.External.Vdw.Weighted>
32.1964

> <Gold.Goldscore.Internal.HBond.Weighted>
0.0000

> <Gold.Goldscore.External.HBond.Weighted>
5.8572

> <Gold.Goldscore.Internal.Correction.Weighted>
-0.7686

> <Gold.Rescore>
     Score     S(PLP)   S(hbond)     S(cho)   S(metal)  DE(clash)   DE(tors)     intcor
     22.61     -19.56       1.53       0.00       0.00       0.00       0.77       ----

> <Gold.PLP.Fitness>
22.6103

> <Gold.PLP.PLP>
-19.5579

> <Gold.PLP.part.hbond>
-4.0100

> <Gold.PLP.part.metal>
0.0000

> <Gold.PLP.part.buried>
5.9610

> <Gold.PLP.part.nonpolar>
-26.2355

> <Gold.PLP.part.repulsive>
2.2214

> <Gold.PLP.ligand.clash>
0.0000

> <Gold.PLP.ligand.torsion>
0.7726

> <Gold.PLP.Chemscore.Hbond>
1.5325

> <Gold.PLP.Chemscore.CHOScore>
0.0000

> <Gold.PLP.Chemscore.Metal>
0.0000

> <Gold.Chemscore.Hbonds>
donor molecule, donor type, donor heavy atom, donor atom, acceptor molecule, acceptor atom, score
      L1  H     8    22       P1  5570  0.37
      L1  H    10    23       P1  9362  0.45

> <Gold.PLP.Chemscore.Internal.Correction>
   9.000000E+99

