#       Name:                CT1002167954
#       Creating user name   hitesit
#       Creation time:       Sun Apr 16 20:16:44 2023


#       File generated by GOLD software.
#

@<TRIPOS>MOLECULE
CT1002167954|ligand_prepared|mol2|1|dock4
    29    30     1
SMALL
NO_CHARGES


@<TRIPOS>ATOM
      1 C1         123.3018 245.5101 357.7349 C.3            1 RES1               0.0000
      2 C2         123.7070 245.8394 356.2836 C.ar           1 RES1               0.0000
      3 C3         123.3554 243.9904 357.8604 C.2            1 RES1               0.0000
      4 C4         124.2930 246.2438 358.6315 C.2            1 RES1               0.0000
      5 C5         121.8780 245.9840 358.1088 C.3            1 RES1               0.0000
      6 C6         122.7949 245.6933 355.2427 C.ar           1 RES1               0.0000
      7 C7         124.9861 246.2919 355.9711 C.ar           1 RES1               0.0000
      8 N8         124.3935 243.4505 358.5609 N.am           1 RES1               0.0000
      9 O9         122.5214 243.2748 357.3195 O.2            1 RES1               0.0000
     10 N10        125.1443 245.4915 359.3978 N.am           1 RES1               0.0000
     11 O11        124.3558 247.4664 358.6688 O.2            1 RES1               0.0000
     12 C12        121.5677 245.8806 359.5938 C.3            1 RES1               0.0000
     13 C13        123.1478 245.9917 353.9370 C.ar           1 RES1               0.0000
     14 C14        125.3370 246.5895 354.6646 C.ar           1 RES1               0.0000
     15 C15        125.2602 244.1282 359.3801 C.2            1 RES1               0.0000
     16 C16        124.4187 246.4403 353.6471 C.ar           1 RES1               0.0000
     17 O17        126.0878 243.5264 360.0584 O.2            1 RES1               0.0000
     18 H18        121.7597 247.0285 357.7952 H              1 RES1               0.0000
     19 H19        121.1483 245.3823 357.5530 H              1 RES1               0.0000
     20 H20        121.7909 245.3392 355.4513 H              1 RES1               0.0000
     21 H21        125.7253 246.4158 356.7552 H              1 RES1               0.0000
     22 H22        124.5388 242.4503 358.4669 H              1 RES1               0.0000
     23 H23        125.7473 245.9943 360.0411 H              1 RES1               0.0000
     24 H24        120.5569 246.2255 359.8015 H              1 RES1               0.0000
     25 H25        121.6511 244.8507 359.9346 H              1 RES1               0.0000
     26 H26        122.2589 246.4871 360.1754 H              1 RES1               0.0000
     27 H27        122.4218 245.8713 353.1397 H              1 RES1               0.0000
     28 H28        126.3386 246.9417 354.4410 H              1 RES1               0.0000
     29 H29        124.6948 246.6743 352.6243 H              1 RES1               0.0000
@<TRIPOS>BOND
    1    1    2 1     
    2    1    3 1     
    3    1    4 1     
    4    1    5 1     
    5    2    6 ar    
    6    2    7 ar    
    7    3    8 1     
    8    3    9 2     
    9    4   10 1     
   10    4   11 2     
   11    5   12 1     
   12    5   18 1     
   13    5   19 1     
   14    6   13 ar    
   15    6   20 1     
   16    7   14 ar    
   17    7   21 1     
   18    8   15 1     
   19    8   22 1     
   20   10   15 1     
   21   10   23 1     
   22   12   24 1     
   23   12   25 1     
   24   12   26 1     
   25   13   16 ar    
   26   13   27 1     
   27   14   16 ar    
   28   14   28 1     
   29   15   17 2     
   30   16   29 1     
@<TRIPOS>SUBSTRUCTURE
      1 RES1           1
@<TRIPOS>SET
DONOR_HYDROGENS      STATIC     ATOMS    <user>   **** ""
2 22 23
ATOM$RED        STATIC     ATOMS    COLORGROUP SYSTEM
2 22 23
@<TRIPOS>COMMENT
> <Gold.Version>
2022.3.0

> <Gold.Id.Protein>
unknown|4uh6_clean|pdb

> <Gold.Protein.RotatedTorsions>
[ 9103 9086 9085 9083 ] final  -34.30 input   60.02 | X-H torsion
[ 9012 8996 8995 8992 ] final  -14.75 input   59.99 | X-H torsion
[ 8362 8332 8331 8329 ] final -161.52 input   59.98 | X-H torsion
[ 5561 5545 5544 5541 ] final  -30.31 input   59.99 | X-H torsion
[ 8509 8500 8499 8496 ] final -106.91 input   60.00 | X-H torsion
[ 12897 12876 12875 12873 ] final -165.61 input   59.99 | X-H torsion
[ 13481 13433 13432 13428 ] final   67.40 input   60.03 | X-H torsion
[ 9185 9171 9169 9166 ] final -143.23 input   60.01 | X-H torsion

> <Gold.Protein.ActiveResidues>
 TRP311  MET341  HIS342  TRP414  ARG419  CYS420  VAL421  GLY422  LEU429  LEU460 
 SER462  ALA463  ILE464  ASN481  SER482  GLN483  LEU484  ILE485  ARG486  ASP500 
 ALA502  ASN503  TRP566  TYR567  GLY568  LEU569  PRO570  ALA571  VAL572  SER573 
 ASN574  MET575  PRO588  PHE589  SER590  GLY591  TRP592  TYR593  MET594  GLY595 
 THR596  GLU597  ILE598  VAL600  ARG601  ASP602  TYR603  ASP605  ARG608  ILE653 
 VAL654  TRP683  PRO687  SER691  PHE696  HIS697  TYR711  HEM750  H4B760 

> <Gold.Protein.RotatedAtoms>
  127.8595  249.7468  363.5271 H   0  0  0  0  0  0  0  0  0  0  0  0  # atno 5561 bound_to 5545
  125.1027  243.3958  362.2852 H   0  0  0  0  0  0  0  0  0  0  0  0  # atno 8362 bound_to 8332
  123.9477  250.1567  367.0159 H   0  0  0  0  0  0  0  0  0  0  0  0  # atno 8509 bound_to 8500
  114.7435  245.8203  368.3696 H   0  0  0  0  0  0  0  0  0  0  0  0  # atno 9012 bound_to 8996
  123.0020  241.9411  360.1308 H   0  0  0  0  0  0  0  0  0  0  0  0  # atno 9103 bound_to 9086
  117.0239  239.7219  350.7137 H   0  0  0  0  0  0  0  0  0  0  0  0  # atno 9185 bound_to 9171
  120.5722  255.2436  353.7467 H   0  0  0  0  0  0  0  0  0  0  0  0  # atno 12897 bound_to 12876
  124.0845  249.9352  345.7935 H   0  0  0  0  0  0  0  0  0  0  0  0  # atno 13481 bound_to 13433
  123.1629  241.1324  361.5339 LP  0  0  0  0  0  0  0  0  0  0  0  0  # atno 13496 bound_to 9086
  122.3272  242.5346  361.4876 LP  0  0  0  0  0  0  0  0  0  0  0  0  # atno 13497 bound_to 9086
  115.9966  245.4483  369.3387 LP  0  0  0  0  0  0  0  0  0  0  0  0  # atno 13516 bound_to 8996
  115.2898  244.2888  368.4317 LP  0  0  0  0  0  0  0  0  0  0  0  0  # atno 13517 bound_to 8996
  125.7395  242.2929  361.2718 LP  0  0  0  0  0  0  0  0  0  0  0  0  # atno 13530 bound_to 8332
  126.6733  242.9897  362.4160 LP  0  0  0  0  0  0  0  0  0  0  0  0  # atno 13531 bound_to 8332
  128.3697  250.1530  362.0366 LP  0  0  0  0  0  0  0  0  0  0  0  0  # atno 13538 bound_to 5545
  126.8907  249.4929  362.2450 LP  0  0  0  0  0  0  0  0  0  0  0  0  # atno 13539 bound_to 5545
  124.7345  251.3656  367.7697 LP  0  0  0  0  0  0  0  0  0  0  0  0  # atno 13551 bound_to 8500
  124.1540  251.5825  366.2589 LP  0  0  0  0  0  0  0  0  0  0  0  0  # atno 13552 bound_to 8500
  119.5782  254.7717  354.9459 LP  0  0  0  0  0  0  0  0  0  0  0  0  # atno 13567 bound_to 12876
  121.1390  254.2915  354.9387 LP  0  0  0  0  0  0  0  0  0  0  0  0  # atno 13568 bound_to 12876
  124.6814  249.7973  347.3012 LP  0  0  0  0  0  0  0  0  0  0  0  0  # atno 13569 bound_to 13433
  125.3987  250.7932  346.2240 LP  0  0  0  0  0  0  0  0  0  0  0  0  # atno 13570 bound_to 13433

> <Gold.Score>
     Fitness  S(hb_ext) S(vdw_ext)  S(hb_int)    S(int)      intcor
     40.90       7.61      24.95       0.00      -1.02      -0.76

> <Gold.Goldscore.Fitness>
40.8992

> <Gold.Goldscore.Internal.Vdw>
-1.2553

> <Gold.Goldscore.Internal.Torsion>
-0.5227

> <Gold.Goldscore.External.Vdw>
24.9534

> <Gold.Goldscore.Internal.HBond>
0.0000

> <Gold.Goldscore.External.HBond>
7.6077

> <Gold.Goldscore.Internal.Correction>
-0.7585

> <Gold.Goldscore.Hbonds>
donor molecule, donor type, donor heavy atom, donor atom, acceptor molecule, acceptor atom, score
      P1  H  5679  5715       L1    17  0.81
      P1  H  5682  5719       L1    17  0.01
      L1  H     8    22       P1  9362  0.44

> <Gold.Goldscore.Internal.Vdw.Weighted>
-1.2553

> <Gold.Goldscore.Internal.Torsion.Weighted>
-0.5227

> <Gold.Goldscore.External.Vdw.Weighted>
34.3110

> <Gold.Goldscore.Internal.HBond.Weighted>
0.0000

> <Gold.Goldscore.External.HBond.Weighted>
7.6077

> <Gold.Goldscore.Internal.Correction.Weighted>
-0.7585

> <Gold.Rescore>
     Score     S(PLP)   S(hbond)     S(cho)   S(metal)  DE(clash)   DE(tors)     intcor
     24.42     -20.67       1.74       0.00       0.00       1.39       0.05       ----

> <Gold.PLP.Fitness>
24.4165

> <Gold.PLP.PLP>
-20.6733

> <Gold.PLP.part.hbond>
-4.9191

> <Gold.PLP.part.metal>
0.0000

> <Gold.PLP.part.buried>
1.0284

> <Gold.PLP.part.nonpolar>
-24.1052

> <Gold.PLP.part.repulsive>
5.8521

> <Gold.PLP.ligand.clash>
1.3908

> <Gold.PLP.ligand.torsion>
0.0460

> <Gold.PLP.Chemscore.Hbond>
1.7420

> <Gold.PLP.Chemscore.CHOScore>
0.0000

> <Gold.PLP.Chemscore.Metal>
0.0000

> <Gold.Chemscore.Hbonds>
donor molecule, donor type, donor heavy atom, donor atom, acceptor molecule, acceptor atom, score
      L1  H     8    22       P1  9362  0.55
      P1  H  5679  5715       L1    17  0.86

> <Gold.PLP.Chemscore.Internal.Correction>
   9.000000E+99

