#       Name:                CT1002167954
#       Creating user name   hitesit
#       Creation time:       Sun Apr 16 20:31:18 2023


#       File generated by GOLD software.
#

@<TRIPOS>MOLECULE
CT1002167954|ligand_prepared|mol2|1|dock9
    29    30     1
SMALL
NO_CHARGES


@<TRIPOS>ATOM
      1 C1         249.8650  12.5707  36.1754 C.3            1 RES1               0.0000
      2 C2         249.6067  11.0536  36.2782 C.ar           1 RES1               0.0000
      3 C3         251.0388  12.7414  35.2156 C.2            1 RES1               0.0000
      4 C4         248.5630  13.1926  35.6828 C.2            1 RES1               0.0000
      5 C5         250.2318  13.2347  37.5230 C.3            1 RES1               0.0000
      6 C6         248.7214  10.5480  37.2254 C.ar           1 RES1               0.0000
      7 C7         250.2433  10.1491  35.4324 C.ar           1 RES1               0.0000
      8 N8         250.7687  13.2127  33.9646 N.am           1 RES1               0.0000
      9 O9         252.1786  12.4300  35.5383 O.2            1 RES1               0.0000
     10 N10        248.5595  13.7782  34.4439 N.am           1 RES1               0.0000
     11 O11        247.5357  13.1662  36.3493 O.2            1 RES1               0.0000
     12 C12        250.6650  14.6865  37.3933 C.3            1 RES1               0.0000
     13 C13        248.4788   9.1878  37.3218 C.ar           1 RES1               0.0000
     14 C14        249.9994   8.7891  35.5306 C.ar           1 RES1               0.0000
     15 C15        249.5952  13.7893  33.5498 C.2            1 RES1               0.0000
     16 C16        249.1172   8.3076  36.4743 C.ar           1 RES1               0.0000
     17 O17        249.4984  14.2886  32.4324 O.2            1 RES1               0.0000
     18 H18        249.3623  13.1839  38.1899 H              1 RES1               0.0000
     19 H19        251.0449  12.6639  37.9882 H              1 RES1               0.0000
     20 H20        248.2116  11.2252  37.9026 H              1 RES1               0.0000
     21 H21        250.9421  10.5052  34.6831 H              1 RES1               0.0000
     22 H22        251.5075  13.1285  33.2737 H              1 RES1               0.0000
     23 H23        247.7059  14.2496  34.1622 H              1 RES1               0.0000
     24 H24        250.9109  15.1041  38.3674 H              1 RES1               0.0000
     25 H25        251.5432  14.7716  36.7567 H              1 RES1               0.0000
     26 H26        249.8706  15.2886  36.9572 H              1 RES1               0.0000
     27 H27        247.7847   8.8138  38.0671 H              1 RES1               0.0000
     28 H28        250.5045   8.1000  34.8619 H              1 RES1               0.0000
     29 H29        248.9267   7.2421  36.5497 H              1 RES1               0.0000
@<TRIPOS>BOND
    1    1    2 1     
    2    1    3 1     
    3    1    4 1     
    4    1    5 1     
    5    2    6 ar    
    6    2    7 ar    
    7    3    8 1     
    8    3    9 2     
    9    4   10 1     
   10    4   11 2     
   11    5   12 1     
   12    5   18 1     
   13    5   19 1     
   14    6   13 ar    
   15    6   20 1     
   16    7   14 ar    
   17    7   21 1     
   18    8   15 1     
   19    8   22 1     
   20   10   15 1     
   21   10   23 1     
   22   12   24 1     
   23   12   25 1     
   24   12   26 1     
   25   13   16 ar    
   26   13   27 1     
   27   14   16 ar    
   28   14   28 1     
   29   15   17 2     
   30   16   29 1     
@<TRIPOS>SUBSTRUCTURE
      1 RES1           1
@<TRIPOS>SET
DONOR_HYDROGENS      STATIC     ATOMS    <user>   **** ""
2 22 23
ATOM$RED        STATIC     ATOMS    COLORGROUP SYSTEM
2 22 23
@<TRIPOS>COMMENT
> <Gold.Version>
2022.3.0

> <Gold.Id.Protein>
unknown|4v3u_clean|pdb

> <Gold.Protein.RotatedTorsions>
[  581  535  534  533 ] final  -13.55 input   59.97 | X-H torsion
[ 2566 2531 2532 2533 ] final   61.07 input  112.83 | X-H torsion
[ 2636 2605 2606 2607 ] final  138.74 input   41.41 | X-H torsion
[ 26091 26055 26054 26052 ] final   50.16 input   60.03 | X-H torsion
[ 27194 27136 27135 27131 ] final -121.11 input   60.01 | X-H torsion
[  729  681  682  683 ] final   89.76 input  102.19 | X-H torsion
[ 7435 7417 7418 7419 ] final -121.77 input   81.33 | X-H torsion
[ 7494 7460 7461 7462 ] final   81.86 input  103.22 | X-H torsion
[ 7528 7515 7516 7517 ] final  112.82 input   88.53 | X-H torsion
[ 17198 17178 17179 17180 ] final  135.28 input   47.40 | X-H torsion
[ 17258 17224 17225 17226 ] final  144.55 input  102.98 | X-H torsion
[ 18298 18277 18278 18279 ] final   50.82 input   30.52 | X-H torsion
[ 18328 18315 18316 18317 ] final    9.18 input   53.77 | X-H torsion
[ 18417 18373 18374 18375 ] final  158.01 input   42.60 | X-H torsion
[ 18502 18463 18464 18465 ] final -121.96 input  104.04 | X-H torsion
[ 18570 18535 18536 18537 ] final -163.84 input   89.36 | X-H torsion
[ 18510 18474 18473 18471 ] final  -29.97 input   60.01 | X-H torsion
[ 17306 17285 17286 17287 ] final   73.19 input   49.80 | X-H torsion
[ 18250 18212 18213 18214 ] final   20.31 input   46.53 | X-H torsion
[ 18302 18282 18281 18278 ] final   13.98 input   59.98 | X-H torsion
[ 10118 10098 10097 10094 ] final   33.74 input   59.98 | X-H torsion
[ 17002 16966 16965 16963 ] final  -68.11 input   59.99 | X-H torsion
[ 11499 11466 11467 11468 ] final    1.24 input   46.07 | X-H torsion
[ 11572 11531 11532 11533 ] final  -48.43 input  118.20 | X-H torsion
[ 11648 11607 11608 11609 ] final   39.81 input   50.96 | X-H torsion
[ 11438 11418 11417 11414 ] final  120.42 input   60.01 | X-H torsion
[ 27196 27138 27137 27135 ] final  105.03 input   60.02 | X-H torsion
[ 19310 19290 19289 19286 ] final -106.73 input   60.00 | X-H torsion
[ 10154 10134 10135 10136 ] final   63.60 input   25.69 | X-H torsion
[ 17361 17335 17336 17337 ] final -163.74 input   65.66 | X-H torsion
[ 27200  684  683  682 ] final   93.25 input    0.00 | X-H torsion
[ 27203 2534 2533 2532 ] final  -75.21 input    0.00 | X-H torsion
[ 27226 7339 7338 7337 ] final  167.14 input    0.00 | X-H torsion
[ 27232 17131 17130 17129 ] final -120.89 input    0.00 | X-H torsion
[ 27236 18215 18214 18213 ] final -130.77 input    0.00 | X-H torsion
[ 27239 18280 18279 18278 ] final  174.73 input    0.00 | X-H torsion
[ 27242 18318 18317 18316 ] final  -78.42 input    0.00 | X-H torsion
[ 27245 18376 18375 18374 ] final  -42.84 input   -0.00 | X-H torsion
[ 27253 17181 17180 17179 ] final  -14.48 input    0.00 | X-H torsion
[ 27255 17058 17057 17056 ] final   99.11 input    0.00 | X-H torsion
[ 27257 17227 17226 17225 ] final  116.24 input   -0.00 | X-H torsion
[ 27267 10137 10136 10135 ] final   44.78 input    0.00 | X-H torsion
[ 27269 11416 11415 11414 ] final   22.17 input    0.00 | X-H torsion
[ 27275 11610 11609 11608 ] final -142.99 input    0.00 | X-H torsion
[ 27284 18693 18692 18691 ] final  -99.37 input    0.00 | X-H torsion

> <Gold.Protein.ActiveResidues>
 LYS309  TRP311  GLU314  MET341  HIS342  TRP414  ALA417  ARG419  CYS420  VAL421 
 GLY422  ARG423  SER462  ALA463  SER482  GLN483  LEU484  ILE485  ARG486  ALA502 
 TRP566  TYR567  LEU569  PRO570  ALA571  VAL572  SER573  ASN574  MET575  PHE589 
 SER590  GLY591  TRP592  TYR593  MET594  GLU597  ILE598  ARG601  ASP602  ASP605 
 SER607  ARG608  TRP683  HIS697  GLU699  TYR711  HEM750  H4B760 

> <Gold.Protein.RotatedAtoms>
  245.9734   24.4150   41.7191 H   0  0  0  0  0  0  0  0  0  0  0  0  # atno 581  bound_to 535 
  247.4474   24.2608   40.9762 H   0  0  0  0  0  0  0  0  0  0  0  0  # atno 582  bound_to 535 
  247.1517   25.5529   41.9709 H   0  0  0  0  0  0  0  0  0  0  0  0  # atno 583  bound_to 535 
  245.0251   24.4864   33.7911 H   0  0  0  0  0  0  0  0  0  0  0  0  # atno 729  bound_to 681 
  239.3118   20.4576   38.7496 H   0  0  0  0  0  0  0  0  0  0  0  0  # atno 2566 bound_to 2531
  240.4443   19.0884   40.6000 H   0  0  0  0  0  0  0  0  0  0  0  0  # atno 2636 bound_to 2605
  240.4778    6.8747   35.4473 H   0  0  0  0  0  0  0  0  0  0  0  0  # atno 7435 bound_to 7417
  242.3702    4.7039   32.6230 H   0  0  0  0  0  0  0  0  0  0  0  0  # atno 7494 bound_to 7460
  242.7171    2.5557   32.8269 H   0  0  0  0  0  0  0  0  0  0  0  0  # atno 7528 bound_to 7515
  248.7156   -4.7913   35.9178 H   0  0  0  0  0  0  0  0  0  0  0  0  # atno 10118 bound_to 10098
  250.5667   -3.4772   39.9906 H   0  0  0  0  0  0  0  0  0  0  0  0  # atno 10154 bound_to 10134
  253.8079   12.7182   41.1676 H   0  0  0  0  0  0  0  0  0  0  0  0  # atno 11438 bound_to 11418
  255.3211   10.0383   43.2963 H   0  0  0  0  0  0  0  0  0  0  0  0  # atno 11499 bound_to 11466
  256.1254    7.4382   42.3769 H   0  0  0  0  0  0  0  0  0  0  0  0  # atno 11572 bound_to 11531
  257.4411    6.3806   40.5667 H   0  0  0  0  0  0  0  0  0  0  0  0  # atno 11648 bound_to 11607
  256.0636    8.9976   35.1851 H   0  0  0  0  0  0  0  0  0  0  0  0  # atno 17002 bound_to 16966
  254.4685    3.7946   38.2628 H   0  0  0  0  0  0  0  0  0  0  0  0  # atno 17198 bound_to 17178
  250.9159    4.9691   40.0944 H   0  0  0  0  0  0  0  0  0  0  0  0  # atno 17258 bound_to 17224
  251.9917    7.7048   43.5598 H   0  0  0  0  0  0  0  0  0  0  0  0  # atno 17306 bound_to 17285
  251.5054    8.4221   45.9535 H   0  0  0  0  0  0  0  0  0  0  0  0  # atno 17361 bound_to 17335
  250.5933    2.8881   43.6464 H   0  0  0  0  0  0  0  0  0  0  0  0  # atno 18250 bound_to 18212
  250.3385   -0.6982   41.2437 H   0  0  0  0  0  0  0  0  0  0  0  0  # atno 18298 bound_to 18277
  251.9716   -1.8273   39.7534 H   0  0  0  0  0  0  0  0  0  0  0  0  # atno 18302 bound_to 18282
  251.1667    0.4813   37.1500 H   0  0  0  0  0  0  0  0  0  0  0  0  # atno 18328 bound_to 18315
  250.4455   -1.4467   34.2315 H   0  0  0  0  0  0  0  0  0  0  0  0  # atno 18417 bound_to 18373
  251.6243    1.5729   32.2671 H   0  0  0  0  0  0  0  0  0  0  0  0  # atno 18502 bound_to 18463
  254.6464    8.3441   33.4225 H   0  0  0  0  0  0  0  0  0  0  0  0  # atno 18510 bound_to 18474
  249.6545    2.8836   29.6364 H   0  0  0  0  0  0  0  0  0  0  0  0  # atno 18570 bound_to 18535
  251.8378   22.1525   32.8071 H   0  0  0  0  0  0  0  0  0  0  0  0  # atno 19310 bound_to 19290
  242.8464   12.0062   39.8089 H   0  0  0  0  0  0  0  0  0  0  0  0  # atno 26091 bound_to 26055
  244.0170   20.0824   32.5499 H   0  0  0  0  0  0  0  0  0  0  0  0  # atno 27194 bound_to 27136
  239.9674   19.6403   34.5504 H   0  0  0  0  0  0  0  0  0  0  0  0  # atno 27196 bound_to 27138
  249.3448   22.8297   34.8499 LP  0  0  0  0  0  0  0  0  0  0  0  0  # atno 27200 bound_to 684 
  249.4990   24.2947   35.7611 LP  0  0  0  0  0  0  0  0  0  0  0  0  # atno 27201 bound_to 684 
  238.7328   19.4915   37.4135 LP  0  0  0  0  0  0  0  0  0  0  0  0  # atno 27202 bound_to 2531
  239.1988   16.1726   39.9917 LP  0  0  0  0  0  0  0  0  0  0  0  0  # atno 27203 bound_to 2534
  240.6803   16.4368   40.8492 LP  0  0  0  0  0  0  0  0  0  0  0  0  # atno 27204 bound_to 2534
  238.7255   18.9799   40.3008 LP  0  0  0  0  0  0  0  0  0  0  0  0  # atno 27205 bound_to 2605
  243.1560   13.5848   39.5664 LP  0  0  0  0  0  0  0  0  0  0  0  0  # atno 27209 bound_to 26055
  241.6191   13.0735   39.7743 LP  0  0  0  0  0  0  0  0  0  0  0  0  # atno 27210 bound_to 26055
  242.7777   20.2660   31.5107 LP  0  0  0  0  0  0  0  0  0  0  0  0  # atno 27213 bound_to 27136
  243.6857   18.9093   31.4713 LP  0  0  0  0  0  0  0  0  0  0  0  0  # atno 27214 bound_to 27136
  245.3955   25.7640   34.9178 LP  0  0  0  0  0  0  0  0  0  0  0  0  # atno 27215 bound_to 681 
  242.0086    7.0513   34.1053 LP  0  0  0  0  0  0  0  0  0  0  0  0  # atno 27226 bound_to 7339
  241.1620    8.5582   33.9932 LP  0  0  0  0  0  0  0  0  0  0  0  0  # atno 27227 bound_to 7339
  239.3475    5.5628   35.6647 LP  0  0  0  0  0  0  0  0  0  0  0  0  # atno 27228 bound_to 7417
  240.7472    4.4616   33.2319 LP  0  0  0  0  0  0  0  0  0  0  0  0  # atno 27229 bound_to 7460
  241.4639    1.9813   31.7505 LP  0  0  0  0  0  0  0  0  0  0  0  0  # atno 27230 bound_to 7515
  251.4198    2.9047   37.9529 LP  0  0  0  0  0  0  0  0  0  0  0  0  # atno 27232 bound_to 17131
  252.5412    1.7419   37.3283 LP  0  0  0  0  0  0  0  0  0  0  0  0  # atno 27233 bound_to 17131
  253.1015    4.8626   38.0573 LP  0  0  0  0  0  0  0  0  0  0  0  0  # atno 27234 bound_to 17178
  252.2031    4.7239   41.2545 LP  0  0  0  0  0  0  0  0  0  0  0  0  # atno 27235 bound_to 17224
  250.5355    2.7979   40.5111 LP  0  0  0  0  0  0  0  0  0  0  0  0  # atno 27236 bound_to 18215
  251.4093    2.8747   42.0047 LP  0  0  0  0  0  0  0  0  0  0  0  0  # atno 27237 bound_to 18215
  250.1507    1.0363   41.3284 LP  0  0  0  0  0  0  0  0  0  0  0  0  # atno 27238 bound_to 18277
  249.5036   -2.2513   38.2061 LP  0  0  0  0  0  0  0  0  0  0  0  0  # atno 27239 bound_to 18280
  250.1640   -2.0181   39.7902 LP  0  0  0  0  0  0  0  0  0  0  0  0  # atno 27240 bound_to 18280
  249.8606   -0.1033   38.1580 LP  0  0  0  0  0  0  0  0  0  0  0  0  # atno 27241 bound_to 18315
  252.6775   -0.4758   35.7459 LP  0  0  0  0  0  0  0  0  0  0  0  0  # atno 27242 bound_to 18318
  252.4362   -2.0391   35.0402 LP  0  0  0  0  0  0  0  0  0  0  0  0  # atno 27243 bound_to 18318
  249.8425    0.1898   34.1947 LP  0  0  0  0  0  0  0  0  0  0  0  0  # atno 27244 bound_to 18373
  249.0662    0.8075   32.1540 LP  0  0  0  0  0  0  0  0  0  0  0  0  # atno 27245 bound_to 18376
  249.6401    2.4391   32.2471 LP  0  0  0  0  0  0  0  0  0  0  0  0  # atno 27246 bound_to 18376
  252.3374    0.8437   30.8426 LP  0  0  0  0  0  0  0  0  0  0  0  0  # atno 27247 bound_to 18463
  250.6166    4.3410   29.5622 LP  0  0  0  0  0  0  0  0  0  0  0  0  # atno 27248 bound_to 18535
  254.4929    5.5820   41.2341 LP  0  0  0  0  0  0  0  0  0  0  0  0  # atno 27253 bound_to 17181
  253.2481    6.7451   41.5463 LP  0  0  0  0  0  0  0  0  0  0  0  0  # atno 27254 bound_to 17181
  256.9693    4.4604   36.5204 LP  0  0  0  0  0  0  0  0  0  0  0  0  # atno 27255 bound_to 17058
  256.6878    3.4743   37.9163 LP  0  0  0  0  0  0  0  0  0  0  0  0  # atno 27256 bound_to 17058
  251.3442    4.2977   44.1382 LP  0  0  0  0  0  0  0  0  0  0  0  0  # atno 27257 bound_to 17227
  249.6980    4.6377   43.7205 LP  0  0  0  0  0  0  0  0  0  0  0  0  # atno 27258 bound_to 17227
  256.0379    7.5190   33.5978 LP  0  0  0  0  0  0  0  0  0  0  0  0  # atno 27259 bound_to 18474
  254.7890    7.2441   34.6132 LP  0  0  0  0  0  0  0  0  0  0  0  0  # atno 27260 bound_to 18474
  250.8378    6.3951   43.5760 LP  0  0  0  0  0  0  0  0  0  0  0  0  # atno 27261 bound_to 17285
  250.1865    1.8207   44.9675 LP  0  0  0  0  0  0  0  0  0  0  0  0  # atno 27262 bound_to 18212
  253.1030   -1.4180   40.8487 LP  0  0  0  0  0  0  0  0  0  0  0  0  # atno 27263 bound_to 18282
  253.5228   -1.6658   39.2901 LP  0  0  0  0  0  0  0  0  0  0  0  0  # atno 27264 bound_to 18282
  247.9121   -3.4443   36.3518 LP  0  0  0  0  0  0  0  0  0  0  0  0  # atno 27265 bound_to 10098
  247.0974   -4.8342   36.0852 LP  0  0  0  0  0  0  0  0  0  0  0  0  # atno 27266 bound_to 10098
  249.4041   -1.8909   41.3677 LP  0  0  0  0  0  0  0  0  0  0  0  0  # atno 27267 bound_to 10137
  250.2704   -1.3136   42.7520 LP  0  0  0  0  0  0  0  0  0  0  0  0  # atno 27268 bound_to 10137
  251.5326   10.0937   43.0981 LP  0  0  0  0  0  0  0  0  0  0  0  0  # atno 27269 bound_to 11416
  252.3734    8.6167   42.7637 LP  0  0  0  0  0  0  0  0  0  0  0  0  # atno 27270 bound_to 11416
  257.1163    9.9040   36.0325 LP  0  0  0  0  0  0  0  0  0  0  0  0  # atno 27271 bound_to 16966
  256.2786    8.7137   36.7729 LP  0  0  0  0  0  0  0  0  0  0  0  0  # atno 27272 bound_to 16966
  253.8168   10.3062   42.4409 LP  0  0  0  0  0  0  0  0  0  0  0  0  # atno 27273 bound_to 11466
  255.2352    5.9354   42.3365 LP  0  0  0  0  0  0  0  0  0  0  0  0  # atno 27274 bound_to 11531
  258.4303    8.3613   37.5921 LP  0  0  0  0  0  0  0  0  0  0  0  0  # atno 27275 bound_to 11610
  257.4855    7.3310   38.6147 LP  0  0  0  0  0  0  0  0  0  0  0  0  # atno 27276 bound_to 11610
  258.5193    5.9844   41.8832 LP  0  0  0  0  0  0  0  0  0  0  0  0  # atno 27279 bound_to 11607
  254.8876   11.9212   42.0877 LP  0  0  0  0  0  0  0  0  0  0  0  0  # atno 27282 bound_to 11418
  254.8420   13.5535   42.1060 LP  0  0  0  0  0  0  0  0  0  0  0  0  # atno 27283 bound_to 11418
  252.4860   12.0717   28.9958 LP  0  0  0  0  0  0  0  0  0  0  0  0  # atno 27284 bound_to 18693
  252.6125   11.2896   30.5360 LP  0  0  0  0  0  0  0  0  0  0  0  0  # atno 27285 bound_to 18693

> <Gold.Score>
     Fitness  S(hb_ext) S(vdw_ext)  S(hb_int)    S(int)      intcor
     30.00       6.83      18.07       0.00      -1.69      -0.76

> <Gold.Goldscore.Fitness>
29.9972

> <Gold.Goldscore.Internal.Vdw>
-1.9801

> <Gold.Goldscore.Internal.Torsion>
-0.4648

> <Gold.Goldscore.External.Vdw>
18.0743

> <Gold.Goldscore.Internal.HBond>
0.0000

> <Gold.Goldscore.External.HBond>
6.8315

> <Gold.Goldscore.Internal.Correction>
-0.7585

> <Gold.Goldscore.Hbonds>
donor molecule, donor type, donor heavy atom, donor atom, acceptor molecule, acceptor atom, score
      L1  H     8    22       P1 19017  0.14
      L1  H    10    23       P1 27129  1.00

> <Gold.Goldscore.Internal.Vdw.Weighted>
-1.9801

> <Gold.Goldscore.Internal.Torsion.Weighted>
-0.4648

> <Gold.Goldscore.External.Vdw.Weighted>
24.8521

> <Gold.Goldscore.Internal.HBond.Weighted>
0.0000

> <Gold.Goldscore.External.HBond.Weighted>
6.8315

> <Gold.Goldscore.Internal.Correction.Weighted>
-0.7585

> <Gold.Rescore>
     Score     S(PLP)   S(hbond)     S(cho)   S(metal)  DE(clash)   DE(tors)     intcor
      3.60      -4.39       0.24       0.00       0.00       1.29       0.12       ----

> <Gold.PLP.Fitness>
3.5998

> <Gold.PLP.PLP>
-4.3940

> <Gold.PLP.part.hbond>
-2.2974

> <Gold.PLP.part.metal>
0.0000

> <Gold.PLP.part.buried>
5.3508

> <Gold.PLP.part.nonpolar>
-15.4234

> <Gold.PLP.part.repulsive>
7.1251

> <Gold.PLP.ligand.clash>
1.2858

> <Gold.PLP.ligand.torsion>
0.1199

> <Gold.PLP.Chemscore.Hbond>
0.2438

> <Gold.PLP.Chemscore.CHOScore>
0.0000

> <Gold.PLP.Chemscore.Metal>
0.0000

> <Gold.Chemscore.Hbonds>
donor molecule, donor type, donor heavy atom, donor atom, acceptor molecule, acceptor atom, score
      L1  H    10    23       P1 27129  0.54

> <Gold.PLP.Chemscore.Internal.Correction>
   9.000000E+99

