#       Name:                CT1002167954
#       Creating user name   hitesit
#       Creation time:       Sun Apr 16 20:31:12 2023


#       File generated by GOLD software.
#

@<TRIPOS>MOLECULE
CT1002167954|ligand_prepared|mol2|1|dock1
    29    30     1
SMALL
NO_CHARGES


@<TRIPOS>ATOM
      1 C1         249.9605   9.0766  36.0798 C.3            1 RES1               0.0000
      2 C2         249.2765   7.6942  36.0682 C.ar           1 RES1               0.0000
      3 C3         251.2766   8.8971  36.8307 C.2            1 RES1               0.0000
      4 C4         250.1276   9.4820  34.6195 C.2            1 RES1               0.0000
      5 C5         249.1360  10.1757  36.7894 C.3            1 RES1               0.0000
      6 C6         248.1067   7.4764  36.7899 C.ar           1 RES1               0.0000
      7 C7         249.8011   6.6299  35.3399 C.ar           1 RES1               0.0000
      8 N8         252.4268   8.8939  36.0979 N.am           1 RES1               0.0000
      9 O9         251.3020   8.7215  38.0426 O.2            1 RES1               0.0000
     10 N10        251.4009   9.5903  34.1249 N.am           1 RES1               0.0000
     11 O11        249.1678   9.6926  33.8883 O.2            1 RES1               0.0000
     12 C12        249.7360  11.5675  36.6671 C.3            1 RES1               0.0000
     13 C13        247.4822   6.2401  36.7814 C.ar           1 RES1               0.0000
     14 C14        249.1751   5.3943  35.3329 C.ar           1 RES1               0.0000
     15 C15        252.5573   9.2847  34.7895 C.2            1 RES1               0.0000
     16 C16        248.0157   5.1985  36.0527 C.ar           1 RES1               0.0000
     17 O17        253.6625   9.3552  34.2597 O.2            1 RES1               0.0000
     18 H18        248.1248  10.1885  36.3643 H              1 RES1               0.0000
     19 H19        249.0493   9.9209  37.8529 H              1 RES1               0.0000
     20 H20        247.6735   8.2835  37.3713 H              1 RES1               0.0000
     21 H21        250.7129   6.7606  34.7670 H              1 RES1               0.0000
     22 H22        253.2675   8.5710  36.5660 H              1 RES1               0.0000
     23 H23        251.4955   9.9302  33.1732 H              1 RES1               0.0000
     24 H24        249.1186  12.3004  37.1823 H              1 RES1               0.0000
     25 H25        250.7325  11.5976  37.1028 H              1 RES1               0.0000
     26 H26        249.8135  11.8637  35.6229 H              1 RES1               0.0000
     27 H27        246.5707   6.0908  37.3506 H              1 RES1               0.0000
     28 H28        249.5988   4.5772  34.7584 H              1 RES1               0.0000
     29 H29        247.5261   4.2303  36.0459 H              1 RES1               0.0000
@<TRIPOS>BOND
    1    1    2 1     
    2    1    3 1     
    3    1    4 1     
    4    1    5 1     
    5    2    6 ar    
    6    2    7 ar    
    7    3    8 1     
    8    3    9 2     
    9    4   10 1     
   10    4   11 2     
   11    5   12 1     
   12    5   18 1     
   13    5   19 1     
   14    6   13 ar    
   15    6   20 1     
   16    7   14 ar    
   17    7   21 1     
   18    8   15 1     
   19    8   22 1     
   20   10   15 1     
   21   10   23 1     
   22   12   24 1     
   23   12   25 1     
   24   12   26 1     
   25   13   16 ar    
   26   13   27 1     
   27   14   16 ar    
   28   14   28 1     
   29   15   17 2     
   30   16   29 1     
@<TRIPOS>SUBSTRUCTURE
      1 RES1           1
@<TRIPOS>SET
DONOR_HYDROGENS      STATIC     ATOMS    <user>   **** ""
2 22 23
ATOM$RED        STATIC     ATOMS    COLORGROUP SYSTEM
2 22 23
@<TRIPOS>COMMENT
> <Gold.Version>
2022.3.0

> <Gold.Id.Protein>
unknown|4v3u_clean|pdb

> <Gold.Protein.RotatedTorsions>
[  581  535  534  533 ] final -164.65 input   59.97 | X-H torsion
[ 2566 2531 2532 2533 ] final -163.74 input  112.83 | X-H torsion
[ 2636 2605 2606 2607 ] final  148.51 input   41.41 | X-H torsion
[ 26091 26055 26054 26052 ] final  -19.76 input   60.03 | X-H torsion
[ 27194 27136 27135 27131 ] final  -64.82 input   60.01 | X-H torsion
[  729  681  682  683 ] final  -45.06 input  102.19 | X-H torsion
[ 7435 7417 7418 7419 ] final  -80.01 input   81.33 | X-H torsion
[ 7494 7460 7461 7462 ] final  164.32 input  103.22 | X-H torsion
[ 7528 7515 7516 7517 ] final -138.99 input   88.53 | X-H torsion
[ 17198 17178 17179 17180 ] final -179.97 input   47.40 | X-H torsion
[ 17258 17224 17225 17226 ] final -159.53 input  102.98 | X-H torsion
[ 18298 18277 18278 18279 ] final  -60.52 input   30.52 | X-H torsion
[ 18328 18315 18316 18317 ] final  100.43 input   53.77 | X-H torsion
[ 18417 18373 18374 18375 ] final   46.59 input   42.60 | X-H torsion
[ 18502 18463 18464 18465 ] final  133.74 input  104.04 | X-H torsion
[ 18570 18535 18536 18537 ] final   62.75 input   89.36 | X-H torsion
[ 18510 18474 18473 18471 ] final -136.35 input   60.01 | X-H torsion
[ 17306 17285 17286 17287 ] final  -82.32 input   49.80 | X-H torsion
[ 18250 18212 18213 18214 ] final   60.67 input   46.53 | X-H torsion
[ 18302 18282 18281 18278 ] final   31.86 input   59.98 | X-H torsion
[ 10118 10098 10097 10094 ] final  -68.01 input   59.98 | X-H torsion
[ 17002 16966 16965 16963 ] final  -59.34 input   59.99 | X-H torsion
[ 11499 11466 11467 11468 ] final -129.83 input   46.07 | X-H torsion
[ 11572 11531 11532 11533 ] final  -18.43 input  118.20 | X-H torsion
[ 11648 11607 11608 11609 ] final  -37.87 input   50.96 | X-H torsion
[ 11438 11418 11417 11414 ] final  -51.30 input   60.01 | X-H torsion
[ 27196 27138 27137 27135 ] final -159.62 input   60.02 | X-H torsion
[ 19310 19290 19289 19286 ] final  149.67 input   60.00 | X-H torsion
[ 10154 10134 10135 10136 ] final  -74.61 input   25.69 | X-H torsion
[ 17361 17335 17336 17337 ] final  -65.60 input   65.66 | X-H torsion
[ 27200  684  683  682 ] final   92.32 input    0.00 | X-H torsion
[ 27203 2534 2533 2532 ] final -112.20 input    0.00 | X-H torsion
[ 27226 7339 7338 7337 ] final  -74.49 input    0.00 | X-H torsion
[ 27232 17131 17130 17129 ] final  -63.27 input    0.00 | X-H torsion
[ 27236 18215 18214 18213 ] final  149.99 input    0.00 | X-H torsion
[ 27239 18280 18279 18278 ] final  158.46 input    0.00 | X-H torsion
[ 27242 18318 18317 18316 ] final -165.04 input    0.00 | X-H torsion
[ 27245 18376 18375 18374 ] final   76.81 input   -0.00 | X-H torsion
[ 27253 17181 17180 17179 ] final  100.64 input    0.00 | X-H torsion
[ 27255 17058 17057 17056 ] final -120.20 input    0.00 | X-H torsion
[ 27257 17227 17226 17225 ] final -117.17 input   -0.00 | X-H torsion
[ 27267 10137 10136 10135 ] final   27.36 input    0.00 | X-H torsion
[ 27269 11416 11415 11414 ] final  166.83 input    0.00 | X-H torsion
[ 27275 11610 11609 11608 ] final  151.02 input    0.00 | X-H torsion
[ 27284 18693 18692 18691 ] final  121.51 input    0.00 | X-H torsion

> <Gold.Protein.ActiveResidues>
 LYS309  TRP311  GLU314  MET341  HIS342  TRP414  ALA417  ARG419  CYS420  VAL421 
 GLY422  ARG423  SER462  ALA463  SER482  GLN483  LEU484  ILE485  ARG486  ALA502 
 TRP566  TYR567  LEU569  PRO570  ALA571  VAL572  SER573  ASN574  MET575  PHE589 
 SER590  GLY591  TRP592  TYR593  MET594  GLU597  ILE598  ARG601  ASP602  ASP605 
 SER607  ARG608  TRP683  HIS697  GLU699  TYR711  HEM750  H4B760 

> <Gold.Protein.RotatedAtoms>
  247.5496   25.3899   41.6898 H   0  0  0  0  0  0  0  0  0  0  0  0  # atno 581  bound_to 535 
  246.0126   24.8470   41.9917 H   0  0  0  0  0  0  0  0  0  0  0  0  # atno 582  bound_to 535 
  247.0110   23.9907   40.9837 H   0  0  0  0  0  0  0  0  0  0  0  0  # atno 583  bound_to 535 
  245.7377   25.8272   34.3454 H   0  0  0  0  0  0  0  0  0  0  0  0  # atno 729  bound_to 681 
  239.2698   19.8436   37.2356 H   0  0  0  0  0  0  0  0  0  0  0  0  # atno 2566 bound_to 2531
  240.4468   18.9422   40.5641 H   0  0  0  0  0  0  0  0  0  0  0  0  # atno 2636 bound_to 2605
  240.1299    6.7920   34.9327 H   0  0  0  0  0  0  0  0  0  0  0  0  # atno 7435 bound_to 7417
  241.4054    5.3651   32.5364 H   0  0  0  0  0  0  0  0  0  0  0  0  # atno 7494 bound_to 7460
  242.3671    2.3619   31.4475 H   0  0  0  0  0  0  0  0  0  0  0  0  # atno 7528 bound_to 7515
  248.2038   -3.4896   36.3100 H   0  0  0  0  0  0  0  0  0  0  0  0  # atno 10118 bound_to 10098
  249.0477   -4.1179   40.0602 H   0  0  0  0  0  0  0  0  0  0  0  0  # atno 10154 bound_to 10134
  255.2082   12.6088   42.3979 H   0  0  0  0  0  0  0  0  0  0  0  0  # atno 11438 bound_to 11418
  253.7152    9.9679   43.0753 H   0  0  0  0  0  0  0  0  0  0  0  0  # atno 11499 bound_to 11466
  256.1998    7.2679   41.9595 H   0  0  0  0  0  0  0  0  0  0  0  0  # atno 11572 bound_to 11531
  257.8216    7.0361   41.3743 H   0  0  0  0  0  0  0  0  0  0  0  0  # atno 11648 bound_to 11607
  255.9953    8.8960   35.2593 H   0  0  0  0  0  0  0  0  0  0  0  0  # atno 17002 bound_to 16966
  253.9382    3.4824   37.9923 H   0  0  0  0  0  0  0  0  0  0  0  0  # atno 17198 bound_to 17178
  251.6197    5.4049   39.9953 H   0  0  0  0  0  0  0  0  0  0  0  0  # atno 17258 bound_to 17224
  250.6185    6.6758   43.6782 H   0  0  0  0  0  0  0  0  0  0  0  0  # atno 17306 bound_to 17285
  250.4427    7.6718   46.2530 H   0  0  0  0  0  0  0  0  0  0  0  0  # atno 17361 bound_to 17335
  250.0166    2.9773   43.8183 H   0  0  0  0  0  0  0  0  0  0  0  0  # atno 18250 bound_to 18212
  249.4723    0.4347   40.9432 H   0  0  0  0  0  0  0  0  0  0  0  0  # atno 18298 bound_to 18277
  252.0886   -1.8617   39.4892 H   0  0  0  0  0  0  0  0  0  0  0  0  # atno 18302 bound_to 18282
  249.9744    0.8483   37.3961 H   0  0  0  0  0  0  0  0  0  0  0  0  # atno 18328 bound_to 18315
  249.4876   -0.5357   33.6348 H   0  0  0  0  0  0  0  0  0  0  0  0  # atno 18417 bound_to 18373
  252.8554    1.4032   31.6014 H   0  0  0  0  0  0  0  0  0  0  0  0  # atno 18502 bound_to 18463
  255.9868    7.6738   33.4456 H   0  0  0  0  0  0  0  0  0  0  0  0  # atno 18510 bound_to 18474
  249.9939    4.4600   29.8385 H   0  0  0  0  0  0  0  0  0  0  0  0  # atno 18570 bound_to 18535
  252.3925   22.2070   34.1684 H   0  0  0  0  0  0  0  0  0  0  0  0  # atno 19310 bound_to 19290
  243.4733   12.8593   39.6377 H   0  0  0  0  0  0  0  0  0  0  0  0  # atno 26091 bound_to 26055
  244.2172   19.2883   32.2181 H   0  0  0  0  0  0  0  0  0  0  0  0  # atno 27194 bound_to 27136
  239.1978   19.1461   33.5115 H   0  0  0  0  0  0  0  0  0  0  0  0  # atno 27196 bound_to 27138
  249.3366   22.8245   34.8600 LP  0  0  0  0  0  0  0  0  0  0  0  0  # atno 27200 bound_to 684 
  249.5072   24.2999   35.7510 LP  0  0  0  0  0  0  0  0  0  0  0  0  # atno 27201 bound_to 684 
  238.7738   20.0915   38.8927 LP  0  0  0  0  0  0  0  0  0  0  0  0  # atno 27202 bound_to 2531
  239.0790   16.2847   40.5161 LP  0  0  0  0  0  0  0  0  0  0  0  0  # atno 27203 bound_to 2534
  240.8000   16.3247   40.3248 LP  0  0  0  0  0  0  0  0  0  0  0  0  # atno 27204 bound_to 2534
  238.7231   19.1226   40.3359 LP  0  0  0  0  0  0  0  0  0  0  0  0  # atno 27205 bound_to 2605
  242.0855   13.7084   39.6469 LP  0  0  0  0  0  0  0  0  0  0  0  0  # atno 27209 bound_to 26055
  242.0579   12.0904   39.8664 LP  0  0  0  0  0  0  0  0  0  0  0  0  # atno 27210 bound_to 26055
  243.2586   20.6030   32.1789 LP  0  0  0  0  0  0  0  0  0  0  0  0  # atno 27213 bound_to 27136
  243.0033   19.3717   31.1371 LP  0  0  0  0  0  0  0  0  0  0  0  0  # atno 27214 bound_to 27136
  244.6890   24.4347   34.3682 LP  0  0  0  0  0  0  0  0  0  0  0  0  # atno 27215 bound_to 681 
  241.0139    7.9090   33.4069 LP  0  0  0  0  0  0  0  0  0  0  0  0  # atno 27226 bound_to 7339
  242.1567    7.7005   34.6916 LP  0  0  0  0  0  0  0  0  0  0  0  0  # atno 27227 bound_to 7339
  239.6902    5.6443   36.1717 LP  0  0  0  0  0  0  0  0  0  0  0  0  # atno 27228 bound_to 7417
  241.6803    3.8221   33.3157 LP  0  0  0  0  0  0  0  0  0  0  0  0  # atno 27229 bound_to 7460
  241.8044    2.1697   33.0924 LP  0  0  0  0  0  0  0  0  0  0  0  0  # atno 27230 bound_to 7515
  251.4685    2.7964   37.1268 LP  0  0  0  0  0  0  0  0  0  0  0  0  # atno 27232 bound_to 17131
  252.4925    1.8503   38.1545 LP  0  0  0  0  0  0  0  0  0  0  0  0  # atno 27233 bound_to 17131
  253.6205    5.1682   38.3220 LP  0  0  0  0  0  0  0  0  0  0  0  0  # atno 27234 bound_to 17178
  251.5215    4.3019   41.3504 LP  0  0  0  0  0  0  0  0  0  0  0  0  # atno 27235 bound_to 17224
  251.5707    2.4871   40.7382 LP  0  0  0  0  0  0  0  0  0  0  0  0  # atno 27236 bound_to 18215
  250.3741    3.1854   41.7776 LP  0  0  0  0  0  0  0  0  0  0  0  0  # atno 27237 bound_to 18215
  250.9992   -0.0733   41.6227 LP  0  0  0  0  0  0  0  0  0  0  0  0  # atno 27238 bound_to 18277
  249.3083   -2.1457   38.3099 LP  0  0  0  0  0  0  0  0  0  0  0  0  # atno 27239 bound_to 18280
  250.3593   -2.1237   39.6864 LP  0  0  0  0  0  0  0  0  0  0  0  0  # atno 27240 bound_to 18280
  251.0144   -0.4586   37.9199 LP  0  0  0  0  0  0  0  0  0  0  0  0  # atno 27241 bound_to 18315
  252.7943   -0.8985   34.6416 LP  0  0  0  0  0  0  0  0  0  0  0  0  # atno 27242 bound_to 18318
  252.3194   -1.6165   36.1445 LP  0  0  0  0  0  0  0  0  0  0  0  0  # atno 27243 bound_to 18318
  250.7885   -0.7099   34.7840 LP  0  0  0  0  0  0  0  0  0  0  0  0  # atno 27244 bound_to 18373
  249.5393    1.9685   32.9726 LP  0  0  0  0  0  0  0  0  0  0  0  0  # atno 27245 bound_to 18376
  249.1670    1.2781   31.4284 LP  0  0  0  0  0  0  0  0  0  0  0  0  # atno 27246 bound_to 18376
  251.1529    1.0069   31.4832 LP  0  0  0  0  0  0  0  0  0  0  0  0  # atno 27247 bound_to 18463
  250.2855    2.8029   29.3650 LP  0  0  0  0  0  0  0  0  0  0  0  0  # atno 27248 bound_to 18535
  253.7086    6.7123   40.7401 LP  0  0  0  0  0  0  0  0  0  0  0  0  # atno 27253 bound_to 17181
  254.0324    5.6148   42.0403 LP  0  0  0  0  0  0  0  0  0  0  0  0  # atno 27254 bound_to 17181
  256.2333    3.8287   37.8319 LP  0  0  0  0  0  0  0  0  0  0  0  0  # atno 27255 bound_to 17058
  257.4238    4.1060   36.6048 LP  0  0  0  0  0  0  0  0  0  0  0  0  # atno 27256 bound_to 17058
  249.9333    4.8632   44.4274 LP  0  0  0  0  0  0  0  0  0  0  0  0  # atno 27257 bound_to 17227
  251.1089    4.0722   43.4313 LP  0  0  0  0  0  0  0  0  0  0  0  0  # atno 27258 bound_to 17227
  254.9887    7.1442   34.6166 LP  0  0  0  0  0  0  0  0  0  0  0  0  # atno 27259 bound_to 18474
  254.4877    8.2942   33.5711 LP  0  0  0  0  0  0  0  0  0  0  0  0  # atno 27260 bound_to 18474
  252.1883    7.4072   43.4596 LP  0  0  0  0  0  0  0  0  0  0  0  0  # atno 27261 bound_to 17285
  250.7522    1.7332   44.7989 LP  0  0  0  0  0  0  0  0  0  0  0  0  # atno 27262 bound_to 18212
  252.8152   -1.4580   40.8879 LP  0  0  0  0  0  0  0  0  0  0  0  0  # atno 27263 bound_to 18282
  253.6927   -1.5912   39.5171 LP  0  0  0  0  0  0  0  0  0  0  0  0  # atno 27264 bound_to 18282
  246.9920   -4.5662   36.1659 LP  0  0  0  0  0  0  0  0  0  0  0  0  # atno 27265 bound_to 10098
  248.5328   -5.0231   35.8761 LP  0  0  0  0  0  0  0  0  0  0  0  0  # atno 27266 bound_to 10098
  249.6485   -1.9294   41.2805 LP  0  0  0  0  0  0  0  0  0  0  0  0  # atno 27267 bound_to 10137
  250.0260   -1.2751   42.8392 LP  0  0  0  0  0  0  0  0  0  0  0  0  # atno 27268 bound_to 10137
  252.3072    8.8695   42.3075 LP  0  0  0  0  0  0  0  0  0  0  0  0  # atno 27269 bound_to 11416
  251.5988    9.8409   43.5543 LP  0  0  0  0  0  0  0  0  0  0  0  0  # atno 27270 bound_to 11416
  257.0896    9.9208   35.8918 LP  0  0  0  0  0  0  0  0  0  0  0  0  # atno 27271 bound_to 16966
  256.3742    8.7993   36.8389 LP  0  0  0  0  0  0  0  0  0  0  0  0  # atno 27272 bound_to 16966
  255.3656   10.3741   42.6539 LP  0  0  0  0  0  0  0  0  0  0  0  0  # atno 27273 bound_to 11466
  255.1624    6.1021   42.7452 LP  0  0  0  0  0  0  0  0  0  0  0  0  # atno 27274 bound_to 11531
  257.8109    8.6913   38.2223 LP  0  0  0  0  0  0  0  0  0  0  0  0  # atno 27275 bound_to 11610
  258.1050    7.0010   37.9844 LP  0  0  0  0  0  0  0  0  0  0  0  0  # atno 27276 bound_to 11610
  258.1469    5.3427   41.0927 LP  0  0  0  0  0  0  0  0  0  0  0  0  # atno 27279 bound_to 11607
  254.2251   13.6017   41.5640 LP  0  0  0  0  0  0  0  0  0  0  0  0  # atno 27282 bound_to 11418
  254.0940   11.9832   41.3905 LP  0  0  0  0  0  0  0  0  0  0  0  0  # atno 27283 bound_to 11418
  253.1456   11.2813   30.2505 LP  0  0  0  0  0  0  0  0  0  0  0  0  # atno 27284 bound_to 18693
  251.9529   12.0800   29.2813 LP  0  0  0  0  0  0  0  0  0  0  0  0  # atno 27285 bound_to 18693

> <Gold.Score>
     Fitness  S(hb_ext) S(vdw_ext)  S(hb_int)    S(int)      intcor
     39.19       4.78      25.57       0.00      -0.76      -0.76

> <Gold.Goldscore.Fitness>
39.1892

> <Gold.Goldscore.Internal.Vdw>
-1.0861

> <Gold.Goldscore.Internal.Torsion>
-0.4299

> <Gold.Goldscore.External.Vdw>
25.5735

> <Gold.Goldscore.Internal.HBond>
0.0000

> <Gold.Goldscore.External.HBond>
4.7830

> <Gold.Goldscore.Internal.Correction>
-0.7585

> <Gold.Goldscore.Hbonds>
donor molecule, donor type, donor heavy atom, donor atom, acceptor molecule, acceptor atom, score
      P1  H 16966 17002       L1    17  0.32
      L1  H     8    22       P1 11474  0.69

> <Gold.Goldscore.Internal.Vdw.Weighted>
-1.0861

> <Gold.Goldscore.Internal.Torsion.Weighted>
-0.4299

> <Gold.Goldscore.External.Vdw.Weighted>
35.1636

> <Gold.Goldscore.Internal.HBond.Weighted>
0.0000

> <Gold.Goldscore.External.HBond.Weighted>
4.7830

> <Gold.Goldscore.Internal.Correction.Weighted>
-0.7585

> <Gold.Rescore>
     Score     S(PLP)   S(hbond)     S(cho)   S(metal)  DE(clash)   DE(tors)     intcor
     15.15     -15.48       0.51       0.00       0.00       0.08       0.89       ----

> <Gold.PLP.Fitness>
15.1527

> <Gold.PLP.PLP>
-15.4777

> <Gold.PLP.part.hbond>
-2.9163

> <Gold.PLP.part.metal>
0.0000

> <Gold.PLP.part.buried>
21.2396

> <Gold.PLP.part.nonpolar>
-42.1129

> <Gold.PLP.part.repulsive>
6.4252

> <Gold.PLP.ligand.clash>
0.0777

> <Gold.PLP.ligand.torsion>
0.8916

> <Gold.PLP.Chemscore.Hbond>
0.5120

> <Gold.PLP.Chemscore.CHOScore>
0.0000

> <Gold.PLP.Chemscore.Metal>
0.0000

> <Gold.Chemscore.Hbonds>
donor molecule, donor type, donor heavy atom, donor atom, acceptor molecule, acceptor atom, score
      L1  H     8    22       P1 11474  0.80

> <Gold.PLP.Chemscore.Internal.Correction>
   9.000000E+99

