#       Name:                CT1002167954
#       Creating user name   hitesit
#       Creation time:       Sun Apr 16 20:31:13 2023


#       File generated by GOLD software.
#

@<TRIPOS>MOLECULE
CT1002167954|ligand_prepared|mol2|1|dock3
    29    30     1
SMALL
NO_CHARGES


@<TRIPOS>ATOM
      1 C1         250.8953  10.8665  34.5908 C.3            1 RES1               0.0000
      2 C2         250.2433  10.4965  35.9387 C.ar           1 RES1               0.0000
      3 C3         251.6182  12.1916  34.8140 C.2            1 RES1               0.0000
      4 C4         251.8180   9.7074  34.2308 C.2            1 RES1               0.0000
      5 C5         249.8829  11.0477  33.4359 C.3            1 RES1               0.0000
      6 C6         249.3398   9.4414  36.0228 C.ar           1 RES1               0.0000
      7 C7         250.5370  11.1981  37.1050 C.ar           1 RES1               0.0000
      8 N8         252.9796  12.1636  34.8908 N.am           1 RES1               0.0000
      9 O9         251.0011  13.2395  34.9600 O.2            1 RES1               0.0000
     10 N10        253.1667   9.9472  34.1961 N.am           1 RES1               0.0000
     11 O11        251.3905   8.5844  33.9931 O.2            1 RES1               0.0000
     12 C12        250.5001  11.5995  32.1604 C.3            1 RES1               0.0000
     13 C13        248.7533   9.0981  37.2296 C.ar           1 RES1               0.0000
     14 C14        249.9491  10.8532  38.3108 C.ar           1 RES1               0.0000
     15 C15        253.7914  11.1151  34.5398 C.2            1 RES1               0.0000
     16 C16        249.0578   9.8033  38.3744 C.ar           1 RES1               0.0000
     17 O17        255.0130  11.2373  34.5357 O.2            1 RES1               0.0000
     18 H18        249.4227  10.0770  33.2142 H              1 RES1               0.0000
     19 H19        249.0882  11.7279  33.7664 H              1 RES1               0.0000
     20 H20        249.0860   8.8764  35.1320 H              1 RES1               0.0000
     21 H21        251.2345  12.0283  37.0785 H              1 RES1               0.0000
     22 H22        253.4362  12.9994  35.2416 H              1 RES1               0.0000
     23 H23        253.7600   9.1845  33.8852 H              1 RES1               0.0000
     24 H24        249.7470  11.7071  31.3827 H              1 RES1               0.0000
     25 H25        250.9453  12.5761  32.3385 H              1 RES1               0.0000
     26 H26        251.2778  10.9350  31.7895 H              1 RES1               0.0000
     27 H27        248.0514   8.2718  37.2741 H              1 RES1               0.0000
     28 H28        250.1913  11.4114  39.2091 H              1 RES1               0.0000
     29 H29        248.5985   9.5339  39.3198 H              1 RES1               0.0000
@<TRIPOS>BOND
    1    1    2 1     
    2    1    3 1     
    3    1    4 1     
    4    1    5 1     
    5    2    6 ar    
    6    2    7 ar    
    7    3    8 1     
    8    3    9 2     
    9    4   10 1     
   10    4   11 2     
   11    5   12 1     
   12    5   18 1     
   13    5   19 1     
   14    6   13 ar    
   15    6   20 1     
   16    7   14 ar    
   17    7   21 1     
   18    8   15 1     
   19    8   22 1     
   20   10   15 1     
   21   10   23 1     
   22   12   24 1     
   23   12   25 1     
   24   12   26 1     
   25   13   16 ar    
   26   13   27 1     
   27   14   16 ar    
   28   14   28 1     
   29   15   17 2     
   30   16   29 1     
@<TRIPOS>SUBSTRUCTURE
      1 RES1           1
@<TRIPOS>SET
DONOR_HYDROGENS      STATIC     ATOMS    <user>   **** ""
2 22 23
ATOM$RED        STATIC     ATOMS    COLORGROUP SYSTEM
2 22 23
@<TRIPOS>COMMENT
> <Gold.Version>
2022.3.0

> <Gold.Id.Protein>
unknown|4v3u_clean|pdb

> <Gold.Protein.RotatedTorsions>
[  581  535  534  533 ] final  170.75 input   59.97 | X-H torsion
[ 2566 2531 2532 2533 ] final   59.61 input  112.83 | X-H torsion
[ 2636 2605 2606 2607 ] final  147.70 input   41.41 | X-H torsion
[ 26091 26055 26054 26052 ] final   71.10 input   60.03 | X-H torsion
[ 27194 27136 27135 27131 ] final   30.40 input   60.01 | X-H torsion
[  729  681  682  683 ] final  -13.38 input  102.19 | X-H torsion
[ 7435 7417 7418 7419 ] final   60.02 input   81.33 | X-H torsion
[ 7494 7460 7461 7462 ] final -164.18 input  103.22 | X-H torsion
[ 7528 7515 7516 7517 ] final -122.54 input   88.53 | X-H torsion
[ 17198 17178 17179 17180 ] final  -42.59 input   47.40 | X-H torsion
[ 17258 17224 17225 17226 ] final  122.68 input  102.98 | X-H torsion
[ 18298 18277 18278 18279 ] final  114.74 input   30.52 | X-H torsion
[ 18328 18315 18316 18317 ] final  -78.22 input   53.77 | X-H torsion
[ 18417 18373 18374 18375 ] final  -33.34 input   42.60 | X-H torsion
[ 18502 18463 18464 18465 ] final  -95.71 input  104.04 | X-H torsion
[ 18570 18535 18536 18537 ] final  137.32 input   89.36 | X-H torsion
[ 18510 18474 18473 18471 ] final  120.42 input   60.01 | X-H torsion
[ 17306 17285 17286 17287 ] final   73.55 input   49.80 | X-H torsion
[ 18250 18212 18213 18214 ] final   95.74 input   46.53 | X-H torsion
[ 18302 18282 18281 18278 ] final  179.38 input   59.98 | X-H torsion
[ 10118 10098 10097 10094 ] final  107.58 input   59.98 | X-H torsion
[ 17002 16966 16965 16963 ] final  117.56 input   59.99 | X-H torsion
[ 11499 11466 11467 11468 ] final  117.61 input   46.07 | X-H torsion
[ 11572 11531 11532 11533 ] final -104.15 input  118.20 | X-H torsion
[ 11648 11607 11608 11609 ] final  115.16 input   50.96 | X-H torsion
[ 11438 11418 11417 11414 ] final    0.44 input   60.01 | X-H torsion
[ 27196 27138 27137 27135 ] final   65.25 input   60.02 | X-H torsion
[ 19310 19290 19289 19286 ] final   71.27 input   60.00 | X-H torsion
[ 10154 10134 10135 10136 ] final    8.79 input   25.69 | X-H torsion
[ 17361 17335 17336 17337 ] final   12.20 input   65.66 | X-H torsion
[ 27200  684  683  682 ] final  137.78 input    0.00 | X-H torsion
[ 27203 2534 2533 2532 ] final -102.80 input    0.00 | X-H torsion
[ 27226 7339 7338 7337 ] final  147.56 input    0.00 | X-H torsion
[ 27232 17131 17130 17129 ] final  -76.26 input    0.00 | X-H torsion
[ 27236 18215 18214 18213 ] final   65.75 input    0.00 | X-H torsion
[ 27239 18280 18279 18278 ] final   43.25 input    0.00 | X-H torsion
[ 27242 18318 18317 18316 ] final  -13.24 input    0.00 | X-H torsion
[ 27245 18376 18375 18374 ] final -111.72 input   -0.00 | X-H torsion
[ 27253 17181 17180 17179 ] final -103.03 input    0.00 | X-H torsion
[ 27255 17058 17057 17056 ] final  -60.95 input    0.00 | X-H torsion
[ 27257 17227 17226 17225 ] final  145.74 input   -0.00 | X-H torsion
[ 27267 10137 10136 10135 ] final  -14.08 input    0.00 | X-H torsion
[ 27269 11416 11415 11414 ] final  -89.07 input    0.00 | X-H torsion
[ 27275 11610 11609 11608 ] final  -80.66 input    0.00 | X-H torsion
[ 27284 18693 18692 18691 ] final   -8.66 input    0.00 | X-H torsion

> <Gold.Protein.ActiveResidues>
 LYS309  TRP311  GLU314  MET341  HIS342  TRP414  ALA417  ARG419  CYS420  VAL421 
 GLY422  ARG423  SER462  ALA463  SER482  GLN483  LEU484  ILE485  ARG486  ALA502 
 TRP566  TYR567  LEU569  PRO570  ALA571  VAL572  SER573  ASN574  MET575  PHE589 
 SER590  GLY591  TRP592  TYR593  MET594  GLU597  ILE598  ARG601  ASP602  ASP605 
 SER607  ARG608  TRP683  HIS697  GLU699  TYR711  HEM750  H4B760 

> <Gold.Protein.RotatedAtoms>
  247.7267   25.1251   41.4354 H   0  0  0  0  0  0  0  0  0  0  0  0  # atno 581  bound_to 535 
  246.2185   25.1740   42.1218 H   0  0  0  0  0  0  0  0  0  0  0  0  # atno 582  bound_to 535 
  246.6278   23.9285   41.1081 H   0  0  0  0  0  0  0  0  0  0  0  0  # atno 583  bound_to 535 
  245.8033   25.6076   33.9261 H   0  0  0  0  0  0  0  0  0  0  0  0  # atno 729  bound_to 681 
  239.2952   20.4494   38.7623 H   0  0  0  0  0  0  0  0  0  0  0  0  # atno 2566 bound_to 2531
  240.4475   18.9543   40.5672 H   0  0  0  0  0  0  0  0  0  0  0  0  # atno 2636 bound_to 2605
  239.3436    5.5544   35.6945 H   0  0  0  0  0  0  0  0  0  0  0  0  # atno 7435 bound_to 7417
  240.9799    5.2357   32.7249 H   0  0  0  0  0  0  0  0  0  0  0  0  # atno 7494 bound_to 7460
  242.1405    2.2599   31.3966 H   0  0  0  0  0  0  0  0  0  0  0  0  # atno 7528 bound_to 7515
  247.6858   -5.2440   35.9164 H   0  0  0  0  0  0  0  0  0  0  0  0  # atno 10118 bound_to 10098
  249.8062   -3.2231   40.1253 H   0  0  0  0  0  0  0  0  0  0  0  0  # atno 10154 bound_to 10134
  254.8833   11.9269   42.0871 H   0  0  0  0  0  0  0  0  0  0  0  0  # atno 11438 bound_to 11418
  254.6202   10.5464   42.0532 H   0  0  0  0  0  0  0  0  0  0  0  0  # atno 11499 bound_to 11466
  255.7067    7.2197   43.0535 H   0  0  0  0  0  0  0  0  0  0  0  0  # atno 11572 bound_to 11531
  257.8966    5.4262   40.7818 H   0  0  0  0  0  0  0  0  0  0  0  0  # atno 11648 bound_to 11607
  256.9540    9.4762   36.7581 H   0  0  0  0  0  0  0  0  0  0  0  0  # atno 17002 bound_to 16966
  253.1037    4.8978   38.0709 H   0  0  0  0  0  0  0  0  0  0  0  0  # atno 17198 bound_to 17178
  250.7748    4.7414   40.2993 H   0  0  0  0  0  0  0  0  0  0  0  0  # atno 17258 bound_to 17224
  251.9956    7.7013   43.5582 H   0  0  0  0  0  0  0  0  0  0  0  0  # atno 17306 bound_to 17285
  249.8684    8.0715   45.3919 H   0  0  0  0  0  0  0  0  0  0  0  0  # atno 17361 bound_to 17335
  249.6510    2.8101   44.1654 H   0  0  0  0  0  0  0  0  0  0  0  0  # atno 18250 bound_to 18212
  250.9965   -0.1469   41.6125 H   0  0  0  0  0  0  0  0  0  0  0  0  # atno 18298 bound_to 18277
  253.7869   -1.4863   39.9411 H   0  0  0  0  0  0  0  0  0  0  0  0  # atno 18302 bound_to 18282
  251.0403   -0.4832   37.9010 H   0  0  0  0  0  0  0  0  0  0  0  0  # atno 18328 bound_to 18315
  249.9508    0.2259   34.3252 H   0  0  0  0  0  0  0  0  0  0  0  0  # atno 18417 bound_to 18373
  251.3052    1.4091   32.0780 H   0  0  0  0  0  0  0  0  0  0  0  0  # atno 18502 bound_to 18463
  255.2456    7.0684   34.5581 H   0  0  0  0  0  0  0  0  0  0  0  0  # atno 18510 bound_to 18474
  249.3236    3.6293   29.9361 H   0  0  0  0  0  0  0  0  0  0  0  0  # atno 18570 bound_to 18535
  253.2834   21.5156   33.8106 H   0  0  0  0  0  0  0  0  0  0  0  0  # atno 19310 bound_to 19290
  242.5116   11.9596   39.8455 H   0  0  0  0  0  0  0  0  0  0  0  0  # atno 26091 bound_to 26055
  243.2819   19.0915   31.2178 H   0  0  0  0  0  0  0  0  0  0  0  0  # atno 27194 bound_to 27136
  240.4287   19.2371   34.7243 H   0  0  0  0  0  0  0  0  0  0  0  0  # atno 27196 bound_to 27138
  249.7225   23.2726   34.5467 LP  0  0  0  0  0  0  0  0  0  0  0  0  # atno 27200 bound_to 684 
  249.1213   23.8518   36.0643 LP  0  0  0  0  0  0  0  0  0  0  0  0  # atno 27201 bound_to 684 
  238.7489   19.4996   37.4010 LP  0  0  0  0  0  0  0  0  0  0  0  0  # atno 27202 bound_to 2531
  239.0761   16.2534   40.3776 LP  0  0  0  0  0  0  0  0  0  0  0  0  # atno 27203 bound_to 2534
  240.8030   16.3560   40.4633 LP  0  0  0  0  0  0  0  0  0  0  0  0  # atno 27204 bound_to 2534
  238.7224   19.1108   40.3329 LP  0  0  0  0  0  0  0  0  0  0  0  0  # atno 27205 bound_to 2605
  243.3690   13.3171   39.5830 LP  0  0  0  0  0  0  0  0  0  0  0  0  # atno 27209 bound_to 26055
  241.7434   13.3882   39.7209 LP  0  0  0  0  0  0  0  0  0  0  0  0  # atno 27210 bound_to 26055
  244.2183   19.6273   32.4364 LP  0  0  0  0  0  0  0  0  0  0  0  0  # atno 27213 bound_to 27136
  242.9850   20.5454   31.8863 LP  0  0  0  0  0  0  0  0  0  0  0  0  # atno 27214 bound_to 27136
  244.6240   24.6524   34.7840 LP  0  0  0  0  0  0  0  0  0  0  0  0  # atno 27215 bound_to 681 
  242.1251    7.1915   34.3365 LP  0  0  0  0  0  0  0  0  0  0  0  0  # atno 27226 bound_to 7339
  241.0455    8.4180   33.7620 LP  0  0  0  0  0  0  0  0  0  0  0  0  # atno 27227 bound_to 7339
  240.4648    6.8635   35.4213 LP  0  0  0  0  0  0  0  0  0  0  0  0  # atno 27228 bound_to 7417
  242.0918    3.9472   33.1334 LP  0  0  0  0  0  0  0  0  0  0  0  0  # atno 27229 bound_to 7460
  242.0248    2.2690   33.1419 LP  0  0  0  0  0  0  0  0  0  0  0  0  # atno 27230 bound_to 7515
  251.4053    2.8716   37.2963 LP  0  0  0  0  0  0  0  0  0  0  0  0  # atno 27232 bound_to 17131
  252.5557    1.7750   37.9850 LP  0  0  0  0  0  0  0  0  0  0  0  0  # atno 27233 bound_to 17131
  254.4372    3.7830   38.2451 LP  0  0  0  0  0  0  0  0  0  0  0  0  # atno 27234 bound_to 17178
  252.3398    4.9444   41.0560 LP  0  0  0  0  0  0  0  0  0  0  0  0  # atno 27235 bound_to 17224
  251.5881    2.7741   41.8637 LP  0  0  0  0  0  0  0  0  0  0  0  0  # atno 27236 bound_to 18215
  250.3567    2.8985   40.6521 LP  0  0  0  0  0  0  0  0  0  0  0  0  # atno 27237 bound_to 18215
  249.5062    0.4964   40.9672 LP  0  0  0  0  0  0  0  0  0  0  0  0  # atno 27238 bound_to 18277
  249.4949   -1.7877   39.7156 LP  0  0  0  0  0  0  0  0  0  0  0  0  # atno 27239 bound_to 18280
  250.1727   -2.4817   38.2807 LP  0  0  0  0  0  0  0  0  0  0  0  0  # atno 27240 bound_to 18280
  249.9829    0.8301   37.4312 LP  0  0  0  0  0  0  0  0  0  0  0  0  # atno 27241 bound_to 18315
  252.3980   -1.2140   36.2433 LP  0  0  0  0  0  0  0  0  0  0  0  0  # atno 27242 bound_to 18318
  252.7157   -1.3010   34.5428 LP  0  0  0  0  0  0  0  0  0  0  0  0  # atno 27243 bound_to 18318
  250.3311   -1.4620   34.1022 LP  0  0  0  0  0  0  0  0  0  0  0  0  # atno 27244 bound_to 18373
  249.2023    1.3919   31.3797 LP  0  0  0  0  0  0  0  0  0  0  0  0  # atno 27245 bound_to 18376
  249.5040    1.8547   33.0213 LP  0  0  0  0  0  0  0  0  0  0  0  0  # atno 27246 bound_to 18376
  252.6444    1.0012   31.0246 LP  0  0  0  0  0  0  0  0  0  0  0  0  # atno 27247 bound_to 18463
  250.9394    3.6134   29.2698 LP  0  0  0  0  0  0  0  0  0  0  0  0  # atno 27248 bound_to 18535
  253.7732    5.8156   42.1772 LP  0  0  0  0  0  0  0  0  0  0  0  0  # atno 27253 bound_to 17181
  253.9678    6.5115   40.6031 LP  0  0  0  0  0  0  0  0  0  0  0  0  # atno 27254 bound_to 17181
  256.9582    3.3731   37.8348 LP  0  0  0  0  0  0  0  0  0  0  0  0  # atno 27255 bound_to 17058
  256.6990    4.5616   36.6019 LP  0  0  0  0  0  0  0  0  0  0  0  0  # atno 27256 bound_to 17058
  251.1779    4.5002   44.4929 LP  0  0  0  0  0  0  0  0  0  0  0  0  # atno 27257 bound_to 17227
  249.8643    4.4352   43.3658 LP  0  0  0  0  0  0  0  0  0  0  0  0  # atno 27258 bound_to 17227
  254.3489    8.1808   33.7794 LP  0  0  0  0  0  0  0  0  0  0  0  0  # atno 27259 bound_to 18474
  255.8742    7.8675   33.2875 LP  0  0  0  0  0  0  0  0  0  0  0  0  # atno 27260 bound_to 18474
  250.8339    6.3986   43.5776 LP  0  0  0  0  0  0  0  0  0  0  0  0  # atno 27261 bound_to 17285
  251.1109    1.8972   44.4583 LP  0  0  0  0  0  0  0  0  0  0  0  0  # atno 27262 bound_to 18212
  252.4056   -1.8757   39.1747 LP  0  0  0  0  0  0  0  0  0  0  0  0  # atno 27263 bound_to 18282
  252.3915   -1.5517   40.7751 LP  0  0  0  0  0  0  0  0  0  0  0  0  # atno 27264 bound_to 18282
  248.8110   -4.0809   36.0875 LP  0  0  0  0  0  0  0  0  0  0  0  0  # atno 27265 bound_to 10098
  247.2355   -3.7417   36.3509 LP  0  0  0  0  0  0  0  0  0  0  0  0  # atno 27266 bound_to 10098
  250.2552   -1.8993   41.3619 LP  0  0  0  0  0  0  0  0  0  0  0  0  # atno 27267 bound_to 10137
  249.4193   -1.3052   42.7578 LP  0  0  0  0  0  0  0  0  0  0  0  0  # atno 27268 bound_to 10137
  252.0872    8.8996   43.6551 LP  0  0  0  0  0  0  0  0  0  0  0  0  # atno 27269 bound_to 11416
  251.8188    9.8108   42.2067 LP  0  0  0  0  0  0  0  0  0  0  0  0  # atno 27270 bound_to 11416
  255.8686    8.4933   36.0485 LP  0  0  0  0  0  0  0  0  0  0  0  0  # atno 27271 bound_to 16966
  256.6294    9.6423   35.1723 LP  0  0  0  0  0  0  0  0  0  0  0  0  # atno 27272 bound_to 16966
  254.4927    9.8162   43.6397 LP  0  0  0  0  0  0  0  0  0  0  0  0  # atno 27273 bound_to 11466
  255.6452    6.1493   41.6740 LP  0  0  0  0  0  0  0  0  0  0  0  0  # atno 27274 bound_to 11531
  258.5061    7.4692   37.5490 LP  0  0  0  0  0  0  0  0  0  0  0  0  # atno 27275 bound_to 11610
  257.4097    8.2231   38.6578 LP  0  0  0  0  0  0  0  0  0  0  0  0  # atno 27276 bound_to 11610
  258.0735    6.9187   41.6728 LP  0  0  0  0  0  0  0  0  0  0  0  0  # atno 27279 bound_to 11607
  254.8422   13.5534   42.1061 LP  0  0  0  0  0  0  0  0  0  0  0  0  # atno 27282 bound_to 11418
  253.8043   12.7184   41.1614 LP  0  0  0  0  0  0  0  0  0  0  0  0  # atno 27283 bound_to 11418
  251.7119   11.8342   29.9247 LP  0  0  0  0  0  0  0  0  0  0  0  0  # atno 27284 bound_to 18693
  253.3866   11.5271   29.6070 LP  0  0  0  0  0  0  0  0  0  0  0  0  # atno 27285 bound_to 18693

> <Gold.Score>
     Fitness  S(hb_ext) S(vdw_ext)  S(hb_int)    S(int)      intcor
     38.52       5.53      25.19       0.00      -1.65      -0.76

> <Gold.Goldscore.Fitness>
38.5171

> <Gold.Goldscore.Internal.Vdw>
-1.9342

> <Gold.Goldscore.Internal.Torsion>
-0.4751

> <Gold.Goldscore.External.Vdw>
25.1887

> <Gold.Goldscore.Internal.HBond>
0.0000

> <Gold.Goldscore.External.HBond>
5.5336

> <Gold.Goldscore.Internal.Correction>
-0.7585

> <Gold.Goldscore.Hbonds>
donor molecule, donor type, donor heavy atom, donor atom, acceptor molecule, acceptor atom, score
      P1  H 11473 11505       L1    17  0.01
      P1  H 19354 19405       L1    17  0.59
      L1  H    10    23       P1 18474  1.00

> <Gold.Goldscore.Internal.Vdw.Weighted>
-1.9342

> <Gold.Goldscore.Internal.Torsion.Weighted>
-0.4751

> <Gold.Goldscore.External.Vdw.Weighted>
34.6344

> <Gold.Goldscore.Internal.HBond.Weighted>
0.0000

> <Gold.Goldscore.External.HBond.Weighted>
5.5336

> <Gold.Goldscore.Internal.Correction.Weighted>
-0.7585

> <Gold.Rescore>
     Score     S(PLP)   S(hbond)     S(cho)   S(metal)  DE(clash)   DE(tors)     intcor
     29.61     -26.78       1.50       0.00       0.00       1.38       0.14       ----

> <Gold.PLP.Fitness>
29.6078

> <Gold.PLP.PLP>
-26.7780

> <Gold.PLP.part.hbond>
-3.8116

> <Gold.PLP.part.metal>
0.0000

> <Gold.PLP.part.buried>
-1.6256

> <Gold.PLP.part.nonpolar>
-24.0010

> <Gold.PLP.part.repulsive>
1.2275

> <Gold.PLP.ligand.clash>
1.3821

> <Gold.PLP.ligand.torsion>
0.1434

> <Gold.PLP.Chemscore.Hbond>
1.4996

> <Gold.PLP.Chemscore.CHOScore>
0.0000

> <Gold.PLP.Chemscore.Metal>
0.0000

> <Gold.Chemscore.Hbonds>
donor molecule, donor type, donor heavy atom, donor atom, acceptor molecule, acceptor atom, score
      L1  H    10    23       P1 18474  0.86
      P1  H 19354 19405       L1    17  0.59

> <Gold.PLP.Chemscore.Internal.Correction>
   9.000000E+99

