#       Name:                CT1002167954
#       Creating user name   hitesit
#       Creation time:       Sun Apr 16 20:31:16 2023


#       File generated by GOLD software.
#

@<TRIPOS>MOLECULE
CT1002167954|ligand_prepared|mol2|1|dock7
    29    30     1
SMALL
NO_CHARGES


@<TRIPOS>ATOM
      1 C1         250.3886   7.8072  36.1950 C.3            1 RES1               0.0000
      2 C2         250.0236   8.9942  37.1096 C.ar           1 RES1               0.0000
      3 C3         251.2114   8.3870  35.0483 C.2            1 RES1               0.0000
      4 C4         251.1497   6.8149  37.0672 C.2            1 RES1               0.0000
      5 C5         249.1622   7.0771  35.5995 C.3            1 RES1               0.0000
      6 C6         248.9192   9.7926  36.8276 C.ar           1 RES1               0.0000
      7 C7         250.7788   9.3010  38.2384 C.ar           1 RES1               0.0000
      8 N8         252.5539   8.1471  35.0496 N.am           1 RES1               0.0000
      9 O9         250.6963   9.0776  34.1776 O.2            1 RES1               0.0000
     10 N10        252.4700   6.5879  36.7792 N.am           1 RES1               0.0000
     11 O11        250.6224   6.2401  38.0116 O.2            1 RES1               0.0000
     12 C12        249.4852   5.7093  35.0191 C.3            1 RES1               0.0000
     13 C13        248.5802  10.8574  37.6459 C.ar           1 RES1               0.0000
     14 C14        250.4382  10.3665  39.0553 C.ar           1 RES1               0.0000
     15 C15        253.2147   7.2320  35.8291 C.2            1 RES1               0.0000
     16 C16        249.3391  11.1448  38.7604 C.ar           1 RES1               0.0000
     17 O17        254.4114   7.0119  35.6660 O.2            1 RES1               0.0000
     18 H18        248.4063   6.9577  36.3854 H              1 RES1               0.0000
     19 H19        248.7285   7.7024  34.8093 H              1 RES1               0.0000
     20 H20        248.3115   9.5832  35.9536 H              1 RES1               0.0000
     21 H21        251.6483   8.7031  38.4893 H              1 RES1               0.0000
     22 H22        253.1188   8.6991  34.4120 H              1 RES1               0.0000
     23 H23        252.9413   5.8723  37.3234 H              1 RES1               0.0000
     24 H24        248.5903   5.2407  34.6149 H              1 RES1               0.0000
     25 H25        250.2156   5.7931  34.2171 H              1 RES1               0.0000
     26 H26        249.8954   5.0529  35.7839 H              1 RES1               0.0000
     27 H27        247.7150  11.4677  37.4087 H              1 RES1               0.0000
     28 H28        251.0387  10.5894  39.9311 H              1 RES1               0.0000
     29 H29        249.0731  11.9787  39.4015 H              1 RES1               0.0000
@<TRIPOS>BOND
    1    1    2 1     
    2    1    3 1     
    3    1    4 1     
    4    1    5 1     
    5    2    6 ar    
    6    2    7 ar    
    7    3    8 1     
    8    3    9 2     
    9    4   10 1     
   10    4   11 2     
   11    5   12 1     
   12    5   18 1     
   13    5   19 1     
   14    6   13 ar    
   15    6   20 1     
   16    7   14 ar    
   17    7   21 1     
   18    8   15 1     
   19    8   22 1     
   20   10   15 1     
   21   10   23 1     
   22   12   24 1     
   23   12   25 1     
   24   12   26 1     
   25   13   16 ar    
   26   13   27 1     
   27   14   16 ar    
   28   14   28 1     
   29   15   17 2     
   30   16   29 1     
@<TRIPOS>SUBSTRUCTURE
      1 RES1           1
@<TRIPOS>SET
DONOR_HYDROGENS      STATIC     ATOMS    <user>   **** ""
2 22 23
ATOM$RED        STATIC     ATOMS    COLORGROUP SYSTEM
2 22 23
@<TRIPOS>COMMENT
> <Gold.Version>
2022.3.0

> <Gold.Id.Protein>
unknown|4v3u_clean|pdb

> <Gold.Protein.RotatedTorsions>
[  581  535  534  533 ] final  -89.86 input   59.97 | X-H torsion
[ 2566 2531 2532 2533 ] final  -97.10 input  112.83 | X-H torsion
[ 2636 2605 2606 2607 ] final  -62.68 input   41.41 | X-H torsion
[ 26091 26055 26054 26052 ] final  134.75 input   60.03 | X-H torsion
[ 27194 27136 27135 27131 ] final   -4.92 input   60.01 | X-H torsion
[  729  681  682  683 ] final  -67.61 input  102.19 | X-H torsion
[ 7435 7417 7418 7419 ] final -135.92 input   81.33 | X-H torsion
[ 7494 7460 7461 7462 ] final   -8.27 input  103.22 | X-H torsion
[ 7528 7515 7516 7517 ] final   -0.09 input   88.53 | X-H torsion
[ 17198 17178 17179 17180 ] final  151.44 input   47.40 | X-H torsion
[ 17258 17224 17225 17226 ] final  169.88 input  102.98 | X-H torsion
[ 18298 18277 18278 18279 ] final -104.75 input   30.52 | X-H torsion
[ 18328 18315 18316 18317 ] final   34.96 input   53.77 | X-H torsion
[ 18417 18373 18374 18375 ] final   36.74 input   42.60 | X-H torsion
[ 18502 18463 18464 18465 ] final   99.35 input  104.04 | X-H torsion
[ 18570 18535 18536 18537 ] final   60.13 input   89.36 | X-H torsion
[ 18510 18474 18473 18471 ] final -152.11 input   60.01 | X-H torsion
[ 17306 17285 17286 17287 ] final  171.23 input   49.80 | X-H torsion
[ 18250 18212 18213 18214 ] final -124.04 input   46.53 | X-H torsion
[ 18302 18282 18281 18278 ] final  155.88 input   59.98 | X-H torsion
[ 10118 10098 10097 10094 ] final  -55.75 input   59.98 | X-H torsion
[ 17002 16966 16965 16963 ] final   -3.34 input   59.99 | X-H torsion
[ 11499 11466 11467 11468 ] final   29.87 input   46.07 | X-H torsion
[ 11572 11531 11532 11533 ] final  120.90 input  118.20 | X-H torsion
[ 11648 11607 11608 11609 ] final  -68.51 input   50.96 | X-H torsion
[ 11438 11418 11417 11414 ] final   75.59 input   60.01 | X-H torsion
[ 27196 27138 27137 27135 ] final  -35.60 input   60.02 | X-H torsion
[ 19310 19290 19289 19286 ] final  178.75 input   60.00 | X-H torsion
[ 10154 10134 10135 10136 ] final  129.02 input   25.69 | X-H torsion
[ 17361 17335 17336 17337 ] final -103.39 input   65.66 | X-H torsion
[ 27200  684  683  682 ] final  102.10 input    0.00 | X-H torsion
[ 27203 2534 2533 2532 ] final  135.37 input    0.00 | X-H torsion
[ 27226 7339 7338 7337 ] final -117.63 input    0.00 | X-H torsion
[ 27232 17131 17130 17129 ] final    0.57 input    0.00 | X-H torsion
[ 27236 18215 18214 18213 ] final -120.89 input    0.00 | X-H torsion
[ 27239 18280 18279 18278 ] final -131.49 input    0.00 | X-H torsion
[ 27242 18318 18317 18316 ] final -144.70 input    0.00 | X-H torsion
[ 27245 18376 18375 18374 ] final  -11.61 input   -0.00 | X-H torsion
[ 27253 17181 17180 17179 ] final   84.77 input    0.00 | X-H torsion
[ 27255 17058 17057 17056 ] final  -56.64 input    0.00 | X-H torsion
[ 27257 17227 17226 17225 ] final  159.22 input   -0.00 | X-H torsion
[ 27267 10137 10136 10135 ] final  159.77 input    0.00 | X-H torsion
[ 27269 11416 11415 11414 ] final  114.30 input    0.00 | X-H torsion
[ 27275 11610 11609 11608 ] final  -47.47 input    0.00 | X-H torsion
[ 27284 18693 18692 18691 ] final -178.47 input    0.00 | X-H torsion

> <Gold.Protein.ActiveResidues>
 LYS309  TRP311  GLU314  MET341  HIS342  TRP414  ALA417  ARG419  CYS420  VAL421 
 GLY422  ARG423  SER462  ALA463  SER482  GLN483  LEU484  ILE485  ARG486  ALA502 
 TRP566  TYR567  LEU569  PRO570  ALA571  VAL572  SER573  ASN574  MET575  PHE589 
 SER590  GLY591  TRP592  TYR593  MET594  GLU597  ILE598  ARG601  ASP602  ASP605 
 SER607  ARG608  TRP683  HIS697  GLU699  TYR711  HEM750  H4B760 

> <Gold.Protein.RotatedAtoms>
  246.4831   25.3901   42.1524 H   0  0  0  0  0  0  0  0  0  0  0  0  # atno 581  bound_to 535 
  246.3365   23.9903   41.2764 H   0  0  0  0  0  0  0  0  0  0  0  0  # atno 582  bound_to 535 
  247.7538   24.8481   41.2369 H   0  0  0  0  0  0  0  0  0  0  0  0  # atno 583  bound_to 535 
  245.5911   25.8589   34.6531 H   0  0  0  0  0  0  0  0  0  0  0  0  # atno 729  bound_to 681 
  238.5095   19.3931   37.6379 H   0  0  0  0  0  0  0  0  0  0  0  0  # atno 2566 bound_to 2531
  238.7964   18.6678   40.2405 H   0  0  0  0  0  0  0  0  0  0  0  0  # atno 2636 bound_to 2605
  240.5347    6.8237   35.6499 H   0  0  0  0  0  0  0  0  0  0  0  0  # atno 7435 bound_to 7417
  241.7885    3.7961   33.2744 H   0  0  0  0  0  0  0  0  0  0  0  0  # atno 7494 bound_to 7460
  241.3717    1.9550   32.7126 H   0  0  0  0  0  0  0  0  0  0  0  0  # atno 7528 bound_to 7515
  248.3847   -3.5650   36.2704 H   0  0  0  0  0  0  0  0  0  0  0  0  # atno 10118 bound_to 10098
  250.7351   -4.3991   39.8103 H   0  0  0  0  0  0  0  0  0  0  0  0  # atno 10154 bound_to 10134
  254.0304   12.0623   41.3403 H   0  0  0  0  0  0  0  0  0  0  0  0  # atno 11438 bound_to 11418
  255.4432   10.2292   42.9181 H   0  0  0  0  0  0  0  0  0  0  0  0  # atno 11499 bound_to 11466
  255.2841    5.9069   42.1831 H   0  0  0  0  0  0  0  0  0  0  0  0  # atno 11572 bound_to 11531
  258.1107    6.9075   41.7170 H   0  0  0  0  0  0  0  0  0  0  0  0  # atno 11648 bound_to 11607
  255.8717    8.4987   36.0335 H   0  0  0  0  0  0  0  0  0  0  0  0  # atno 17002 bound_to 16966
  254.3107    3.6306   38.1635 H   0  0  0  0  0  0  0  0  0  0  0  0  # atno 17198 bound_to 17178
  251.1943    5.2096   39.9653 H   0  0  0  0  0  0  0  0  0  0  0  0  # atno 17258 bound_to 17224
  251.9513    6.4003   43.3103 H   0  0  0  0  0  0  0  0  0  0  0  0  # atno 17306 bound_to 17285
  250.9773    7.8404   46.3677 H   0  0  0  0  0  0  0  0  0  0  0  0  # atno 17361 bound_to 17335
  250.6965    1.7171   44.8446 H   0  0  0  0  0  0  0  0  0  0  0  0  # atno 18250 bound_to 18212
  249.8305    0.9483   41.1653 H   0  0  0  0  0  0  0  0  0  0  0  0  # atno 18298 bound_to 18277
  253.7136   -1.5727   39.5773 H   0  0  0  0  0  0  0  0  0  0  0  0  # atno 18302 bound_to 18282
  250.8780    0.7454   37.0830 H   0  0  0  0  0  0  0  0  0  0  0  0  # atno 18328 bound_to 18315
  249.4844   -0.3921   33.6798 H   0  0  0  0  0  0  0  0  0  0  0  0  # atno 18417 bound_to 18373
  252.7887    1.1338   31.1524 H   0  0  0  0  0  0  0  0  0  0  0  0  # atno 18502 bound_to 18463
  256.0336    7.4959   33.6246 H   0  0  0  0  0  0  0  0  0  0  0  0  # atno 18510 bound_to 18474
  250.0309    4.4694   29.8252 H   0  0  0  0  0  0  0  0  0  0  0  0  # atno 18570 bound_to 18535
  252.0353   22.3592   33.9037 H   0  0  0  0  0  0  0  0  0  0  0  0  # atno 19310 bound_to 19290
  241.6934   12.5115   39.8457 H   0  0  0  0  0  0  0  0  0  0  0  0  # atno 26091 bound_to 26055
  243.7298   18.9087   31.5159 H   0  0  0  0  0  0  0  0  0  0  0  0  # atno 27194 bound_to 27136
  240.3699   18.0493   33.9069 H   0  0  0  0  0  0  0  0  0  0  0  0  # atno 27196 bound_to 27138
  249.4237   22.8894   34.7602 LP  0  0  0  0  0  0  0  0  0  0  0  0  # atno 27200 bound_to 684 
  249.4201   24.2350   35.8509 LP  0  0  0  0  0  0  0  0  0  0  0  0  # atno 27201 bound_to 684 
  239.5167   20.5317   38.4996 LP  0  0  0  0  0  0  0  0  0  0  0  0  # atno 27202 bound_to 2531
  240.3499   16.4906   41.1601 LP  0  0  0  0  0  0  0  0  0  0  0  0  # atno 27203 bound_to 2534
  239.5291   16.1188   39.6809 LP  0  0  0  0  0  0  0  0  0  0  0  0  # atno 27204 bound_to 2534
  240.3340   19.3904   40.6517 LP  0  0  0  0  0  0  0  0  0  0  0  0  # atno 27205 bound_to 2605
  243.3058   12.3343   39.7206 LP  0  0  0  0  0  0  0  0  0  0  0  0  # atno 27209 bound_to 26055
  242.6309   13.8150   39.5832 LP  0  0  0  0  0  0  0  0  0  0  0  0  # atno 27210 bound_to 26055
  243.9861   20.1369   32.5527 LP  0  0  0  0  0  0  0  0  0  0  0  0  # atno 27213 bound_to 27136
  242.7664   20.2198   31.4700 LP  0  0  0  0  0  0  0  0  0  0  0  0  # atno 27214 bound_to 27136
  244.8344   24.4033   34.0633 LP  0  0  0  0  0  0  0  0  0  0  0  0  # atno 27215 bound_to 681 
  241.2863    7.3338   33.3868 LP  0  0  0  0  0  0  0  0  0  0  0  0  # atno 27226 bound_to 7339
  241.8843    8.2757   34.7116 LP  0  0  0  0  0  0  0  0  0  0  0  0  # atno 27227 bound_to 7339
  239.2914    5.6131   35.4651 LP  0  0  0  0  0  0  0  0  0  0  0  0  # atno 27228 bound_to 7417
  241.3098    5.3396   32.6019 LP  0  0  0  0  0  0  0  0  0  0  0  0  # atno 27229 bound_to 7460
  242.7726    2.5656   31.8618 LP  0  0  0  0  0  0  0  0  0  0  0  0  # atno 27230 bound_to 7515
  252.0593    2.1832   36.7896 LP  0  0  0  0  0  0  0  0  0  0  0  0  # atno 27232 bound_to 17131
  251.9017    2.4634   38.4916 LP  0  0  0  0  0  0  0  0  0  0  0  0  # atno 27233 bound_to 17131
  253.2560    5.0231   38.1545 LP  0  0  0  0  0  0  0  0  0  0  0  0  # atno 27234 bound_to 17178
  251.9335    4.4910   41.3795 LP  0  0  0  0  0  0  0  0  0  0  0  0  # atno 27235 bound_to 17224
  250.4232    2.8583   40.5887 LP  0  0  0  0  0  0  0  0  0  0  0  0  # atno 27236 bound_to 18215
  251.5216    2.8143   41.9271 LP  0  0  0  0  0  0  0  0  0  0  0  0  # atno 27237 bound_to 18215
  250.6483   -0.5764   41.4052 LP  0  0  0  0  0  0  0  0  0  0  0  0  # atno 27238 bound_to 18277
  250.2392   -2.4942   38.3225 LP  0  0  0  0  0  0  0  0  0  0  0  0  # atno 27239 bound_to 18280
  249.4284   -1.7752   39.6737 LP  0  0  0  0  0  0  0  0  0  0  0  0  # atno 27240 bound_to 18280
  250.1399   -0.3589   38.2229 LP  0  0  0  0  0  0  0  0  0  0  0  0  # atno 27241 bound_to 18315
  252.8167   -0.6560   34.8267 LP  0  0  0  0  0  0  0  0  0  0  0  0  # atno 27242 bound_to 18318
  252.2971   -1.8590   35.9594 LP  0  0  0  0  0  0  0  0  0  0  0  0  # atno 27243 bound_to 18318
  250.7917   -0.8518   34.7396 LP  0  0  0  0  0  0  0  0  0  0  0  0  # atno 27244 bound_to 18373
  249.1342    0.8909   32.6076 LP  0  0  0  0  0  0  0  0  0  0  0  0  # atno 27245 bound_to 18376
  249.5721    2.3556   31.7934 LP  0  0  0  0  0  0  0  0  0  0  0  0  # atno 27246 bound_to 18376
  251.2171    1.2661   31.9152 LP  0  0  0  0  0  0  0  0  0  0  0  0  # atno 27247 bound_to 18463
  250.2494    2.7938   29.3781 LP  0  0  0  0  0  0  0  0  0  0  0  0  # atno 27248 bound_to 18535
  253.8820    6.5861   40.6343 LP  0  0  0  0  0  0  0  0  0  0  0  0  # atno 27253 bound_to 17181
  253.8589    5.7410   42.1460 LP  0  0  0  0  0  0  0  0  0  0  0  0  # atno 27254 bound_to 17181
  257.0156    3.3603   37.8070 LP  0  0  0  0  0  0  0  0  0  0  0  0  # atno 27255 bound_to 17058
  256.6415    4.5744   36.6297 LP  0  0  0  0  0  0  0  0  0  0  0  0  # atno 27256 bound_to 17058
  251.0408    4.5932   44.6107 LP  0  0  0  0  0  0  0  0  0  0  0  0  # atno 27257 bound_to 17227
  250.0015    4.3423   43.2480 LP  0  0  0  0  0  0  0  0  0  0  0  0  # atno 27258 bound_to 17227
  254.7589    7.2624   34.6088 LP  0  0  0  0  0  0  0  0  0  0  0  0  # atno 27259 bound_to 18474
  254.6703    8.3552   33.3986 LP  0  0  0  0  0  0  0  0  0  0  0  0  # atno 27260 bound_to 18474
  250.8776    7.6781   43.8214 LP  0  0  0  0  0  0  0  0  0  0  0  0  # atno 27261 bound_to 17285
  250.0851    2.9695   43.7920 LP  0  0  0  0  0  0  0  0  0  0  0  0  # atno 27262 bound_to 18212
  252.1207   -1.8707   39.4320 LP  0  0  0  0  0  0  0  0  0  0  0  0  # atno 27263 bound_to 18282
  252.7503   -1.4696   40.8843 LP  0  0  0  0  0  0  0  0  0  0  0  0  # atno 27264 bound_to 18282
  246.9729   -4.3726   36.2179 LP  0  0  0  0  0  0  0  0  0  0  0  0  # atno 27265 bound_to 10098
  248.3698   -5.1407   35.8641 LP  0  0  0  0  0  0  0  0  0  0  0  0  # atno 27266 bound_to 10098
  249.3404   -1.3238   42.7123 LP  0  0  0  0  0  0  0  0  0  0  0  0  # atno 27267 bound_to 10137
  250.3340   -1.8807   41.4074 LP  0  0  0  0  0  0  0  0  0  0  0  0  # atno 27268 bound_to 10137
  251.9881    9.5293   42.0833 LP  0  0  0  0  0  0  0  0  0  0  0  0  # atno 27269 bound_to 11416
  251.9179    9.1811   43.7785 LP  0  0  0  0  0  0  0  0  0  0  0  0  # atno 27270 bound_to 11416
  256.6393    9.6512   35.1789 LP  0  0  0  0  0  0  0  0  0  0  0  0  # atno 27271 bound_to 16966
  256.9490    9.4691   36.7719 LP  0  0  0  0  0  0  0  0  0  0  0  0  # atno 27272 bound_to 16966
  253.6990   10.1221   42.8055 LP  0  0  0  0  0  0  0  0  0  0  0  0  # atno 27273 bound_to 11466
  256.0589    7.4348   42.5263 LP  0  0  0  0  0  0  0  0  0  0  0  0  # atno 27274 bound_to 11531
  258.2820    7.1041   37.7963 LP  0  0  0  0  0  0  0  0  0  0  0  0  # atno 27275 bound_to 11610
  257.6338    8.5882   38.4104 LP  0  0  0  0  0  0  0  0  0  0  0  0  # atno 27276 bound_to 11610
  257.8638    5.4686   40.7572 LP  0  0  0  0  0  0  0  0  0  0  0  0  # atno 27279 bound_to 11607
  255.2006   12.4967   42.3842 LP  0  0  0  0  0  0  0  0  0  0  0  0  # atno 27282 bound_to 11418
  254.3049   13.6387   41.6356 LP  0  0  0  0  0  0  0  0  0  0  0  0  # atno 27283 bound_to 11418
  253.3604   11.5990   29.4736 LP  0  0  0  0  0  0  0  0  0  0  0  0  # atno 27284 bound_to 18693
  251.7381   11.7622   30.0581 LP  0  0  0  0  0  0  0  0  0  0  0  0  # atno 27285 bound_to 18693

> <Gold.Score>
     Fitness  S(hb_ext) S(vdw_ext)  S(hb_int)    S(int)      intcor
     38.02       7.32      22.97       0.00      -0.89      -0.76

> <Gold.Goldscore.Fitness>
38.0188

> <Gold.Goldscore.Internal.Vdw>
-0.9114

> <Gold.Goldscore.Internal.Torsion>
-0.7345

> <Gold.Goldscore.External.Vdw>
22.9717

> <Gold.Goldscore.Internal.HBond>
0.0000

> <Gold.Goldscore.External.HBond>
7.3200

> <Gold.Goldscore.Internal.Correction>
-0.7585

> <Gold.Goldscore.Hbonds>
donor molecule, donor type, donor heavy atom, donor atom, acceptor molecule, acceptor atom, score
      P1  H 17224 17258       L1    11  0.20
      P1  H 16966 17002       L1    17  0.46
      L1  H    10    23       P1 17178  1.00

> <Gold.Goldscore.Internal.Vdw.Weighted>
-0.9114

> <Gold.Goldscore.Internal.Torsion.Weighted>
-0.7345

> <Gold.Goldscore.External.Vdw.Weighted>
31.5861

> <Gold.Goldscore.Internal.HBond.Weighted>
0.0000

> <Gold.Goldscore.External.HBond.Weighted>
7.3200

> <Gold.Goldscore.Internal.Correction.Weighted>
-0.7585

> <Gold.Rescore>
     Score     S(PLP)   S(hbond)     S(cho)   S(metal)  DE(clash)   DE(tors)     intcor
     15.55     -10.03       2.41       0.00       0.00       0.97       0.36       ----

> <Gold.PLP.Fitness>
15.5457

> <Gold.PLP.PLP>
-10.0271

> <Gold.PLP.part.hbond>
-4.5986

> <Gold.PLP.part.metal>
0.0000

> <Gold.PLP.part.buried>
12.9769

> <Gold.PLP.part.nonpolar>
-27.7193

> <Gold.PLP.part.repulsive>
6.8574

> <Gold.PLP.ligand.clash>
0.9711

> <Gold.PLP.ligand.torsion>
0.3646

> <Gold.PLP.Chemscore.Hbond>
2.4063

> <Gold.PLP.Chemscore.CHOScore>
0.0000

> <Gold.PLP.Chemscore.Metal>
0.0000

> <Gold.Chemscore.Hbonds>
donor molecule, donor type, donor heavy atom, donor atom, acceptor molecule, acceptor atom, score
      L1  H     8    22       P1 18474  0.05
      L1  H    10    23       P1 17178  0.73
      P1  H 17224 17258       L1    11  0.55
      P1  H 16966 17002       L1    17  0.96

> <Gold.PLP.Chemscore.Internal.Correction>
   9.000000E+99

