#       Name:                CT1002167954
#       Creating user name   hitesit
#       Creation time:       Sun Apr 16 20:31:15 2023


#       File generated by GOLD software.
#

@<TRIPOS>MOLECULE
CT1002167954|ligand_prepared|mol2|1|dock6
    29    30     1
SMALL
NO_CHARGES


@<TRIPOS>ATOM
      1 C1         251.2029  10.8207  35.7567 C.3            1 RES1               0.0000
      2 C2         251.2461  11.6964  37.0256 C.ar           1 RES1               0.0000
      3 C3         249.7959  10.9652  35.1842 C.2            1 RES1               0.0000
      4 C4         252.3040  11.3428  34.8404 C.2            1 RES1               0.0000
      5 C5         251.4734   9.3215  36.0226 C.3            1 RES1               0.0000
      6 C6         251.5550  13.0508  36.9417 C.ar           1 RES1               0.0000
      7 C7         250.9774  11.1657  38.2844 C.ar           1 RES1               0.0000
      8 N8         249.6462  11.7203  34.0585 N.am           1 RES1               0.0000
      9 O9         248.8268  10.4570  35.7346 O.2            1 RES1               0.0000
     10 N10        251.9324  11.9205  33.6546 N.am           1 RES1               0.0000
     11 O11        253.4891  11.2741  35.1420 O.2            1 RES1               0.0000
     12 C12        251.7993   8.5255  34.7688 C.3            1 RES1               0.0000
     13 C13        251.5910  13.8464  38.0748 C.ar           1 RES1               0.0000
     14 C14        251.0141  11.9631  39.4164 C.ar           1 RES1               0.0000
     15 C15        250.6520  12.1606  33.2361 C.2            1 RES1               0.0000
     16 C16        251.3202  13.3034  39.3127 C.ar           1 RES1               0.0000
     17 O17        250.3981  12.7345  32.1810 O.2            1 RES1               0.0000
     18 H18        252.3116   9.2331  36.7248 H              1 RES1               0.0000
     19 H19        250.5886   8.8822  36.4997 H              1 RES1               0.0000
     20 H20        251.7734  13.4953  35.9765 H              1 RES1               0.0000
     21 H21        250.7353  10.1136  38.3901 H              1 RES1               0.0000
     22 H22        248.6989  11.9819  33.8046 H              1 RES1               0.0000
     23 H23        252.6795  12.1970  33.0256 H              1 RES1               0.0000
     24 H24        251.9804   7.4805  35.0115 H              1 RES1               0.0000
     25 H25        250.9765   8.5707  34.0584 H              1 RES1               0.0000
     26 H26        252.6892   8.9195  34.2822 H              1 RES1               0.0000
     27 H27        251.8338  14.9004  37.9881 H              1 RES1               0.0000
     28 H28        250.8009  11.5313  40.3886 H              1 RES1               0.0000
     29 H29        251.3481  13.9270  40.2002 H              1 RES1               0.0000
@<TRIPOS>BOND
    1    1    2 1     
    2    1    3 1     
    3    1    4 1     
    4    1    5 1     
    5    2    6 ar    
    6    2    7 ar    
    7    3    8 1     
    8    3    9 2     
    9    4   10 1     
   10    4   11 2     
   11    5   12 1     
   12    5   18 1     
   13    5   19 1     
   14    6   13 ar    
   15    6   20 1     
   16    7   14 ar    
   17    7   21 1     
   18    8   15 1     
   19    8   22 1     
   20   10   15 1     
   21   10   23 1     
   22   12   24 1     
   23   12   25 1     
   24   12   26 1     
   25   13   16 ar    
   26   13   27 1     
   27   14   16 ar    
   28   14   28 1     
   29   15   17 2     
   30   16   29 1     
@<TRIPOS>SUBSTRUCTURE
      1 RES1           1
@<TRIPOS>SET
DONOR_HYDROGENS      STATIC     ATOMS    <user>   **** ""
2 22 23
ATOM$RED        STATIC     ATOMS    COLORGROUP SYSTEM
2 22 23
@<TRIPOS>COMMENT
> <Gold.Version>
2022.3.0

> <Gold.Id.Protein>
unknown|4v3u_clean|pdb

> <Gold.Protein.RotatedTorsions>
[  581  535  534  533 ] final -165.26 input   59.97 | X-H torsion
[ 2566 2531 2532 2533 ] final  -74.69 input  112.83 | X-H torsion
[ 2636 2605 2606 2607 ] final -102.33 input   41.41 | X-H torsion
[ 26091 26055 26054 26052 ] final   84.79 input   60.03 | X-H torsion
[ 27194 27136 27135 27131 ] final  153.91 input   60.01 | X-H torsion
[  729  681  682  683 ] final -176.64 input  102.19 | X-H torsion
[ 7435 7417 7418 7419 ] final    1.04 input   81.33 | X-H torsion
[ 7494 7460 7461 7462 ] final -172.94 input  103.22 | X-H torsion
[ 7528 7515 7516 7517 ] final   51.60 input   88.53 | X-H torsion
[ 17198 17178 17179 17180 ] final  174.00 input   47.40 | X-H torsion
[ 17258 17224 17225 17226 ] final  -93.67 input  102.98 | X-H torsion
[ 18298 18277 18278 18279 ] final   70.21 input   30.52 | X-H torsion
[ 18328 18315 18316 18317 ] final  165.37 input   53.77 | X-H torsion
[ 18417 18373 18374 18375 ] final  -98.58 input   42.60 | X-H torsion
[ 18502 18463 18464 18465 ] final   13.00 input  104.04 | X-H torsion
[ 18570 18535 18536 18537 ] final -130.07 input   89.36 | X-H torsion
[ 18510 18474 18473 18471 ] final -153.23 input   60.01 | X-H torsion
[ 17306 17285 17286 17287 ] final  -24.64 input   49.80 | X-H torsion
[ 18250 18212 18213 18214 ] final  -67.84 input   46.53 | X-H torsion
[ 18302 18282 18281 18278 ] final  -79.08 input   59.98 | X-H torsion
[ 10118 10098 10097 10094 ] final   92.30 input   59.98 | X-H torsion
[ 17002 16966 16965 16963 ] final  -94.64 input   59.99 | X-H torsion
[ 11499 11466 11467 11468 ] final  -85.50 input   46.07 | X-H torsion
[ 11572 11531 11532 11533 ] final -165.48 input  118.20 | X-H torsion
[ 11648 11607 11608 11609 ] final   54.30 input   50.96 | X-H torsion
[ 11438 11418 11417 11414 ] final -156.79 input   60.01 | X-H torsion
[ 27196 27138 27137 27135 ] final    6.00 input   60.02 | X-H torsion
[ 19310 19290 19289 19286 ] final   81.06 input   60.00 | X-H torsion
[ 10154 10134 10135 10136 ] final  100.60 input   25.69 | X-H torsion
[ 17361 17335 17336 17337 ] final  -63.84 input   65.66 | X-H torsion
[ 27200  684  683  682 ] final   19.08 input    0.00 | X-H torsion
[ 27203 2534 2533 2532 ] final -137.75 input    0.00 | X-H torsion
[ 27226 7339 7338 7337 ] final   51.76 input    0.00 | X-H torsion
[ 27232 17131 17130 17129 ] final  154.99 input    0.00 | X-H torsion
[ 27236 18215 18214 18213 ] final -149.48 input    0.00 | X-H torsion
[ 27239 18280 18279 18278 ] final -100.21 input    0.00 | X-H torsion
[ 27242 18318 18317 18316 ] final   94.08 input    0.00 | X-H torsion
[ 27245 18376 18375 18374 ] final  158.71 input   -0.00 | X-H torsion
[ 27253 17181 17180 17179 ] final    6.67 input    0.00 | X-H torsion
[ 27255 17058 17057 17056 ] final    6.25 input    0.00 | X-H torsion
[ 27257 17227 17226 17225 ] final  169.66 input   -0.00 | X-H torsion
[ 27267 10137 10136 10135 ] final -122.45 input    0.00 | X-H torsion
[ 27269 11416 11415 11414 ] final  149.99 input    0.00 | X-H torsion
[ 27275 11610 11609 11608 ] final  -24.48 input    0.00 | X-H torsion
[ 27284 18693 18692 18691 ] final   -7.86 input    0.00 | X-H torsion

> <Gold.Protein.ActiveResidues>
 LYS309  TRP311  GLU314  MET341  HIS342  TRP414  ALA417  ARG419  CYS420  VAL421 
 GLY422  ARG423  SER462  ALA463  SER482  GLN483  LEU484  ILE485  ARG486  ALA502 
 TRP566  TYR567  LEU569  PRO570  ALA571  VAL572  SER573  ASN574  MET575  PHE589 
 SER590  GLY591  TRP592  TYR593  MET594  GLU597  ILE598  ARG601  ASP602  ASP605 
 SER607  ARG608  TRP683  HIS697  GLU699  TYR711  HEM750  H4B760 

> <Gold.Protein.RotatedAtoms>
  247.5557   25.3847   41.6837 H   0  0  0  0  0  0  0  0  0  0  0  0  # atno 581  bound_to 535 
  246.0159   24.8556   41.9960 H   0  0  0  0  0  0  0  0  0  0  0  0  # atno 582  bound_to 535 
  247.0016   23.9874   40.9856 H   0  0  0  0  0  0  0  0  0  0  0  0  # atno 583  bound_to 535 
  244.6447   24.8371   34.9577 H   0  0  0  0  0  0  0  0  0  0  0  0  # atno 729  bound_to 681 
  238.3604   19.3932   37.9474 H   0  0  0  0  0  0  0  0  0  0  0  0  # atno 2566 bound_to 2531
  239.2308   18.2555   40.2054 H   0  0  0  0  0  0  0  0  0  0  0  0  # atno 2636 bound_to 2605
  239.3402    5.9663   34.9333 H   0  0  0  0  0  0  0  0  0  0  0  0  # atno 7435 bound_to 7417
  241.0863    5.2941   32.6638 H   0  0  0  0  0  0  0  0  0  0  0  0  # atno 7494 bound_to 7460
  241.9454    2.2221   33.1563 H   0  0  0  0  0  0  0  0  0  0  0  0  # atno 7528 bound_to 7515
  247.9318   -5.2639   35.8838 H   0  0  0  0  0  0  0  0  0  0  0  0  # atno 10118 bound_to 10098
  250.7970   -3.9752   39.8766 H   0  0  0  0  0  0  0  0  0  0  0  0  # atno 10154 bound_to 10134
  254.3957   13.6575   41.7193 H   0  0  0  0  0  0  0  0  0  0  0  0  # atno 11438 bound_to 11418
  254.1509    9.7895   43.5556 H   0  0  0  0  0  0  0  0  0  0  0  0  # atno 11499 bound_to 11466
  255.2319    6.4552   43.0861 H   0  0  0  0  0  0  0  0  0  0  0  0  # atno 11572 bound_to 11531
  257.4709    6.1661   40.5150 H   0  0  0  0  0  0  0  0  0  0  0  0  # atno 11648 bound_to 11607
  256.3226    9.3241   35.0808 H   0  0  0  0  0  0  0  0  0  0  0  0  # atno 17002 bound_to 16966
  254.0234    3.4969   38.0264 H   0  0  0  0  0  0  0  0  0  0  0  0  # atno 17198 bound_to 17178
  252.3375    5.2899   40.6321 H   0  0  0  0  0  0  0  0  0  0  0  0  # atno 17258 bound_to 17224
  250.7065    7.5078   43.8227 H   0  0  0  0  0  0  0  0  0  0  0  0  # atno 17306 bound_to 17285
  250.4187    7.6698   46.2406 H   0  0  0  0  0  0  0  0  0  0  0  0  # atno 17361 bound_to 17335
  251.2094    2.0319   44.2723 H   0  0  0  0  0  0  0  0  0  0  0  0  # atno 18250 bound_to 18212
  250.5960   -0.6263   41.3737 H   0  0  0  0  0  0  0  0  0  0  0  0  # atno 18298 bound_to 18277
  252.6706   -1.4838   40.8663 H   0  0  0  0  0  0  0  0  0  0  0  0  # atno 18302 bound_to 18282
  249.6832    0.1748   38.0075 H   0  0  0  0  0  0  0  0  0  0  0  0  # atno 18328 bound_to 18315
  250.6295   -0.2133   34.8169 H   0  0  0  0  0  0  0  0  0  0  0  0  # atno 18417 bound_to 18373
  251.6708    0.7577   30.8340 H   0  0  0  0  0  0  0  0  0  0  0  0  # atno 18502 bound_to 18463
  256.0344    7.4836   33.6383 H   0  0  0  0  0  0  0  0  0  0  0  0  # atno 18510 bound_to 18474
  250.1037    2.7552   29.4220 H   0  0  0  0  0  0  0  0  0  0  0  0  # atno 18570 bound_to 18535
  253.2192   21.5951   33.9334 H   0  0  0  0  0  0  0  0  0  0  0  0  # atno 19310 bound_to 19290
  242.2919   11.9956   39.8606 H   0  0  0  0  0  0  0  0  0  0  0  0  # atno 26091 bound_to 26055
  243.0205   20.5566   31.9307 H   0  0  0  0  0  0  0  0  0  0  0  0  # atno 27194 bound_to 27136
  240.6511   18.4009   34.3962 H   0  0  0  0  0  0  0  0  0  0  0  0  # atno 27196 bound_to 27138
  248.9131   23.0434   35.7767 LP  0  0  0  0  0  0  0  0  0  0  0  0  # atno 27200 bound_to 684 
  249.9307   24.0810   34.8344 LP  0  0  0  0  0  0  0  0  0  0  0  0  # atno 27201 bound_to 684 
  239.6624   20.5316   38.1973 LP  0  0  0  0  0  0  0  0  0  0  0  0  # atno 27202 bound_to 2531
  239.2014   16.3698   40.8688 LP  0  0  0  0  0  0  0  0  0  0  0  0  # atno 27203 bound_to 2534
  240.6776   16.2396   39.9721 LP  0  0  0  0  0  0  0  0  0  0  0  0  # atno 27204 bound_to 2534
  239.9100   19.7928   40.6860 LP  0  0  0  0  0  0  0  0  0  0  0  0  # atno 27205 bound_to 2605
  243.4504   13.1085   39.6036 LP  0  0  0  0  0  0  0  0  0  0  0  0  # atno 27209 bound_to 26055
  241.8833   13.5605   39.6851 LP  0  0  0  0  0  0  0  0  0  0  0  0  # atno 27210 bound_to 26055
  243.2389   19.1220   31.1937 LP  0  0  0  0  0  0  0  0  0  0  0  0  # atno 27213 bound_to 27136
  244.2274   19.5761   32.4115 LP  0  0  0  0  0  0  0  0  0  0  0  0  # atno 27214 bound_to 27136
  245.7726   25.4162   33.7612 LP  0  0  0  0  0  0  0  0  0  0  0  0  # atno 27215 bound_to 681 
  241.7841    8.3883   34.6575 LP  0  0  0  0  0  0  0  0  0  0  0  0  # atno 27226 bound_to 7339
  241.3865    7.2212   33.4410 LP  0  0  0  0  0  0  0  0  0  0  0  0  # atno 27227 bound_to 7339
  240.4681    6.4577   36.1711 LP  0  0  0  0  0  0  0  0  0  0  0  0  # atno 27228 bound_to 7417
  241.9889    3.8907   33.1925 LP  0  0  0  0  0  0  0  0  0  0  0  0  # atno 27229 bound_to 7460
  242.2145    2.3057   31.4301 LP  0  0  0  0  0  0  0  0  0  0  0  0  # atno 27230 bound_to 7515
  252.1725    2.1924   38.4749 LP  0  0  0  0  0  0  0  0  0  0  0  0  # atno 27232 bound_to 17131
  251.7886    2.4542   36.8063 LP  0  0  0  0  0  0  0  0  0  0  0  0  # atno 27233 bound_to 17131
  253.5371    5.1540   38.2887 LP  0  0  0  0  0  0  0  0  0  0  0  0  # atno 27234 bound_to 17178
  250.8263    4.4132   40.7336 LP  0  0  0  0  0  0  0  0  0  0  0  0  # atno 27235 bound_to 17224
  250.7806    2.6883   40.4265 LP  0  0  0  0  0  0  0  0  0  0  0  0  # atno 27236 bound_to 18215
  251.1643    2.9843   42.0893 LP  0  0  0  0  0  0  0  0  0  0  0  0  # atno 27237 bound_to 18215
  249.8985    0.9659   41.2011 LP  0  0  0  0  0  0  0  0  0  0  0  0  # atno 27238 bound_to 18277
  250.5469   -2.5036   38.6735 LP  0  0  0  0  0  0  0  0  0  0  0  0  # atno 27239 bound_to 18280
  249.1207   -1.7658   39.3228 LP  0  0  0  0  0  0  0  0  0  0  0  0  # atno 27240 bound_to 18280
  251.2963    0.1932   37.3281 LP  0  0  0  0  0  0  0  0  0  0  0  0  # atno 27241 bound_to 18315
  252.4071   -2.0734   35.1443 LP  0  0  0  0  0  0  0  0  0  0  0  0  # atno 27242 bound_to 18318
  252.7066   -0.4416   35.6418 LP  0  0  0  0  0  0  0  0  0  0  0  0  # atno 27243 bound_to 18318
  249.6608   -1.0283   33.6165 LP  0  0  0  0  0  0  0  0  0  0  0  0  # atno 27244 bound_to 18373
  249.6013    2.4067   31.9273 LP  0  0  0  0  0  0  0  0  0  0  0  0  # atno 27245 bound_to 18376
  249.1050    0.8399   32.4738 LP  0  0  0  0  0  0  0  0  0  0  0  0  # atno 27246 bound_to 18376
  252.2927    1.6280   32.2215 LP  0  0  0  0  0  0  0  0  0  0  0  0  # atno 27247 bound_to 18463
  250.1783    4.4662   29.7714 LP  0  0  0  0  0  0  0  0  0  0  0  0  # atno 27248 bound_to 18535
  254.4918    5.7414   40.9591 LP  0  0  0  0  0  0  0  0  0  0  0  0  # atno 27253 bound_to 17181
  253.2492    6.5857   41.8212 LP  0  0  0  0  0  0  0  0  0  0  0  0  # atno 27254 bound_to 17181
  257.5884    3.5598   37.1372 LP  0  0  0  0  0  0  0  0  0  0  0  0  # atno 27255 bound_to 17058
  256.0688    4.3749   37.2995 LP  0  0  0  0  0  0  0  0  0  0  0  0  # atno 27256 bound_to 17058
  250.9145    4.6606   44.6764 LP  0  0  0  0  0  0  0  0  0  0  0  0  # atno 27257 bound_to 17227
  250.1278    4.2748   43.1823 LP  0  0  0  0  0  0  0  0  0  0  0  0  # atno 27258 bound_to 17227
  254.7434    7.2723   34.6061 LP  0  0  0  0  0  0  0  0  0  0  0  0  # atno 27259 bound_to 18474
  254.6850    8.3577   33.3875 LP  0  0  0  0  0  0  0  0  0  0  0  0  # atno 27260 bound_to 18474
  252.1019    6.5889   43.3174 LP  0  0  0  0  0  0  0  0  0  0  0  0  # atno 27261 bound_to 17285
  249.5820    2.6606   44.3535 LP  0  0  0  0  0  0  0  0  0  0  0  0  # atno 27262 bound_to 18212
  253.7489   -1.5547   39.6501 LP  0  0  0  0  0  0  0  0  0  0  0  0  # atno 27263 bound_to 18282
  252.1728   -1.8752   39.3676 LP  0  0  0  0  0  0  0  0  0  0  0  0  # atno 27264 bound_to 18282
  248.7109   -3.8612   36.1552 LP  0  0  0  0  0  0  0  0  0  0  0  0  # atno 27265 bound_to 10098
  247.0878   -3.9413   36.3160 LP  0  0  0  0  0  0  0  0  0  0  0  0  # atno 27266 bound_to 10098
  250.4254   -1.3589   42.6471 LP  0  0  0  0  0  0  0  0  0  0  0  0  # atno 27267 bound_to 10137
  249.2491   -1.8456   41.4726 LP  0  0  0  0  0  0  0  0  0  0  0  0  # atno 27268 bound_to 10137
  252.2261    9.0617   42.1633 LP  0  0  0  0  0  0  0  0  0  0  0  0  # atno 27269 bound_to 11416
  251.6799    9.6487   43.6985 LP  0  0  0  0  0  0  0  0  0  0  0  0  # atno 27270 bound_to 11416
  257.1064    9.7572   36.4394 LP  0  0  0  0  0  0  0  0  0  0  0  0  # atno 27271 bound_to 16966
  256.0277    8.5316   36.4711 LP  0  0  0  0  0  0  0  0  0  0  0  0  # atno 27272 bound_to 16966
  254.9453   10.5461   42.1907 LP  0  0  0  0  0  0  0  0  0  0  0  0  # atno 27273 bound_to 11466
  256.1101    6.8979   41.6421 LP  0  0  0  0  0  0  0  0  0  0  0  0  # atno 27274 bound_to 11531
  258.0588    6.9889   38.0328 LP  0  0  0  0  0  0  0  0  0  0  0  0  # atno 27275 bound_to 11610
  257.8571    8.7034   38.1739 LP  0  0  0  0  0  0  0  0  0  0  0  0  # atno 27276 bound_to 11610
  258.4902    6.1944   41.9338 LP  0  0  0  0  0  0  0  0  0  0  0  0  # atno 27279 bound_to 11607
  253.9642   12.1508   41.2821 LP  0  0  0  0  0  0  0  0  0  0  0  0  # atno 27282 bound_to 11418
  255.1733   12.3778   42.3559 LP  0  0  0  0  0  0  0  0  0  0  0  0  # atno 27283 bound_to 11418
  251.7130   11.8287   29.9354 LP  0  0  0  0  0  0  0  0  0  0  0  0  # atno 27284 bound_to 18693
  253.3855   11.5326   29.5964 LP  0  0  0  0  0  0  0  0  0  0  0  0  # atno 27285 bound_to 18693

> <Gold.Score>
     Fitness  S(hb_ext) S(vdw_ext)  S(hb_int)    S(int)      intcor
     33.53       7.67      19.16       0.00      -0.47      -0.76

> <Gold.Goldscore.Fitness>
33.5345

> <Gold.Goldscore.Internal.Vdw>
-0.5017

> <Gold.Goldscore.Internal.Torsion>
-0.7287

> <Gold.Goldscore.External.Vdw>
19.1572

> <Gold.Goldscore.Internal.HBond>
0.0000

> <Gold.Goldscore.External.HBond>
7.6651

> <Gold.Goldscore.Internal.Correction>
-0.7585

> <Gold.Goldscore.Hbonds>
donor molecule, donor type, donor heavy atom, donor atom, acceptor molecule, acceptor atom, score
      P1  H 11473 11505       L1    11  0.78
      P1  H 19354 19405       L1    11  0.02
      L1  H    10    23       P1 19017  1.00

> <Gold.Goldscore.Internal.Vdw.Weighted>
-0.5017

> <Gold.Goldscore.Internal.Torsion.Weighted>
-0.7287

> <Gold.Goldscore.External.Vdw.Weighted>
26.3412

> <Gold.Goldscore.Internal.HBond.Weighted>
0.0000

> <Gold.Goldscore.External.HBond.Weighted>
7.6651

> <Gold.Goldscore.Internal.Correction.Weighted>
-0.7585

> <Gold.Rescore>
     Score     S(PLP)   S(hbond)     S(cho)   S(metal)  DE(clash)   DE(tors)     intcor
      4.26       0.48       2.29       0.00       0.00       0.00       1.06       ----

> <Gold.PLP.Fitness>
4.2622

> <Gold.PLP.PLP>
0.4804

> <Gold.PLP.part.hbond>
-3.0000

> <Gold.PLP.part.metal>
0.0000

> <Gold.PLP.part.buried>
12.5938

> <Gold.PLP.part.nonpolar>
-15.8549

> <Gold.PLP.part.repulsive>
6.1364

> <Gold.PLP.ligand.clash>
0.0000

> <Gold.PLP.ligand.torsion>
1.0607

> <Gold.PLP.Chemscore.Hbond>
2.2880

> <Gold.PLP.Chemscore.CHOScore>
0.0000

> <Gold.PLP.Chemscore.Metal>
0.0000

> <Gold.Chemscore.Hbonds>
donor molecule, donor type, donor heavy atom, donor atom, acceptor molecule, acceptor atom, score
      L1  H     8    22       P1 26924  0.18
      L1  H    10    23       P1 19017  0.86
      P1  H 11473 11505       L1    11  1.00

> <Gold.PLP.Chemscore.Internal.Correction>
   9.000000E+99

