#       Name:                CT1002167954
#       Creating user name   hitesit
#       Creation time:       Sun Apr 16 20:31:18 2023


#       File generated by GOLD software.
#

@<TRIPOS>MOLECULE
CT1002167954|ligand_prepared|mol2|1|dock10
    29    30     1
SMALL
NO_CHARGES


@<TRIPOS>ATOM
      1 C1         249.5273  13.8027  35.9536 C.3            1 RES1               0.0000
      2 C2         249.5489  13.0929  34.5845 C.ar           1 RES1               0.0000
      3 C3         250.6727  13.2039  36.7647 C.2            1 RES1               0.0000
      4 C4         249.6815  15.2918  35.6647 C.2            1 RES1               0.0000
      5 C5         248.2111  13.6025  36.7405 C.3            1 RES1               0.0000
      6 C6         250.6531  12.3418  34.1931 C.ar           1 RES1               0.0000
      7 C7         248.4730  13.1778  33.7048 C.ar           1 RES1               0.0000
      8 N8         251.7847  13.9714  36.9496 N.am           1 RES1               0.0000
      9 O9         250.6169  12.0611  37.2019 O.2            1 RES1               0.0000
     10 N10        250.8211  15.9157  36.1005 N.am           1 RES1               0.0000
     11 O11        248.8341  15.9268  35.0491 O.2            1 RES1               0.0000
     12 C12        248.2390  14.1914  38.1421 C.3            1 RES1               0.0000
     13 C13        250.6797  11.6963  32.9679 C.ar           1 RES1               0.0000
     14 C14        248.5017  12.5317  32.4800 C.ar           1 RES1               0.0000
     15 C15        251.8936  15.3164  36.7029 C.2            1 RES1               0.0000
     16 C16        249.6040  11.7904  32.1108 C.ar           1 RES1               0.0000
     17 O17        252.9063  15.9352  37.0169 O.2            1 RES1               0.0000
     18 H18        247.3902  14.0656  36.1791 H              1 RES1               0.0000
     19 H19        248.0031  12.5278  36.8132 H              1 RES1               0.0000
     20 H20        251.5099  12.2583  34.8533 H              1 RES1               0.0000
     21 H21        247.5957  13.7563  33.9737 H              1 RES1               0.0000
     22 H22        252.6119  13.5019  37.3039 H              1 RES1               0.0000
     23 H23        250.8748  16.9200  35.9632 H              1 RES1               0.0000
     24 H24        247.2917  14.0233  38.6501 H              1 RES1               0.0000
     25 H25        249.0279  13.7353  38.7365 H              1 RES1               0.0000
     26 H26        248.4187  15.2639  38.1063 H              1 RES1               0.0000
     27 H27        251.5501  11.1153  32.6815 H              1 RES1               0.0000
     28 H28        247.6531  12.6091  31.8083 H              1 RES1               0.0000
     29 H29        249.6249  11.2844  31.1513 H              1 RES1               0.0000
@<TRIPOS>BOND
    1    1    2 1     
    2    1    3 1     
    3    1    4 1     
    4    1    5 1     
    5    2    6 ar    
    6    2    7 ar    
    7    3    8 1     
    8    3    9 2     
    9    4   10 1     
   10    4   11 2     
   11    5   12 1     
   12    5   18 1     
   13    5   19 1     
   14    6   13 ar    
   15    6   20 1     
   16    7   14 ar    
   17    7   21 1     
   18    8   15 1     
   19    8   22 1     
   20   10   15 1     
   21   10   23 1     
   22   12   24 1     
   23   12   25 1     
   24   12   26 1     
   25   13   16 ar    
   26   13   27 1     
   27   14   16 ar    
   28   14   28 1     
   29   15   17 2     
   30   16   29 1     
@<TRIPOS>SUBSTRUCTURE
      1 RES1           1
@<TRIPOS>SET
DONOR_HYDROGENS      STATIC     ATOMS    <user>   **** ""
2 22 23
ATOM$RED        STATIC     ATOMS    COLORGROUP SYSTEM
2 22 23
@<TRIPOS>COMMENT
> <Gold.Version>
2022.3.0

> <Gold.Id.Protein>
unknown|4v3u_clean|pdb

> <Gold.Protein.RotatedTorsions>
[  581  535  534  533 ] final   69.38 input   59.97 | X-H torsion
[ 2566 2531 2532 2533 ] final   86.49 input  112.83 | X-H torsion
[ 2636 2605 2606 2607 ] final -101.34 input   41.41 | X-H torsion
[ 26091 26055 26054 26052 ] final   52.46 input   60.03 | X-H torsion
[ 27194 27136 27135 27131 ] final -179.90 input   60.01 | X-H torsion
[  729  681  682  683 ] final   56.42 input  102.19 | X-H torsion
[ 7435 7417 7418 7419 ] final   24.24 input   81.33 | X-H torsion
[ 7494 7460 7461 7462 ] final -114.38 input  103.22 | X-H torsion
[ 7528 7515 7516 7517 ] final  111.37 input   88.53 | X-H torsion
[ 17198 17178 17179 17180 ] final  -14.21 input   47.40 | X-H torsion
[ 17258 17224 17225 17226 ] final   -6.47 input  102.98 | X-H torsion
[ 18298 18277 18278 18279 ] final  165.60 input   30.52 | X-H torsion
[ 18328 18315 18316 18317 ] final  -90.84 input   53.77 | X-H torsion
[ 18417 18373 18374 18375 ] final  -43.29 input   42.60 | X-H torsion
[ 18502 18463 18464 18465 ] final  150.62 input  104.04 | X-H torsion
[ 18570 18535 18536 18537 ] final    3.22 input   89.36 | X-H torsion
[ 18510 18474 18473 18471 ] final   -3.64 input   60.01 | X-H torsion
[ 17306 17285 17286 17287 ] final -153.08 input   49.80 | X-H torsion
[ 18250 18212 18213 18214 ] final  174.18 input   46.53 | X-H torsion
[ 18302 18282 18281 18278 ] final  146.30 input   59.98 | X-H torsion
[ 10118 10098 10097 10094 ] final  166.42 input   59.98 | X-H torsion
[ 17002 16966 16965 16963 ] final  -19.01 input   59.99 | X-H torsion
[ 11499 11466 11467 11468 ] final  173.50 input   46.07 | X-H torsion
[ 11572 11531 11532 11533 ] final   61.41 input  118.20 | X-H torsion
[ 11648 11607 11608 11609 ] final -174.53 input   50.96 | X-H torsion
[ 11438 11418 11417 11414 ] final  -13.56 input   60.01 | X-H torsion
[ 27196 27138 27137 27135 ] final   66.14 input   60.02 | X-H torsion
[ 19310 19290 19289 19286 ] final -140.30 input   60.00 | X-H torsion
[ 10154 10134 10135 10136 ] final  -42.42 input   25.69 | X-H torsion
[ 17361 17335 17336 17337 ] final   52.53 input   65.66 | X-H torsion
[ 27200  684  683  682 ] final  -71.01 input    0.00 | X-H torsion
[ 27203 2534 2533 2532 ] final   28.52 input    0.00 | X-H torsion
[ 27226 7339 7338 7337 ] final  166.92 input    0.00 | X-H torsion
[ 27232 17131 17130 17129 ] final -152.29 input    0.00 | X-H torsion
[ 27236 18215 18214 18213 ] final -125.94 input    0.00 | X-H torsion
[ 27239 18280 18279 18278 ] final -100.81 input    0.00 | X-H torsion
[ 27242 18318 18317 18316 ] final   77.98 input    0.00 | X-H torsion
[ 27245 18376 18375 18374 ] final  103.83 input   -0.00 | X-H torsion
[ 27253 17181 17180 17179 ] final  -49.66 input    0.00 | X-H torsion
[ 27255 17058 17057 17056 ] final  106.05 input    0.00 | X-H torsion
[ 27257 17227 17226 17225 ] final  -76.58 input   -0.00 | X-H torsion
[ 27267 10137 10136 10135 ] final -140.11 input    0.00 | X-H torsion
[ 27269 11416 11415 11414 ] final    7.94 input    0.00 | X-H torsion
[ 27275 11610 11609 11608 ] final  -97.32 input    0.00 | X-H torsion
[ 27284 18693 18692 18691 ] final  148.62 input    0.00 | X-H torsion

> <Gold.Protein.ActiveResidues>
 LYS309  TRP311  GLU314  MET341  HIS342  TRP414  ALA417  ARG419  CYS420  VAL421 
 GLY422  ARG423  SER462  ALA463  SER482  GLN483  LEU484  ILE485  ARG486  ALA502 
 TRP566  TYR567  LEU569  PRO570  ALA571  VAL572  SER573  ASN574  MET575  PHE589 
 SER590  GLY591  TRP592  TYR593  MET594  GLU597  ILE598  ARG601  ASP602  ASP605 
 SER607  ARG608  TRP683  HIS697  GLU699  TYR711  HEM750  H4B760 

> <Gold.Protein.RotatedAtoms>
  246.9176   23.9616   41.0055 H   0  0  0  0  0  0  0  0  0  0  0  0  # atno 581  bound_to 535 
  247.6051   25.3353   41.6288 H   0  0  0  0  0  0  0  0  0  0  0  0  # atno 582  bound_to 535 
  246.0493   24.9310   42.0316 H   0  0  0  0  0  0  0  0  0  0  0  0  # atno 583  bound_to 535 
  245.3693   24.7778   33.5703 H   0  0  0  0  0  0  0  0  0  0  0  0  # atno 729  bound_to 681 
  239.5613   20.5469   38.4649 H   0  0  0  0  0  0  0  0  0  0  0  0  # atno 2566 bound_to 2531
  239.2170   18.2619   40.2049 H   0  0  0  0  0  0  0  0  0  0  0  0  # atno 2636 bound_to 2605
  239.2615    5.7415   35.1945 H   0  0  0  0  0  0  0  0  0  0  0  0  # atno 7435 bound_to 7417
  240.6786    4.6705   33.1135 H   0  0  0  0  0  0  0  0  0  0  0  0  # atno 7494 bound_to 7460
  242.7041    2.5504   32.8445 H   0  0  0  0  0  0  0  0  0  0  0  0  # atno 7528 bound_to 7515
  247.0212   -4.6501   36.1435 H   0  0  0  0  0  0  0  0  0  0  0  0  # atno 10118 bound_to 10098
  249.1731   -3.6493   40.1267 H   0  0  0  0  0  0  0  0  0  0  0  0  # atno 10154 bound_to 10134
  255.0161   12.0665   42.2092 H   0  0  0  0  0  0  0  0  0  0  0  0  # atno 11438 bound_to 11418
  253.8597   10.3352   42.3269 H   0  0  0  0  0  0  0  0  0  0  0  0  # atno 11499 bound_to 11466
  255.7766    6.2919   41.5695 H   0  0  0  0  0  0  0  0  0  0  0  0  # atno 11572 bound_to 11531
  258.4648    5.5459   41.6164 H   0  0  0  0  0  0  0  0  0  0  0  0  # atno 11648 bound_to 11607
  255.8466    8.5530   35.7854 H   0  0  0  0  0  0  0  0  0  0  0  0  # atno 17002 bound_to 16966
  253.4194    5.1366   38.2460 H   0  0  0  0  0  0  0  0  0  0  0  0  # atno 17198 bound_to 17178
  251.8906    4.4636   41.4201 H   0  0  0  0  0  0  0  0  0  0  0  0  # atno 17258 bound_to 17224
  251.4617    6.1858   43.3828 H   0  0  0  0  0  0  0  0  0  0  0  0  # atno 17306 bound_to 17285
  250.1129    8.4848   45.0173 H   0  0  0  0  0  0  0  0  0  0  0  0  # atno 17361 bound_to 17335
  249.8451    2.0146   44.9221 H   0  0  0  0  0  0  0  0  0  0  0  0  # atno 18250 bound_to 18212
  250.9230    0.6062   41.6523 H   0  0  0  0  0  0  0  0  0  0  0  0  # atno 18298 bound_to 18277
  253.6416   -1.6119   39.4441 H   0  0  0  0  0  0  0  0  0  0  0  0  # atno 18302 bound_to 18282
  250.8866   -0.5400   38.0079 H   0  0  0  0  0  0  0  0  0  0  0  0  # atno 18328 bound_to 18315
  250.0620    0.2236   34.4291 H   0  0  0  0  0  0  0  0  0  0  0  0  # atno 18417 bound_to 18373
  252.7740    1.5166   31.8232 H   0  0  0  0  0  0  0  0  0  0  0  0  # atno 18502 bound_to 18463
  254.3817    8.2077   33.7277 H   0  0  0  0  0  0  0  0  0  0  0  0  # atno 18510 bound_to 18474
  250.7612    4.2398   29.4719 H   0  0  0  0  0  0  0  0  0  0  0  0  # atno 18570 bound_to 18535
  251.7691   22.3500   33.3056 H   0  0  0  0  0  0  0  0  0  0  0  0  # atno 19310 bound_to 19290
  242.8109   11.9952   39.8136 H   0  0  0  0  0  0  0  0  0  0  0  0  # atno 26091 bound_to 26055
  243.3193   20.5890   32.2304 H   0  0  0  0  0  0  0  0  0  0  0  0  # atno 27194 bound_to 27136
  240.4203   19.2489   34.7240 H   0  0  0  0  0  0  0  0  0  0  0  0  # atno 27196 bound_to 27138
  249.3587   24.1773   35.9119 LP  0  0  0  0  0  0  0  0  0  0  0  0  # atno 27200 bound_to 684 
  249.4852   22.9471   34.6992 LP  0  0  0  0  0  0  0  0  0  0  0  0  # atno 27201 bound_to 684 
  238.4890   19.4043   37.6916 LP  0  0  0  0  0  0  0  0  0  0  0  0  # atno 27202 bound_to 2531
  240.5494   16.1981   39.8149 LP  0  0  0  0  0  0  0  0  0  0  0  0  # atno 27203 bound_to 2534
  239.3297   16.4113   41.0260 LP  0  0  0  0  0  0  0  0  0  0  0  0  # atno 27204 bound_to 2534
  239.9234   19.7866   40.6865 LP  0  0  0  0  0  0  0  0  0  0  0  0  # atno 27205 bound_to 2605
  243.1839   13.5595   39.5673 LP  0  0  0  0  0  0  0  0  0  0  0  0  # atno 27209 bound_to 26055
  241.6269   13.1100   39.7687 LP  0  0  0  0  0  0  0  0  0  0  0  0  # atno 27210 bound_to 26055
  242.9573   19.4383   31.1377 LP  0  0  0  0  0  0  0  0  0  0  0  0  # atno 27213 bound_to 27136
  244.2083   19.2272   32.1659 LP  0  0  0  0  0  0  0  0  0  0  0  0  # atno 27214 bound_to 27136
  245.0542   25.4751   35.1367 LP  0  0  0  0  0  0  0  0  0  0  0  0  # atno 27215 bound_to 681 
  242.0102    7.0524   34.1080 LP  0  0  0  0  0  0  0  0  0  0  0  0  # atno 27226 bound_to 7339
  241.1604    8.5571   33.9905 LP  0  0  0  0  0  0  0  0  0  0  0  0  # atno 27227 bound_to 7339
  240.5457    6.6792   35.9138 LP  0  0  0  0  0  0  0  0  0  0  0  0  # atno 27228 bound_to 7417
  242.3832    4.4938   32.7576 LP  0  0  0  0  0  0  0  0  0  0  0  0  # atno 27229 bound_to 7460
  241.4765    1.9864   31.7335 LP  0  0  0  0  0  0  0  0  0  0  0  0  # atno 27230 bound_to 7515
  251.6325    2.7198   38.3274 LP  0  0  0  0  0  0  0  0  0  0  0  0  # atno 27232 bound_to 17131
  252.3285    1.9268   36.9538 LP  0  0  0  0  0  0  0  0  0  0  0  0  # atno 27233 bound_to 17131
  254.1282    3.5493   38.0738 LP  0  0  0  0  0  0  0  0  0  0  0  0  # atno 27234 bound_to 17178
  251.2591    5.2135   39.9705 LP  0  0  0  0  0  0  0  0  0  0  0  0  # atno 27235 bound_to 17224
  250.4787    2.8274   40.5464 LP  0  0  0  0  0  0  0  0  0  0  0  0  # atno 27236 bound_to 18215
  251.4661    2.8452   41.9694 LP  0  0  0  0  0  0  0  0  0  0  0  0  # atno 27237 bound_to 18215
  249.5782   -0.2413   40.9281 LP  0  0  0  0  0  0  0  0  0  0  0  0  # atno 27238 bound_to 18277
  250.5428   -2.5045   38.6655 LP  0  0  0  0  0  0  0  0  0  0  0  0  # atno 27239 bound_to 18280
  249.1248   -1.7649   39.3307 LP  0  0  0  0  0  0  0  0  0  0  0  0  # atno 27240 bound_to 18280
  250.1316    0.8851   37.3277 LP  0  0  0  0  0  0  0  0  0  0  0  0  # atno 27241 bound_to 18315
  252.3539   -2.0993   35.3795 LP  0  0  0  0  0  0  0  0  0  0  0  0  # atno 27242 bound_to 18318
  252.7598   -0.4157   35.4066 LP  0  0  0  0  0  0  0  0  0  0  0  0  # atno 27243 bound_to 18318
  250.2212   -1.4597   33.9996 LP  0  0  0  0  0  0  0  0  0  0  0  0  # atno 27244 bound_to 18373
  249.6209    2.2680   32.7130 LP  0  0  0  0  0  0  0  0  0  0  0  0  # atno 27245 bound_to 18376
  249.0854    0.9786   31.6880 LP  0  0  0  0  0  0  0  0  0  0  0  0  # atno 27246 bound_to 18376
  251.2312    0.8978   31.2697 LP  0  0  0  0  0  0  0  0  0  0  0  0  # atno 27247 bound_to 18463
  249.5368    3.0178   29.7227 LP  0  0  0  0  0  0  0  0  0  0  0  0  # atno 27248 bound_to 18535
  254.3141    5.4961   41.7184 LP  0  0  0  0  0  0  0  0  0  0  0  0  # atno 27253 bound_to 17181
  253.4269    6.8310   41.0619 LP  0  0  0  0  0  0  0  0  0  0  0  0  # atno 27254 bound_to 17181
  256.8755    4.5031   36.5396 LP  0  0  0  0  0  0  0  0  0  0  0  0  # atno 27255 bound_to 17058
  256.7817    3.4316   37.8971 LP  0  0  0  0  0  0  0  0  0  0  0  0  # atno 27256 bound_to 17058
  249.6917    4.7148   43.8978 LP  0  0  0  0  0  0  0  0  0  0  0  0  # atno 27257 bound_to 17227
  251.3506    4.2206   43.9609 LP  0  0  0  0  0  0  0  0  0  0  0  0  # atno 27258 bound_to 17227
  255.9093    7.8213   33.3212 LP  0  0  0  0  0  0  0  0  0  0  0  0  # atno 27259 bound_to 18474
  255.1842    7.0791   34.5823 LP  0  0  0  0  0  0  0  0  0  0  0  0  # atno 27260 bound_to 18474
  251.3591    7.8891   43.7502 LP  0  0  0  0  0  0  0  0  0  0  0  0  # atno 27261 bound_to 17285
  250.9204    2.6777   43.7160 LP  0  0  0  0  0  0  0  0  0  0  0  0  # atno 27262 bound_to 18212
  252.0379   -1.8574   39.5652 LP  0  0  0  0  0  0  0  0  0  0  0  0  # atno 27263 bound_to 18282
  252.9056   -1.4435   40.8852 LP  0  0  0  0  0  0  0  0  0  0  0  0  # atno 27264 bound_to 18282
  248.5979   -4.9592   35.8853 LP  0  0  0  0  0  0  0  0  0  0  0  0  # atno 27265 bound_to 10098
  248.1178   -3.4614   36.3244 LP  0  0  0  0  0  0  0  0  0  0  0  0  # atno 27266 bound_to 10098
  250.2049   -1.2999   42.7833 LP  0  0  0  0  0  0  0  0  0  0  0  0  # atno 27267 bound_to 10137
  249.4696   -1.9046   41.3363 LP  0  0  0  0  0  0  0  0  0  0  0  0  # atno 27268 bound_to 10137
  251.5407   10.0214   43.3000 LP  0  0  0  0  0  0  0  0  0  0  0  0  # atno 27269 bound_to 11416
  252.3653    8.6890   42.5618 LP  0  0  0  0  0  0  0  0  0  0  0  0  # atno 27270 bound_to 11416
  256.8024    9.7865   35.3243 LP  0  0  0  0  0  0  0  0  0  0  0  0  # atno 27271 bound_to 16966
  256.8112    9.2790   36.8764 LP  0  0  0  0  0  0  0  0  0  0  0  0  # atno 27272 bound_to 16966
  255.2261   10.0198   43.3757 LP  0  0  0  0  0  0  0  0  0  0  0  0  # atno 27273 bound_to 11466
  255.5767    7.0577   43.1271 LP  0  0  0  0  0  0  0  0  0  0  0  0  # atno 27274 bound_to 11531
  258.5536    7.7085   37.4900 LP  0  0  0  0  0  0  0  0  0  0  0  0  # atno 27275 bound_to 11610
  257.3622    7.9838   38.7167 LP  0  0  0  0  0  0  0  0  0  0  0  0  # atno 27276 bound_to 11610
  257.5172    6.8015   40.8557 LP  0  0  0  0  0  0  0  0  0  0  0  0  # atno 27279 bound_to 11607
  254.6810   13.6403   41.9672 LP  0  0  0  0  0  0  0  0  0  0  0  0  # atno 27282 bound_to 11418
  253.8316   12.4908   41.1774 LP  0  0  0  0  0  0  0  0  0  0  0  0  # atno 27283 bound_to 11418
  253.3501   11.3872   29.9160 LP  0  0  0  0  0  0  0  0  0  0  0  0  # atno 27284 bound_to 18693
  251.7484   11.9741   29.6157 LP  0  0  0  0  0  0  0  0  0  0  0  0  # atno 27285 bound_to 18693

> <Gold.Score>
     Fitness  S(hb_ext) S(vdw_ext)  S(hb_int)    S(int)      intcor
     30.74       6.00      19.20       0.00      -1.67      -0.76

> <Gold.Goldscore.Fitness>
30.7352

> <Gold.Goldscore.Internal.Vdw>
-2.0089

> <Gold.Goldscore.Internal.Torsion>
-0.4161

> <Gold.Goldscore.External.Vdw>
19.2012

> <Gold.Goldscore.Internal.HBond>
0.0000

> <Gold.Goldscore.External.HBond>
6.0000

> <Gold.Goldscore.Internal.Correction>
-0.7585

> <Gold.Goldscore.Hbonds>
donor molecule, donor type, donor heavy atom, donor atom, acceptor molecule, acceptor atom, score
      P1  H 11702 11753       L1    17  1.00

> <Gold.Goldscore.Internal.Vdw.Weighted>
-2.0089

> <Gold.Goldscore.Internal.Torsion.Weighted>
-0.4161

> <Gold.Goldscore.External.Vdw.Weighted>
26.4017

> <Gold.Goldscore.Internal.HBond.Weighted>
0.0000

> <Gold.Goldscore.External.HBond.Weighted>
6.0000

> <Gold.Goldscore.Internal.Correction.Weighted>
-0.7585

> <Gold.Rescore>
     Score     S(PLP)   S(hbond)     S(cho)   S(metal)  DE(clash)   DE(tors)     intcor
     24.46     -21.18       1.84       0.00       0.00       1.97       0.14       ----

> <Gold.PLP.Fitness>
24.4581

> <Gold.PLP.PLP>
-21.1789

> <Gold.PLP.part.hbond>
-2.0000

> <Gold.PLP.part.metal>
0.0000

> <Gold.PLP.part.buried>
-5.0953

> <Gold.PLP.part.nonpolar>
-15.3842

> <Gold.PLP.part.repulsive>
0.3869

> <Gold.PLP.ligand.clash>
1.9661

> <Gold.PLP.ligand.torsion>
0.1370

> <Gold.PLP.Chemscore.Hbond>
1.8398

> <Gold.PLP.Chemscore.CHOScore>
0.0000

> <Gold.PLP.Chemscore.Metal>
0.0000

> <Gold.Chemscore.Hbonds>
donor molecule, donor type, donor heavy atom, donor atom, acceptor molecule, acceptor atom, score
      P1  H 11702 11753       L1    17  1.00

> <Gold.PLP.Chemscore.Internal.Correction>
   9.000000E+99

