#       Name:                CT1002167954
#       Creating user name   hitesit
#       Creation time:       Sun Apr 16 20:29:18 2023


#       File generated by GOLD software.
#

@<TRIPOS>MOLECULE
CT1002167954|ligand_prepared|mol2|1|dock10
    29    30     1
SMALL
NO_CHARGES


@<TRIPOS>ATOM
      1 C1         222.5446  45.3302  32.6160 C.3            1 RES1               0.0000
      2 C2         221.2186  45.6323  33.3434 C.ar           1 RES1               0.0000
      3 C3         222.6969  43.8120  32.6156 C.2            1 RES1               0.0000
      4 C4         222.4177  45.9431  31.2257 C.2            1 RES1               0.0000
      5 C5         223.7868  45.9483  33.2990 C.3            1 RES1               0.0000
      6 C6         220.8941  46.9339  33.7138 C.ar           1 RES1               0.0000
      7 C7         220.3102  44.6220  33.6479 C.ar           1 RES1               0.0000
      8 N8         222.4854  43.1560  31.4388 N.am           1 RES1               0.0000
      9 O9         222.9597  43.1959  33.6411 O.2            1 RES1               0.0000
     10 N10        222.3995  45.0951  30.1494 N.am           1 RES1               0.0000
     11 O11        222.3167  47.1515  31.0536 O.2            1 RES1               0.0000
     12 C12        225.0967  45.6247  32.5978 C.3            1 RES1               0.0000
     13 C13        219.7033  47.2158  34.3625 C.ar           1 RES1               0.0000
     14 C14        219.1200  44.9061  34.2969 C.ar           1 RES1               0.0000
     15 C15        222.3967  43.7275  30.1949 C.2            1 RES1               0.0000
     16 C16        218.8153  46.2024  34.6540 C.ar           1 RES1               0.0000
     17 O17        222.3235  43.0327  29.1855 O.2            1 RES1               0.0000
     18 H18        223.6649  47.0379  33.3341 H              1 RES1               0.0000
     19 H19        223.8399  45.5834  34.3322 H              1 RES1               0.0000
     20 H20        221.5816  47.7441  33.4949 H              1 RES1               0.0000
     21 H21        220.5293  43.5946  33.3774 H              1 RES1               0.0000
     22 H22        222.3838  42.1473  31.4882 H              1 RES1               0.0000
     23 H23        222.3870  45.5229  29.2290 H              1 RES1               0.0000
     24 H24        225.9358  46.0823  33.1177 H              1 RES1               0.0000
     25 H25        225.2625  44.5498  32.5671 H              1 RES1               0.0000
     26 H26        225.0886  45.9957  31.5750 H              1 RES1               0.0000
     27 H27        219.4688  48.2375  34.6426 H              1 RES1               0.0000
     28 H28        218.4243  44.1053  34.5249 H              1 RES1               0.0000
     29 H29        217.8823  46.4236  35.1618 H              1 RES1               0.0000
@<TRIPOS>BOND
    1    1    2 1     
    2    1    3 1     
    3    1    4 1     
    4    1    5 1     
    5    2    6 ar    
    6    2    7 ar    
    7    3    8 1     
    8    3    9 2     
    9    4   10 1     
   10    4   11 2     
   11    5   12 1     
   12    5   18 1     
   13    5   19 1     
   14    6   13 ar    
   15    6   20 1     
   16    7   14 ar    
   17    7   21 1     
   18    8   15 1     
   19    8   22 1     
   20   10   15 1     
   21   10   23 1     
   22   12   24 1     
   23   12   25 1     
   24   12   26 1     
   25   13   16 ar    
   26   13   27 1     
   27   14   16 ar    
   28   14   28 1     
   29   15   17 2     
   30   16   29 1     
@<TRIPOS>SUBSTRUCTURE
      1 RES1           1
@<TRIPOS>SET
DONOR_HYDROGENS      STATIC     ATOMS    <user>   **** ""
2 22 23
ATOM$RED        STATIC     ATOMS    COLORGROUP SYSTEM
2 22 23
@<TRIPOS>COMMENT
> <Gold.Version>
2022.3.0

> <Gold.Id.Protein>
unknown|4d1n_clean|pdb

> <Gold.Protein.RotatedTorsions>
[ 1577 1535 1534 1533 ] final -104.39 input   60.00 | X-H torsion
[ 4299 4278 4277 4274 ] final  -15.20 input   59.99 | X-H torsion
[ 4339 4317 4318 4319 ] final -121.53 input  114.03 | X-H torsion
[ 4343 4322 4321 4318 ] final   95.40 input   59.99 | X-H torsion
[ 6681 6660 6659 6657 ] final  -71.91 input   60.02 | X-H torsion
[ 23749 23701 23702 23703 ] final   21.15 input   59.44 | X-H torsion
[ 23797 23783 23784 23785 ] final -129.55 input  -92.48 | X-H torsion
[ 4155 4117 4118 4119 ] final   87.85 input  119.10 | X-H torsion
[ 6906 6885 6886 6887 ] final  -60.24 input  108.16 | X-H torsion
[ 1337 1305 1306 1307 ] final  -24.99 input  118.39 | X-H torsion
[ 1567 1527 1528 1529 ] final -146.57 input   90.05 | X-H torsion
[ 4077 4043 4044 4045 ] final  -32.22 input  116.01 | X-H torsion
[ 25737 25709 25710 25711 ] final   32.14 input   60.94 | X-H torsion
[ 1631 1609 1610 1611 ] final  171.36 input  112.52 | X-H torsion
[ 1281 1253 1251 1248 ] final  128.55 input   60.01 | X-H torsion
[ 23825 23811 23812 23813 ] final   34.87 input  -23.57 | X-H torsion
[ 27193 4046 4045 4044 ] final   37.38 input   -0.00 | X-H torsion
[ 27207 23650 23649 23648 ] final  -41.25 input    0.00 | X-H torsion
[ 27210 23704 23703 23702 ] final  115.48 input    0.00 | X-H torsion
[ 27213 25712 25711 25710 ] final  -75.57 input    0.00 | X-H torsion
[ 27217 6888 6887 6886 ] final  -94.35 input    0.00 | X-H torsion
[ 27219 1308 1307 1306 ] final -175.44 input    0.00 | X-H torsion
[ 27223 1530 1529 1528 ] final  -56.50 input   -0.00 | X-H torsion
[ 27225 3782 3781 3780 ] final   25.29 input    0.00 | X-H torsion
[ 27227 3996 3995 3994 ] final  -67.22 input   -0.00 | X-H torsion

> <Gold.Protein.ActiveResidues>
 THR320  LEU321  LYS324  SER325  GLU365  PHE366  ASP368  GLN369  TYR370  SER372 
 SER373  TYR408  HIS412  ARG415  ASN416  TRP426  GLU670  CYS673  ARG674  GLY675 
 GLY676  TYR703  LEU705  THR706  PRO707 

> <Gold.Protein.RotatedAtoms>
  229.4957   44.1514   38.9043 H   0  0  0  0  0  0  0  0  0  0  0  0  # atno 1281 bound_to 1253
  228.7831   40.4883   38.3720 H   0  0  0  0  0  0  0  0  0  0  0  0  # atno 1337 bound_to 1305
  223.5646   40.1102   39.1079 H   0  0  0  0  0  0  0  0  0  0  0  0  # atno 1567 bound_to 1527
  226.1478   45.0166   37.5776 H   0  0  0  0  0  0  0  0  0  0  0  0  # atno 1577 bound_to 1535
  225.5492   45.0442   36.0324 H   0  0  0  0  0  0  0  0  0  0  0  0  # atno 1578 bound_to 1535
  225.3640   46.3653   37.0160 H   0  0  0  0  0  0  0  0  0  0  0  0  # atno 1579 bound_to 1535
  222.8799   38.2320   36.5516 H   0  0  0  0  0  0  0  0  0  0  0  0  # atno 1631 bound_to 1609
  216.4490   49.3954   32.0168 H   0  0  0  0  0  0  0  0  0  0  0  0  # atno 4077 bound_to 4043
  216.7333   49.3112   29.8301 H   0  0  0  0  0  0  0  0  0  0  0  0  # atno 4155 bound_to 4117
  221.9263   52.2600   33.8732 H   0  0  0  0  0  0  0  0  0  0  0  0  # atno 4299 bound_to 4278
  221.4413   52.0542   31.5435 H   0  0  0  0  0  0  0  0  0  0  0  0  # atno 4339 bound_to 4317
  222.0764   52.1009   26.7748 H   0  0  0  0  0  0  0  0  0  0  0  0  # atno 4343 bound_to 4322
  220.4342   48.0422   28.6179 H   0  0  0  0  0  0  0  0  0  0  0  0  # atno 6681 bound_to 6660
  223.4070   43.5431   21.5568 H   0  0  0  0  0  0  0  0  0  0  0  0  # atno 6906 bound_to 6885
  232.7148   46.0596   32.9309 H   0  0  0  0  0  0  0  0  0  0  0  0  # atno 23749 bound_to 23701
  232.3099   45.4217   34.5841 H   0  0  0  0  0  0  0  0  0  0  0  0  # atno 23797 bound_to 23783
  231.2557   42.5130   33.7515 H   0  0  0  0  0  0  0  0  0  0  0  0  # atno 23825 bound_to 23811
  220.0654   39.2863   30.3137 H   0  0  0  0  0  0  0  0  0  0  0  0  # atno 25737 bound_to 25709
  220.5185   49.4828   30.7084 LP  0  0  0  0  0  0  0  0  0  0  0  0  # atno 27193 bound_to 4046
  219.7184   50.8721   30.0530 LP  0  0  0  0  0  0  0  0  0  0  0  0  # atno 27194 bound_to 4046
  221.6612   50.6904   34.2096 LP  0  0  0  0  0  0  0  0  0  0  0  0  # atno 27195 bound_to 4278
  221.0784   51.8507   35.2000 LP  0  0  0  0  0  0  0  0  0  0  0  0  # atno 27196 bound_to 4278
  220.3504   52.5230   30.2595 LP  0  0  0  0  0  0  0  0  0  0  0  0  # atno 27197 bound_to 4317
  220.8867   52.4814   27.8169 LP  0  0  0  0  0  0  0  0  0  0  0  0  # atno 27198 bound_to 4322
  220.9134   51.0123   27.1044 LP  0  0  0  0  0  0  0  0  0  0  0  0  # atno 27199 bound_to 4322
  221.9924   48.1404   28.1582 LP  0  0  0  0  0  0  0  0  0  0  0  0  # atno 27200 bound_to 6660
  221.1950   46.7193   28.0522 LP  0  0  0  0  0  0  0  0  0  0  0  0  # atno 27201 bound_to 6660
  231.3632   49.3932   33.3267 LP  0  0  0  0  0  0  0  0  0  0  0  0  # atno 27207 bound_to 23650
  230.2183   48.4140   32.4721 LP  0  0  0  0  0  0  0  0  0  0  0  0  # atno 27208 bound_to 23650
  231.9763   47.2988   31.9456 LP  0  0  0  0  0  0  0  0  0  0  0  0  # atno 27209 bound_to 23701
  229.1846   43.6359   34.4416 LP  0  0  0  0  0  0  0  0  0  0  0  0  # atno 27210 bound_to 23704
  228.7022   45.2674   34.7667 LP  0  0  0  0  0  0  0  0  0  0  0  0  # atno 27211 bound_to 23704
  230.9839   44.5218   33.8850 LP  0  0  0  0  0  0  0  0  0  0  0  0  # atno 27212 bound_to 23783
  218.7338   41.4535   29.8213 LP  0  0  0  0  0  0  0  0  0  0  0  0  # atno 27213 bound_to 25712
  220.3351   41.5164   29.1640 LP  0  0  0  0  0  0  0  0  0  0  0  0  # atno 27214 bound_to 25712
  218.4556   49.0253   29.8836 LP  0  0  0  0  0  0  0  0  0  0  0  0  # atno 27215 bound_to 4117
  222.1113   44.4849   22.2429 LP  0  0  0  0  0  0  0  0  0  0  0  0  # atno 27216 bound_to 6885
  224.4463   40.6236   24.0743 LP  0  0  0  0  0  0  0  0  0  0  0  0  # atno 27217 bound_to 6888
  223.3269   40.8816   25.3706 LP  0  0  0  0  0  0  0  0  0  0  0  0  # atno 27218 bound_to 6888
  225.0236   39.0602   36.6113 LP  0  0  0  0  0  0  0  0  0  0  0  0  # atno 27219 bound_to 1308
  225.2598   40.6922   36.0812 LP  0  0  0  0  0  0  0  0  0  0  0  0  # atno 27220 bound_to 1308
  229.7154   41.4978   37.2856 LP  0  0  0  0  0  0  0  0  0  0  0  0  # atno 27221 bound_to 1305
  223.8109   38.9391   37.8346 LP  0  0  0  0  0  0  0  0  0  0  0  0  # atno 27222 bound_to 1527
  219.5453   39.7567   36.7525 LP  0  0  0  0  0  0  0  0  0  0  0  0  # atno 27223 bound_to 1530
  220.1889   39.2190   35.2369 LP  0  0  0  0  0  0  0  0  0  0  0  0  # atno 27224 bound_to 1530
  215.9961   45.8565   33.1312 LP  0  0  0  0  0  0  0  0  0  0  0  0  # atno 27225 bound_to 3782
  215.7134   46.5664   31.5768 LP  0  0  0  0  0  0  0  0  0  0  0  0  # atno 27226 bound_to 3782
  217.1450   51.4226   32.1601 LP  0  0  0  0  0  0  0  0  0  0  0  0  # atno 27227 bound_to 3996
  218.0685   50.5439   33.3327 LP  0  0  0  0  0  0  0  0  0  0  0  0  # atno 27228 bound_to 3996
  216.4431   47.7007   32.4229 LP  0  0  0  0  0  0  0  0  0  0  0  0  # atno 27229 bound_to 4043
  220.2499   37.6719   29.6701 LP  0  0  0  0  0  0  0  0  0  0  0  0  # atno 27230 bound_to 25709
  221.3821   38.3786   37.4413 LP  0  0  0  0  0  0  0  0  0  0  0  0  # atno 27232 bound_to 1609

> <Gold.Score>
     Fitness  S(hb_ext) S(vdw_ext)  S(hb_int)    S(int)      intcor
     30.83       1.91      22.24       0.00      -1.66      -0.76

> <Gold.Goldscore.Fitness>
30.8311

> <Gold.Goldscore.Internal.Vdw>
-2.0509

> <Gold.Goldscore.Internal.Torsion>
-0.3709

> <Gold.Goldscore.External.Vdw>
22.2427

> <Gold.Goldscore.Internal.HBond>
0.0000

> <Gold.Goldscore.External.HBond>
1.9108

> <Gold.Goldscore.Internal.Correction>
-0.7583

> <Gold.Goldscore.Hbonds>
donor molecule, donor type, donor heavy atom, donor atom, acceptor molecule, acceptor atom, score
      P1  H  4050  4083       L1    17  0.15
      P1  H  7187  7201       L1    17  0.81

> <Gold.Goldscore.Internal.Vdw.Weighted>
-2.0509

> <Gold.Goldscore.Internal.Torsion.Weighted>
-0.3709

> <Gold.Goldscore.External.Vdw.Weighted>
30.5838

> <Gold.Goldscore.Internal.HBond.Weighted>
0.0000

> <Gold.Goldscore.External.HBond.Weighted>
1.9108

> <Gold.Goldscore.Internal.Correction.Weighted>
-0.7583

> <Gold.Rescore>
     Score     S(PLP)   S(hbond)     S(cho)   S(metal)  DE(clash)   DE(tors)     intcor
     26.52     -24.21       1.34       0.00       0.00       0.83       0.44       ----

> <Gold.PLP.Fitness>
26.5211

> <Gold.PLP.PLP>
-24.2138

> <Gold.PLP.part.hbond>
-3.0000

> <Gold.PLP.part.metal>
0.0000

> <Gold.PLP.part.buried>
0.1480

> <Gold.PLP.part.nonpolar>
-26.2785

> <Gold.PLP.part.repulsive>
4.1508

> <Gold.PLP.ligand.clash>
0.8265

> <Gold.PLP.ligand.torsion>
0.4398

> <Gold.PLP.Chemscore.Hbond>
1.3378

> <Gold.PLP.Chemscore.CHOScore>
0.0000

> <Gold.PLP.Chemscore.Metal>
0.0000

> <Gold.Chemscore.Hbonds>
donor molecule, donor type, donor heavy atom, donor atom, acceptor molecule, acceptor atom, score
      P1  H  4050  4083       L1    17  0.35
      P1  H  7187  7201       L1    17  0.47

> <Gold.PLP.Chemscore.Internal.Correction>
   9.000000E+99

