#       Name:                CT1002167954
#       Creating user name   hitesit
#       Creation time:       Sun Apr 16 20:29:13 2023


#       File generated by GOLD software.
#

@<TRIPOS>MOLECULE
CT1002167954|ligand_prepared|mol2|1|dock3
    29    30     1
SMALL
NO_CHARGES


@<TRIPOS>ATOM
      1 C1         223.3192  46.7729  31.1382 C.3            1 RES1               0.0000
      2 C2         222.5526  45.6212  31.8199 C.ar           1 RES1               0.0000
      3 C3         222.5958  48.0587  31.5275 C.2            1 RES1               0.0000
      4 C4         224.7547  46.6888  31.6452 C.2            1 RES1               0.0000
      5 C5         223.3510  46.6751  29.5951 C.3            1 RES1               0.0000
      6 C6         222.0015  45.7890  33.0867 C.ar           1 RES1               0.0000
      7 C7         222.3862  44.3885  31.1944 C.ar           1 RES1               0.0000
      8 N8         223.1987  48.8707  32.4424 N.am           1 RES1               0.0000
      9 O9         221.4946  48.3365  31.0685 O.2            1 RES1               0.0000
     10 N10        225.2231  47.7170  32.4204 N.am           1 RES1               0.0000
     11 O11        225.4789  45.7334  31.3941 O.2            1 RES1               0.0000
     12 C12        223.8867  47.9238  28.9126 C.3            1 RES1               0.0000
     13 C13        221.3067  44.7626  33.7048 C.ar           1 RES1               0.0000
     14 C14        221.6912  43.3632  31.8144 C.ar           1 RES1               0.0000
     15 C15        224.5004  48.7894  32.8675 C.2            1 RES1               0.0000
     16 C16        221.1507  43.5493  33.0690 C.ar           1 RES1               0.0000
     17 O17        224.9769  49.6456  33.6071 O.2            1 RES1               0.0000
     18 H18        223.9758  45.8203  29.3083 H              1 RES1               0.0000
     19 H19        222.3336  46.4835  29.2324 H              1 RES1               0.0000
     20 H20        222.1161  46.7360  33.6036 H              1 RES1               0.0000
     21 H21        222.8038  44.2191  30.2078 H              1 RES1               0.0000
     22 H22        222.6291  49.6064  32.8480 H              1 RES1               0.0000
     23 H23        226.2013  47.6796  32.6891 H              1 RES1               0.0000
     24 H24        223.8875  47.8022  27.8314 H              1 RES1               0.0000
     25 H25        223.2739  48.7894  29.1557 H              1 RES1               0.0000
     26 H26        224.9064  48.1302  29.2312 H              1 RES1               0.0000
     27 H27        220.8844  44.9136  34.6927 H              1 RES1               0.0000
     28 H28        221.5714  42.4098  31.3106 H              1 RES1               0.0000
     29 H29        220.6060  42.7455  33.5532 H              1 RES1               0.0000
@<TRIPOS>BOND
    1    1    2 1     
    2    1    3 1     
    3    1    4 1     
    4    1    5 1     
    5    2    6 ar    
    6    2    7 ar    
    7    3    8 1     
    8    3    9 2     
    9    4   10 1     
   10    4   11 2     
   11    5   12 1     
   12    5   18 1     
   13    5   19 1     
   14    6   13 ar    
   15    6   20 1     
   16    7   14 ar    
   17    7   21 1     
   18    8   15 1     
   19    8   22 1     
   20   10   15 1     
   21   10   23 1     
   22   12   24 1     
   23   12   25 1     
   24   12   26 1     
   25   13   16 ar    
   26   13   27 1     
   27   14   16 ar    
   28   14   28 1     
   29   15   17 2     
   30   16   29 1     
@<TRIPOS>SUBSTRUCTURE
      1 RES1           1
@<TRIPOS>SET
DONOR_HYDROGENS      STATIC     ATOMS    <user>   **** ""
2 22 23
ATOM$RED        STATIC     ATOMS    COLORGROUP SYSTEM
2 22 23
@<TRIPOS>COMMENT
> <Gold.Version>
2022.3.0

> <Gold.Id.Protein>
unknown|4d1n_clean|pdb

> <Gold.Protein.RotatedTorsions>
[ 1577 1535 1534 1533 ] final   79.76 input   60.00 | X-H torsion
[ 4299 4278 4277 4274 ] final   95.61 input   59.99 | X-H torsion
[ 4339 4317 4318 4319 ] final   34.31 input  114.03 | X-H torsion
[ 4343 4322 4321 4318 ] final -136.28 input   59.99 | X-H torsion
[ 6681 6660 6659 6657 ] final -123.93 input   60.02 | X-H torsion
[ 23749 23701 23702 23703 ] final   27.56 input   59.44 | X-H torsion
[ 23797 23783 23784 23785 ] final  143.98 input  -92.48 | X-H torsion
[ 4155 4117 4118 4119 ] final   36.95 input  119.10 | X-H torsion
[ 6906 6885 6886 6887 ] final  -28.02 input  108.16 | X-H torsion
[ 1337 1305 1306 1307 ] final   -7.36 input  118.39 | X-H torsion
[ 1567 1527 1528 1529 ] final -158.25 input   90.05 | X-H torsion
[ 4077 4043 4044 4045 ] final  141.68 input  116.01 | X-H torsion
[ 25737 25709 25710 25711 ] final  -23.30 input   60.94 | X-H torsion
[ 1631 1609 1610 1611 ] final   56.22 input  112.52 | X-H torsion
[ 1281 1253 1251 1248 ] final   37.89 input   60.01 | X-H torsion
[ 23825 23811 23812 23813 ] final  -47.53 input  -23.57 | X-H torsion
[ 27193 4046 4045 4044 ] final  151.09 input   -0.00 | X-H torsion
[ 27207 23650 23649 23648 ] final  175.84 input    0.00 | X-H torsion
[ 27210 23704 23703 23702 ] final -115.23 input    0.00 | X-H torsion
[ 27213 25712 25711 25710 ] final   28.29 input    0.00 | X-H torsion
[ 27217 6888 6887 6886 ] final  115.35 input    0.00 | X-H torsion
[ 27219 1308 1307 1306 ] final -147.67 input    0.00 | X-H torsion
[ 27223 1530 1529 1528 ] final  167.50 input   -0.00 | X-H torsion
[ 27225 3782 3781 3780 ] final  -76.01 input    0.00 | X-H torsion
[ 27227 3996 3995 3994 ] final  -23.27 input   -0.00 | X-H torsion

> <Gold.Protein.ActiveResidues>
 THR320  LEU321  LYS324  SER325  GLU365  PHE366  ASP368  GLN369  TYR370  SER372 
 SER373  TYR408  HIS412  ARG415  ASN416  TRP426  GLU670  CYS673  ARG674  GLY675 
 GLY676  TYR703  LEU705  THR706  PRO707 

> <Gold.Protein.RotatedAtoms>
  229.4745   43.0268   38.1908 H   0  0  0  0  0  0  0  0  0  0  0  0  # atno 1281 bound_to 1253
  228.9064   40.2916   38.2275 H   0  0  0  0  0  0  0  0  0  0  0  0  # atno 1337 bound_to 1305
  223.6721   40.2141   39.0080 H   0  0  0  0  0  0  0  0  0  0  0  0  # atno 1567 bound_to 1527
  225.2198   45.9881   36.2159 H   0  0  0  0  0  0  0  0  0  0  0  0  # atno 1577 bound_to 1535
  225.8571   45.8490   37.7395 H   0  0  0  0  0  0  0  0  0  0  0  0  # atno 1578 bound_to 1535
  225.9841   44.5889   36.6705 H   0  0  0  0  0  0  0  0  0  0  0  0  # atno 1579 bound_to 1535
  222.0616   37.7979   37.7252 H   0  0  0  0  0  0  0  0  0  0  0  0  # atno 1631 bound_to 1609
  216.3942   47.6809   32.3440 H   0  0  0  0  0  0  0  0  0  0  0  0  # atno 4077 bound_to 4043
  217.1245   49.7630   30.2974 H   0  0  0  0  0  0  0  0  0  0  0  0  # atno 4155 bound_to 4117
  221.1109   51.9898   35.1522 H   0  0  0  0  0  0  0  0  0  0  0  0  # atno 4299 bound_to 4278
  220.4525   52.8585   30.3677 H   0  0  0  0  0  0  0  0  0  0  0  0  # atno 4339 bound_to 4317
  220.8227   51.0581   27.1956 H   0  0  0  0  0  0  0  0  0  0  0  0  # atno 4343 bound_to 4322
  221.0911   48.5279   28.5342 H   0  0  0  0  0  0  0  0  0  0  0  0  # atno 6681 bound_to 6660
  223.0053   43.2772   21.5047 H   0  0  0  0  0  0  0  0  0  0  0  0  # atno 6906 bound_to 6885
  232.7219   46.0060   32.8484 H   0  0  0  0  0  0  0  0  0  0  0  0  # atno 23749 bound_to 23701
  231.1036   45.5075   34.6830 H   0  0  0  0  0  0  0  0  0  0  0  0  # atno 23797 bound_to 23783
  232.4020   42.6262   33.6220 H   0  0  0  0  0  0  0  0  0  0  0  0  # atno 23825 bound_to 23811
  220.6549   39.1629   29.7536 H   0  0  0  0  0  0  0  0  0  0  0  0  # atno 25737 bound_to 25709
  220.0904   50.1873   29.5152 LP  0  0  0  0  0  0  0  0  0  0  0  0  # atno 27193 bound_to 4046
  220.1465   50.1676   31.2462 LP  0  0  0  0  0  0  0  0  0  0  0  0  # atno 27194 bound_to 4046
  221.9799   52.1493   33.7860 LP  0  0  0  0  0  0  0  0  0  0  0  0  # atno 27195 bound_to 4278
  221.5813   50.6640   34.3349 LP  0  0  0  0  0  0  0  0  0  0  0  0  # atno 27196 bound_to 4278
  221.3117   51.7410   31.4026 LP  0  0  0  0  0  0  0  0  0  0  0  0  # atno 27197 bound_to 4317
  222.0749   51.9784   26.7146 LP  0  0  0  0  0  0  0  0  0  0  0  0  # atno 27198 bound_to 4322
  220.9885   52.5661   27.7827 LP  0  0  0  0  0  0  0  0  0  0  0  0  # atno 27199 bound_to 4322
  222.0381   47.3428   27.9448 LP  0  0  0  0  0  0  0  0  0  0  0  0  # atno 27200 bound_to 6660
  220.4878   47.0277   28.3499 LP  0  0  0  0  0  0  0  0  0  0  0  0  # atno 27201 bound_to 6660
  230.2445   48.2382   32.9934 LP  0  0  0  0  0  0  0  0  0  0  0  0  # atno 27207 bound_to 23650
  231.3371   49.5690   32.8054 LP  0  0  0  0  0  0  0  0  0  0  0  0  # atno 27208 bound_to 23650
  231.9693   47.3512   32.0264 LP  0  0  0  0  0  0  0  0  0  0  0  0  # atno 27209 bound_to 23701
  229.0339   44.9162   35.3294 LP  0  0  0  0  0  0  0  0  0  0  0  0  # atno 27210 bound_to 23704
  228.8529   43.9871   33.8789 LP  0  0  0  0  0  0  0  0  0  0  0  0  # atno 27211 bound_to 23704
  232.1589   44.4382   33.7886 LP  0  0  0  0  0  0  0  0  0  0  0  0  # atno 27212 bound_to 23783
  219.9500   40.8416   29.8968 LP  0  0  0  0  0  0  0  0  0  0  0  0  # atno 27213 bound_to 25712
  219.1189   42.1284   29.0885 LP  0  0  0  0  0  0  0  0  0  0  0  0  # atno 27214 bound_to 25712
  218.0726   48.5829   29.4261 LP  0  0  0  0  0  0  0  0  0  0  0  0  # atno 27215 bound_to 4117
  222.5110   44.7495   22.2948 LP  0  0  0  0  0  0  0  0  0  0  0  0  # atno 27216 bound_to 6885
  223.1842   40.5128   25.1688 LP  0  0  0  0  0  0  0  0  0  0  0  0  # atno 27217 bound_to 6888
  224.5889   40.9924   24.2762 LP  0  0  0  0  0  0  0  0  0  0  0  0  # atno 27218 bound_to 6888
  224.9657   39.2862   36.9553 LP  0  0  0  0  0  0  0  0  0  0  0  0  # atno 27219 bound_to 1308
  225.3176   40.4662   35.7372 LP  0  0  0  0  0  0  0  0  0  0  0  0  # atno 27220 bound_to 1308
  229.5967   41.6873   37.4248 LP  0  0  0  0  0  0  0  0  0  0  0  0  # atno 27221 bound_to 1305
  223.7059   38.8375   37.9322 LP  0  0  0  0  0  0  0  0  0  0  0  0  # atno 27222 bound_to 1527
  219.9098   38.7356   35.5677 LP  0  0  0  0  0  0  0  0  0  0  0  0  # atno 27223 bound_to 1530
  219.8245   40.2401   36.4217 LP  0  0  0  0  0  0  0  0  0  0  0  0  # atno 27224 bound_to 1530
  215.3605   46.8905   32.5650 LP  0  0  0  0  0  0  0  0  0  0  0  0  # atno 27225 bound_to 3782
  216.3490   45.5323   32.1430 LP  0  0  0  0  0  0  0  0  0  0  0  0  # atno 27226 bound_to 3782
  216.9306   51.5242   32.7633 LP  0  0  0  0  0  0  0  0  0  0  0  0  # atno 27227 bound_to 3996
  218.2829   50.4423   32.7296 LP  0  0  0  0  0  0  0  0  0  0  0  0  # atno 27228 bound_to 3996
  216.4975   49.4031   32.0979 LP  0  0  0  0  0  0  0  0  0  0  0  0  # atno 27229 bound_to 4043
  219.6741   37.7925   30.2172 LP  0  0  0  0  0  0  0  0  0  0  0  0  # atno 27230 bound_to 25709
  222.1791   38.8013   36.2984 LP  0  0  0  0  0  0  0  0  0  0  0  0  # atno 27232 bound_to 1609

> <Gold.Score>
     Fitness  S(hb_ext) S(vdw_ext)  S(hb_int)    S(int)      intcor
     34.12       6.72      20.16       0.00      -0.33      -0.76

> <Gold.Goldscore.Fitness>
34.1220

> <Gold.Goldscore.Internal.Vdw>
-0.5501

> <Gold.Goldscore.Internal.Torsion>
-0.5350

> <Gold.Goldscore.External.Vdw>
20.1644

> <Gold.Goldscore.Internal.HBond>
0.0000

> <Gold.Goldscore.External.HBond>
6.7226

> <Gold.Goldscore.Internal.Correction>
-0.7585

> <Gold.Goldscore.Hbonds>
donor molecule, donor type, donor heavy atom, donor atom, acceptor molecule, acceptor atom, score
      P1  H 23708 23757       L1    11  1.00
      L1  H     8    22       P1  4278  0.36

> <Gold.Goldscore.Internal.Vdw.Weighted>
-0.5501

> <Gold.Goldscore.Internal.Torsion.Weighted>
-0.5350

> <Gold.Goldscore.External.Vdw.Weighted>
27.7260

> <Gold.Goldscore.Internal.HBond.Weighted>
0.0000

> <Gold.Goldscore.External.HBond.Weighted>
6.7226

> <Gold.Goldscore.Internal.Correction.Weighted>
-0.7585

> <Gold.Rescore>
     Score     S(PLP)   S(hbond)     S(cho)   S(metal)  DE(clash)   DE(tors)     intcor
     26.81     -26.81       0.69       0.00       0.00       0.00       1.03       ----

> <Gold.PLP.Fitness>
26.8074

> <Gold.PLP.PLP>
-26.8064

> <Gold.PLP.part.hbond>
-1.8027

> <Gold.PLP.part.metal>
0.0000

> <Gold.PLP.part.buried>
-3.7794

> <Gold.PLP.part.nonpolar>
-22.7127

> <Gold.PLP.part.repulsive>
0.8040

> <Gold.PLP.ligand.clash>
0.0000

> <Gold.PLP.ligand.torsion>
1.0315

> <Gold.PLP.Chemscore.Hbond>
0.6880

> <Gold.PLP.Chemscore.CHOScore>
0.0000

> <Gold.PLP.Chemscore.Metal>
0.0000

> <Gold.Chemscore.Hbonds>
donor molecule, donor type, donor heavy atom, donor atom, acceptor molecule, acceptor atom, score
      P1  H 23708 23757       L1    11  1.00

> <Gold.PLP.Chemscore.Internal.Correction>
   9.000000E+99

