#       Name:                CT1002167954
#       Creating user name   hitesit
#       Creation time:       Sun Apr 16 20:29:15 2023


#       File generated by GOLD software.
#

@<TRIPOS>MOLECULE
CT1002167954|ligand_prepared|mol2|1|dock6
    29    30     1
SMALL
NO_CHARGES


@<TRIPOS>ATOM
      1 C1         222.2248  46.7923  32.7044 C.3            1 RES1               0.0000
      2 C2         221.1693  45.7140  33.0239 C.ar           1 RES1               0.0000
      3 C3         223.5146  46.3443  33.3856 C.2            1 RES1               0.0000
      4 C4         222.3162  46.8626  31.1841 C.2            1 RES1               0.0000
      5 C5         221.8571  48.2007  33.2266 C.3            1 RES1               0.0000
      6 C6         221.2559  44.4470  32.4546 C.ar           1 RES1               0.0000
      7 C7         220.1068  45.9701  33.8864 C.ar           1 RES1               0.0000
      8 N8         224.5099  45.8529  32.5932 N.am           1 RES1               0.0000
      9 O9         223.6416  46.3847  34.6032 O.2            1 RES1               0.0000
     10 N10        223.4913  46.4784  30.5930 N.am           1 RES1               0.0000
     11 O11        221.3756  47.2315  30.4917 O.2            1 RES1               0.0000
     12 C12        222.8264  49.2884  32.7914 C.3            1 RES1               0.0000
     13 C13        220.3160  43.4705  32.7396 C.ar           1 RES1               0.0000
     14 C14        219.1678  44.9921  34.1699 C.ar           1 RES1               0.0000
     15 C15        224.5817  45.9476  31.2266 C.2            1 RES1               0.0000
     16 C16        219.2717  43.7421  33.5976 C.ar           1 RES1               0.0000
     17 O17        225.5819  45.5746  30.6203 O.2            1 RES1               0.0000
     18 H18        220.8528  48.4588  32.8688 H              1 RES1               0.0000
     19 H19        221.8258  48.1737  34.3229 H              1 RES1               0.0000
     20 H20        222.0694  44.2156  31.7751 H              1 RES1               0.0000
     21 H21        220.0044  46.9467  34.3473 H              1 RES1               0.0000
     22 H22        225.2712  45.3702  33.0599 H              1 RES1               0.0000
     23 H23        223.5595  46.5994  29.5875 H              1 RES1               0.0000
     24 H24        222.5222  50.2561  33.1847 H              1 RES1               0.0000
     25 H25        223.8310  49.0767  33.1518 H              1 RES1               0.0000
     26 H26        222.8638  49.3601  31.7064 H              1 RES1               0.0000
     27 H27        220.4015  42.4887  32.2856 H              1 RES1               0.0000
     28 H28        218.3472  45.2105  34.8453 H              1 RES1               0.0000
     29 H29        218.5357  42.9768  33.8210 H              1 RES1               0.0000
@<TRIPOS>BOND
    1    1    2 1     
    2    1    3 1     
    3    1    4 1     
    4    1    5 1     
    5    2    6 ar    
    6    2    7 ar    
    7    3    8 1     
    8    3    9 2     
    9    4   10 1     
   10    4   11 2     
   11    5   12 1     
   12    5   18 1     
   13    5   19 1     
   14    6   13 ar    
   15    6   20 1     
   16    7   14 ar    
   17    7   21 1     
   18    8   15 1     
   19    8   22 1     
   20   10   15 1     
   21   10   23 1     
   22   12   24 1     
   23   12   25 1     
   24   12   26 1     
   25   13   16 ar    
   26   13   27 1     
   27   14   16 ar    
   28   14   28 1     
   29   15   17 2     
   30   16   29 1     
@<TRIPOS>SUBSTRUCTURE
      1 RES1           1
@<TRIPOS>SET
DONOR_HYDROGENS      STATIC     ATOMS    <user>   **** ""
2 22 23
ATOM$RED        STATIC     ATOMS    COLORGROUP SYSTEM
2 22 23
@<TRIPOS>COMMENT
> <Gold.Version>
2022.3.0

> <Gold.Id.Protein>
unknown|4d1n_clean|pdb

> <Gold.Protein.RotatedTorsions>
[ 1577 1535 1534 1533 ] final  178.76 input   60.00 | X-H torsion
[ 4299 4278 4277 4274 ] final    4.94 input   59.99 | X-H torsion
[ 4339 4317 4318 4319 ] final  178.95 input  114.03 | X-H torsion
[ 4343 4322 4321 4318 ] final  -34.14 input   59.99 | X-H torsion
[ 6681 6660 6659 6657 ] final -103.34 input   60.02 | X-H torsion
[ 23749 23701 23702 23703 ] final  169.77 input   59.44 | X-H torsion
[ 23797 23783 23784 23785 ] final  117.61 input  -92.48 | X-H torsion
[ 4155 4117 4118 4119 ] final  -48.88 input  119.10 | X-H torsion
[ 6906 6885 6886 6887 ] final   -9.03 input  108.16 | X-H torsion
[ 1337 1305 1306 1307 ] final  -71.24 input  118.39 | X-H torsion
[ 1567 1527 1528 1529 ] final -141.83 input   90.05 | X-H torsion
[ 4077 4043 4044 4045 ] final  179.65 input  116.01 | X-H torsion
[ 25737 25709 25710 25711 ] final   30.58 input   60.94 | X-H torsion
[ 1631 1609 1610 1611 ] final   73.09 input  112.52 | X-H torsion
[ 1281 1253 1251 1248 ] final  -52.77 input   60.01 | X-H torsion
[ 23825 23811 23812 23813 ] final   -3.86 input  -23.57 | X-H torsion
[ 27193 4046 4045 4044 ] final -160.68 input   -0.00 | X-H torsion
[ 27207 23650 23649 23648 ] final -108.64 input    0.00 | X-H torsion
[ 27210 23704 23703 23702 ] final  -78.90 input    0.00 | X-H torsion
[ 27213 25712 25711 25710 ] final -128.15 input    0.00 | X-H torsion
[ 27217 6888 6887 6886 ] final   73.07 input    0.00 | X-H torsion
[ 27219 1308 1307 1306 ] final -150.42 input    0.00 | X-H torsion
[ 27223 1530 1529 1528 ] final  171.53 input   -0.00 | X-H torsion
[ 27225 3782 3781 3780 ] final -160.57 input    0.00 | X-H torsion
[ 27227 3996 3995 3994 ] final   36.34 input   -0.00 | X-H torsion

> <Gold.Protein.ActiveResidues>
 THR320  LEU321  LYS324  SER325  GLU365  PHE366  ASP368  GLN369  TYR370  SER372 
 SER373  TYR408  HIS412  ARG415  ASN416  TRP426  GLU670  CYS673  ARG674  GLY675 
 GLY676  TYR703  LEU705  THR706  PRO707 

> <Gold.Protein.RotatedAtoms>
  230.8062   43.0362   38.1648 H   0  0  0  0  0  0  0  0  0  0  0  0  # atno 1281 bound_to 1253
  228.6844   41.1735   38.4804 H   0  0  0  0  0  0  0  0  0  0  0  0  # atno 1337 bound_to 1305
  223.5221   40.0606   39.1411 H   0  0  0  0  0  0  0  0  0  0  0  0  # atno 1567 bound_to 1527
  225.6879   46.1137   37.5885 H   0  0  0  0  0  0  0  0  0  0  0  0  # atno 1577 bound_to 1535
  226.0961   44.6193   36.9992 H   0  0  0  0  0  0  0  0  0  0  0  0  # atno 1578 bound_to 1535
  225.2770   45.6930   36.0383 H   0  0  0  0  0  0  0  0  0  0  0  0  # atno 1579 bound_to 1535
  222.3001   37.7285   37.6493 H   0  0  0  0  0  0  0  0  0  0  0  0  # atno 1631 bound_to 1609
  216.5801   47.9255   32.8229 H   0  0  0  0  0  0  0  0  0  0  0  0  # atno 4077 bound_to 4043
  218.2991   49.5089   30.2792 H   0  0  0  0  0  0  0  0  0  0  0  0  # atno 4155 bound_to 4117
  221.7886   52.4487   34.1023 H   0  0  0  0  0  0  0  0  0  0  0  0  # atno 4299 bound_to 4278
  221.0473   51.4352   31.0570 H   0  0  0  0  0  0  0  0  0  0  0  0  # atno 4339 bound_to 4317
  220.7859   52.3636   27.8382 H   0  0  0  0  0  0  0  0  0  0  0  0  # atno 4343 bound_to 4322
  220.7858   48.4074   28.5994 H   0  0  0  0  0  0  0  0  0  0  0  0  # atno 6681 bound_to 6660
  222.7229   43.2251   21.5301 H   0  0  0  0  0  0  0  0  0  0  0  0  # atno 6906 bound_to 6885
  232.0669   46.9515   31.6378 H   0  0  0  0  0  0  0  0  0  0  0  0  # atno 23749 bound_to 23701
  230.8458   45.2615   34.4927 H   0  0  0  0  0  0  0  0  0  0  0  0  # atno 23797 bound_to 23783
  231.7623   42.6218   33.4833 H   0  0  0  0  0  0  0  0  0  0  0  0  # atno 23825 bound_to 23811
  220.0836   39.2936   30.2998 H   0  0  0  0  0  0  0  0  0  0  0  0  # atno 25737 bound_to 25709
  219.7831   50.7466   29.8207 LP  0  0  0  0  0  0  0  0  0  0  0  0  # atno 27193 bound_to 4046
  220.4538   49.6082   30.9406 LP  0  0  0  0  0  0  0  0  0  0  0  0  # atno 27194 bound_to 4046
  221.8243   50.8285   33.9586 LP  0  0  0  0  0  0  0  0  0  0  0  0  # atno 27195 bound_to 4278
  221.0540   51.5225   35.2202 LP  0  0  0  0  0  0  0  0  0  0  0  0  # atno 27196 bound_to 4278
  220.7334   53.1247   30.7325 LP  0  0  0  0  0  0  0  0  0  0  0  0  # atno 27197 bound_to 4317
  221.0330   50.9880   27.0059 LP  0  0  0  0  0  0  0  0  0  0  0  0  # atno 27198 bound_to 4322
  222.0675   52.2410   26.8438 LP  0  0  0  0  0  0  0  0  0  0  0  0  # atno 27199 bound_to 4322
  222.1073   47.6672   28.0042 LP  0  0  0  0  0  0  0  0  0  0  0  0  # atno 27200 bound_to 6660
  220.7260   46.8247   28.2249 LP  0  0  0  0  0  0  0  0  0  0  0  0  # atno 27201 bound_to 6660
  230.8736   48.6710   33.7295 LP  0  0  0  0  0  0  0  0  0  0  0  0  # atno 27207 bound_to 23650
  230.7080   49.1362   32.0693 LP  0  0  0  0  0  0  0  0  0  0  0  0  # atno 27208 bound_to 23650
  232.6109   46.4250   33.2122 LP  0  0  0  0  0  0  0  0  0  0  0  0  # atno 27209 bound_to 23701
  228.7879   45.2251   34.9613 LP  0  0  0  0  0  0  0  0  0  0  0  0  # atno 27210 bound_to 23704
  229.0989   43.6782   34.2469 LP  0  0  0  0  0  0  0  0  0  0  0  0  # atno 27211 bound_to 23704
  232.4101   44.6778   33.9740 LP  0  0  0  0  0  0  0  0  0  0  0  0  # atno 27212 bound_to 23783
  218.8649   41.9983   29.2974 LP  0  0  0  0  0  0  0  0  0  0  0  0  # atno 27213 bound_to 25712
  220.2040   40.9716   29.6880 LP  0  0  0  0  0  0  0  0  0  0  0  0  # atno 27214 bound_to 25712
  216.9226   48.8317   29.4439 LP  0  0  0  0  0  0  0  0  0  0  0  0  # atno 27215 bound_to 4117
  222.7920   44.8013   22.2695 LP  0  0  0  0  0  0  0  0  0  0  0  0  # atno 27216 bound_to 6885
  223.4353   41.0331   25.4063 LP  0  0  0  0  0  0  0  0  0  0  0  0  # atno 27217 bound_to 6888
  224.3378   40.4721   24.0386 LP  0  0  0  0  0  0  0  0  0  0  0  0  # atno 27218 bound_to 6888
  224.9697   39.2566   36.9264 LP  0  0  0  0  0  0  0  0  0  0  0  0  # atno 27219 bound_to 1308
  225.3136   40.4957   35.7661 LP  0  0  0  0  0  0  0  0  0  0  0  0  # atno 27220 bound_to 1308
  229.8105   40.8377   37.1812 LP  0  0  0  0  0  0  0  0  0  0  0  0  # atno 27221 bound_to 1305
  223.8524   38.9874   37.8022 LP  0  0  0  0  0  0  0  0  0  0  0  0  # atno 27222 bound_to 1527
  219.8802   38.7099   35.6144 LP  0  0  0  0  0  0  0  0  0  0  0  0  # atno 27223 bound_to 1530
  219.8541   40.2658   36.3750 LP  0  0  0  0  0  0  0  0  0  0  0  0  # atno 27224 bound_to 1530
  215.7627   46.5011   31.5431 LP  0  0  0  0  0  0  0  0  0  0  0  0  # atno 27225 bound_to 3782
  215.9468   45.9218   33.1649 LP  0  0  0  0  0  0  0  0  0  0  0  0  # atno 27226 bound_to 3782
  217.2336   51.1949   33.4987 LP  0  0  0  0  0  0  0  0  0  0  0  0  # atno 27227 bound_to 3996
  217.9799   50.7717   31.9941 LP  0  0  0  0  0  0  0  0  0  0  0  0  # atno 27228 bound_to 3996
  216.3130   49.1603   31.6224 LP  0  0  0  0  0  0  0  0  0  0  0  0  # atno 27229 bound_to 4043
  220.2321   37.6648   29.6837 LP  0  0  0  0  0  0  0  0  0  0  0  0  # atno 27230 bound_to 25709
  221.9468   38.8690   36.3723 LP  0  0  0  0  0  0  0  0  0  0  0  0  # atno 27232 bound_to 1609

> <Gold.Score>
     Fitness  S(hb_ext) S(vdw_ext)  S(hb_int)    S(int)      intcor
     31.29       4.49      19.51       0.00      -0.02      -0.76

> <Gold.Goldscore.Fitness>
31.2930

> <Gold.Goldscore.Internal.Vdw>
-0.3568

> <Gold.Goldscore.Internal.Torsion>
-0.4201

> <Gold.Goldscore.External.Vdw>
19.5096

> <Gold.Goldscore.Internal.HBond>
0.0000

> <Gold.Goldscore.External.HBond>
4.4860

> <Gold.Goldscore.Internal.Correction>
-0.7583

> <Gold.Goldscore.Hbonds>
donor molecule, donor type, donor heavy atom, donor atom, acceptor molecule, acceptor atom, score
      P1  H 23708 23757       L1    17  0.72
      L1  H    10    23       P1  6894  0.03

> <Gold.Goldscore.Internal.Vdw.Weighted>
-0.3568

> <Gold.Goldscore.Internal.Torsion.Weighted>
-0.4201

> <Gold.Goldscore.External.Vdw.Weighted>
26.8257

> <Gold.Goldscore.Internal.HBond.Weighted>
0.0000

> <Gold.Goldscore.External.HBond.Weighted>
4.4860

> <Gold.Goldscore.Internal.Correction.Weighted>
-0.7583

> <Gold.Rescore>
     Score     S(PLP)   S(hbond)     S(cho)   S(metal)  DE(clash)   DE(tors)     intcor
     33.32     -28.15       1.75       0.00       0.00       0.00       0.04       ----

> <Gold.PLP.Fitness>
33.3154

> <Gold.PLP.PLP>
-28.1483

> <Gold.PLP.part.hbond>
-3.9713

> <Gold.PLP.part.metal>
0.0000

> <Gold.PLP.part.buried>
-3.5941

> <Gold.PLP.part.nonpolar>
-22.5360

> <Gold.PLP.part.repulsive>
0.6336

> <Gold.PLP.ligand.clash>
0.0000

> <Gold.PLP.ligand.torsion>
0.0445

> <Gold.PLP.Chemscore.Hbond>
1.7520

> <Gold.PLP.Chemscore.CHOScore>
0.0000

> <Gold.PLP.Chemscore.Metal>
0.0000

> <Gold.Chemscore.Hbonds>
donor molecule, donor type, donor heavy atom, donor atom, acceptor molecule, acceptor atom, score
      P1  H  1535  1579       L1     9  0.44
      P1  H 23708 23757       L1    17  0.42

> <Gold.PLP.Chemscore.Internal.Correction>
   9.000000E+99

