#       Name:                CT1002167954
#       Creating user name   hitesit
#       Creation time:       Sun Apr 16 20:18:46 2023


#       File generated by GOLD software.
#

@<TRIPOS>MOLECULE
CT1002167954|ligand_prepared|mol2|1|dock6
    29    30     1
SMALL
NO_CHARGES


@<TRIPOS>ATOM
      1 C1         111.9571 281.6827 314.6994 C.3            1 RES1               0.0000
      2 C2         113.0164 281.9722 315.7824 C.ar           1 RES1               0.0000
      3 C3         112.7152 281.5584 313.3810 C.2            1 RES1               0.0000
      4 C4         111.2447 280.4053 315.1302 C.2            1 RES1               0.0000
      5 C5         110.8940 282.7960 314.5517 C.3            1 RES1               0.0000
      6 C6         114.1989 281.2401 315.8306 C.ar           1 RES1               0.0000
      7 C7         112.8267 282.9683 316.7366 C.ar           1 RES1               0.0000
      8 N8         112.8652 280.3097 312.8537 N.am           1 RES1               0.0000
      9 O9         113.2080 282.5365 312.8326 O.2            1 RES1               0.0000
     10 N10        111.3931 279.2916 314.3457 N.am           1 RES1               0.0000
     11 O11        110.5697 280.3488 316.1507 O.2            1 RES1               0.0000
     12 C12        109.9655 282.6033 313.3631 C.3            1 RES1               0.0000
     13 C13        115.1585 281.4964 316.7960 C.ar           1 RES1               0.0000
     14 C14        113.7875 283.2228 317.7012 C.ar           1 RES1               0.0000
     15 C15        112.1960 279.1775 313.2436 C.2            1 RES1               0.0000
     16 C16        114.9537 282.4881 317.7315 C.ar           1 RES1               0.0000
     17 O17        112.3194 278.1263 312.6217 O.2            1 RES1               0.0000
     18 H18        110.2918 282.8330 315.4678 H              1 RES1               0.0000
     19 H19        111.4054 283.7609 314.4474 H              1 RES1               0.0000
     20 H20        114.3766 280.4542 315.1042 H              1 RES1               0.0000
     21 H21        111.9165 283.5582 316.7326 H              1 RES1               0.0000
     22 H22        113.5372 280.2082 312.0997 H              1 RES1               0.0000
     23 H23        110.8552 278.4716 314.6076 H              1 RES1               0.0000
     24 H24        109.2394 283.4116 313.3058 H              1 RES1               0.0000
     25 H25        110.5286 282.5871 312.4323 H              1 RES1               0.0000
     26 H26        109.4217 281.6646 313.4467 H              1 RES1               0.0000
     27 H27        116.0740 280.9144 316.8163 H              1 RES1               0.0000
     28 H28        113.6219 284.0038 318.4360 H              1 RES1               0.0000
     29 H29        115.7057 282.6889 318.4874 H              1 RES1               0.0000
@<TRIPOS>BOND
    1    1    2 1     
    2    1    3 1     
    3    1    4 1     
    4    1    5 1     
    5    2    6 ar    
    6    2    7 ar    
    7    3    8 1     
    8    3    9 2     
    9    4   10 1     
   10    4   11 2     
   11    5   12 1     
   12    5   18 1     
   13    5   19 1     
   14    6   13 ar    
   15    6   20 1     
   16    7   14 ar    
   17    7   21 1     
   18    8   15 1     
   19    8   22 1     
   20   10   15 1     
   21   10   23 1     
   22   12   24 1     
   23   12   25 1     
   24   12   26 1     
   25   13   16 ar    
   26   13   27 1     
   27   14   16 ar    
   28   14   28 1     
   29   15   17 2     
   30   16   29 1     
@<TRIPOS>SUBSTRUCTURE
      1 RES1           1
@<TRIPOS>SET
DONOR_HYDROGENS      STATIC     ATOMS    <user>   **** ""
2 22 23
ATOM$RED        STATIC     ATOMS    COLORGROUP SYSTEM
2 22 23
@<TRIPOS>COMMENT
> <Gold.Version>
2022.3.0

> <Gold.Id.Protein>
unknown|5adg_clean|pdb

> <Gold.Protein.RotatedTorsions>
[ 1392 1385 1383 1380 ] final  179.05 input   60.03 | X-H torsion
[ 1421 1409 1410 1411 ] final -173.44 input  129.35 | X-H torsion
[ 1464 1452 1453 1454 ] final  -81.52 input  108.99 | X-H torsion
[ 1488 1477 1478 1479 ] final  -96.30 input  100.07 | X-H torsion
[ 1529 1510 1511 1512 ] final -155.71 input  113.76 | X-H torsion
[ 1564 1551 1552 1553 ] final -107.07 input  123.58 | X-H torsion
[ 1694 1683 1682 1681 ] final   72.75 input   60.00 | X-H torsion
[ 2447 2428 2429 2430 ] final -168.80 input  119.94 | X-H torsion
[ 2477 2467 2468 2469 ] final   96.71 input  117.54 | X-H torsion
[ 2324 2316 2317 2318 ] final  125.32 input  118.58 | X-H torsion
[ 2362 2351 2352 2353 ] final  161.53 input  116.99 | X-H torsion
[ 2407 2383 2384 2385 ] final -161.71 input  115.65 | X-H torsion
[ 2506 2497 2498 2499 ] final -125.55 input  121.55 | X-H torsion
[ 2572 2558 2559 2560 ] final  -52.73 input  118.05 | X-H torsion
[ 2539 2525 2526 2527 ] final   97.30 input  116.25 | X-H torsion
[ 2600 2587 2588 2589 ] final  -39.38 input  123.81 | X-H torsion
[ 2706 2698 2699 2700 ] final   76.23 input  119.89 | X-H torsion
[ 2668 2660 2661 2662 ] final  -32.41 input  116.13 | X-H torsion
[ 2640 2631 2632 2633 ] final -138.14 input  117.28 | X-H torsion
[ 2728 2721 2722 2723 ] final  102.06 input   88.34 | X-H torsion
[ 2785 2776 2777 2778 ] final   84.14 input -114.77 | X-H torsion
[ 2608 2595 2594 2593 ] final -140.05 input   60.00 | X-H torsion
[ 1684 1675 1676 1677 ] final  136.54 input  120.12 | X-H torsion
[ 1635 1616 1617 1618 ] final -148.04 input  110.97 | X-H torsion
[ 2756 2749 2750 2751 ] final   47.16 input   47.81 | X-H torsion
[ 13465 1382 1381 1380 ] final -152.66 input    0.00 | X-H torsion
[ 13470 1412 1411 1410 ] final  121.16 input    0.00 | X-H torsion
[ 13473 1455 1454 1453 ] final  -43.99 input   -0.00 | X-H torsion
[ 13480 1480 1479 1478 ] final  -60.44 input   -0.00 | X-H torsion
[ 13484 1554 1553 1552 ] final   40.88 input    0.00 | X-H torsion
[ 13496 2319 2318 2317 ] final  139.66 input   -0.00 | X-H torsion
[ 13499 2431 2430 2429 ] final -149.94 input    0.00 | X-H torsion
[ 13504 2287 2286 2285 ] final  -55.05 input   -0.00 | X-H torsion
[ 13508 2354 2353 2352 ] final   -7.30 input    0.00 | X-H torsion
[ 13511 2386 2385 2384 ] final   41.16 input    0.00 | X-H torsion
[ 13513 2470 2469 2468 ] final   47.49 input   -0.00 | X-H torsion
[ 13521 2528 2527 2526 ] final -123.98 input    0.00 | X-H torsion
[ 13523 2561 2560 2559 ] final  -53.14 input   -0.00 | X-H torsion
[ 13527 2663 2662 2661 ] final  128.50 input    0.00 | X-H torsion
[ 13529 2590 2589 2588 ] final -107.81 input   -0.00 | X-H torsion
[ 13532 2701 2700 2699 ] final -163.71 input    0.00 | X-H torsion
[ 13535 1513 1512 1511 ] final  -42.71 input    0.00 | X-H torsion
[ 13537 2634 2633 2632 ] final  151.91 input    0.00 | X-H torsion
[ 13540 2779 2778 2777 ] final  -60.12 input    0.00 | X-H torsion

> <Gold.Protein.ActiveResidues>
 THR355  LYS356  ASP357  GLN358  LEU359  PHE360  PRO361  LEU362  ALA363  LYS364 
 ASP368  PHE377  GLY378  HIS382  MET383  GLU384  ARG385  LEU386  GLU387  GLU388 
 VAL389  ASN390  LYS391  GLU392  ILE393  ASP394  THR395  THR396  SER397 

> <Gold.Protein.RotatedAtoms>
  105.1224  276.1952  317.9304 H   0  0  0  0  0  0  0  0  0  0  0  0  # atno 1392 bound_to 1385
  106.5178  274.8449  313.4648 H   0  0  0  0  0  0  0  0  0  0  0  0  # atno 1421 bound_to 1409
  108.8188  277.0514  315.0947 H   0  0  0  0  0  0  0  0  0  0  0  0  # atno 1464 bound_to 1452
  109.0258  276.8780  318.2382 H   0  0  0  0  0  0  0  0  0  0  0  0  # atno 1488 bound_to 1477
  109.4912  273.6106  317.4373 H   0  0  0  0  0  0  0  0  0  0  0  0  # atno 1529 bound_to 1510
  112.4981  274.1865  315.2861 H   0  0  0  0  0  0  0  0  0  0  0  0  # atno 1564 bound_to 1551
  114.9003  274.0888  319.9000 H   0  0  0  0  0  0  0  0  0  0  0  0  # atno 1635 bound_to 1616
  117.6183  274.2935  316.4054 H   0  0  0  0  0  0  0  0  0  0  0  0  # atno 1684 bound_to 1675
  123.0265  277.5233  318.7473 H   0  0  0  0  0  0  0  0  0  0  0  0  # atno 1694 bound_to 1683
  123.3650  279.0253  319.3601 H   0  0  0  0  0  0  0  0  0  0  0  0  # atno 1695 bound_to 1683
  122.1324  278.1251  320.0066 H   0  0  0  0  0  0  0  0  0  0  0  0  # atno 1696 bound_to 1683
  128.4899  278.0417  310.9721 H   0  0  0  0  0  0  0  0  0  0  0  0  # atno 2324 bound_to 2316
  127.1842  278.7492  308.3093 H   0  0  0  0  0  0  0  0  0  0  0  0  # atno 2362 bound_to 2351
  125.4595  275.8497  307.4222 H   0  0  0  0  0  0  0  0  0  0  0  0  # atno 2407 bound_to 2383
  123.4632  275.5742  310.5763 H   0  0  0  0  0  0  0  0  0  0  0  0  # atno 2447 bound_to 2428
  122.3569  278.3871  309.0410 H   0  0  0  0  0  0  0  0  0  0  0  0  # atno 2477 bound_to 2467
  120.5885  278.3559  306.5614 H   0  0  0  0  0  0  0  0  0  0  0  0  # atno 2506 bound_to 2497
  119.6303  275.6817  308.3848 H   0  0  0  0  0  0  0  0  0  0  0  0  # atno 2539 bound_to 2525
  116.6464  276.0484  308.9021 H   0  0  0  0  0  0  0  0  0  0  0  0  # atno 2572 bound_to 2558
  115.1836  278.0614  308.0298 H   0  0  0  0  0  0  0  0  0  0  0  0  # atno 2600 bound_to 2587
  119.8452  282.3219  303.8303 H   0  0  0  0  0  0  0  0  0  0  0  0  # atno 2608 bound_to 2595
  119.7516  280.6667  303.8238 H   0  0  0  0  0  0  0  0  0  0  0  0  # atno 2609 bound_to 2595
  119.9022  281.4942  302.3947 H   0  0  0  0  0  0  0  0  0  0  0  0  # atno 2610 bound_to 2595
  114.8984  276.8896  305.1450 H   0  0  0  0  0  0  0  0  0  0  0  0  # atno 2640 bound_to 2631
  112.6128  275.4891  306.8131 H   0  0  0  0  0  0  0  0  0  0  0  0  # atno 2668 bound_to 2660
  111.8771  277.2560  307.3160 H   0  0  0  0  0  0  0  0  0  0  0  0  # atno 2706 bound_to 2698
  110.8776  277.3995  305.3422 H   0  0  0  0  0  0  0  0  0  0  0  0  # atno 2728 bound_to 2721
  109.4332  275.2311  305.6075 H   0  0  0  0  0  0  0  0  0  0  0  0  # atno 2756 bound_to 2749
  107.4523  273.4338  306.4452 H   0  0  0  0  0  0  0  0  0  0  0  0  # atno 2785 bound_to 2776
  108.7835  274.8358  315.8436 LP  0  0  0  0  0  0  0  0  0  0  0  0  # atno 13465 bound_to 1382
  108.0470  273.3162  316.2286 LP  0  0  0  0  0  0  0  0  0  0  0  0  # atno 13466 bound_to 1382
  106.4882  275.8893  317.1005 LP  0  0  0  0  0  0  0  0  0  0  0  0  # atno 13467 bound_to 1385
  105.8334  274.7368  318.0542 LP  0  0  0  0  0  0  0  0  0  0  0  0  # atno 13468 bound_to 1385
  106.6871  275.4862  315.0837 LP  0  0  0  0  0  0  0  0  0  0  0  0  # atno 13469 bound_to 1409
  110.6851  277.6344  315.0341 LP  0  0  0  0  0  0  0  0  0  0  0  0  # atno 13470 bound_to 1412
  110.7071  275.9029  314.9948 LP  0  0  0  0  0  0  0  0  0  0  0  0  # atno 13471 bound_to 1412
  107.1942  277.0458  315.7502 LP  0  0  0  0  0  0  0  0  0  0  0  0  # atno 13472 bound_to 1452
  111.0399  277.9284  318.1743 LP  0  0  0  0  0  0  0  0  0  0  0  0  # atno 13473 bound_to 1455
  110.3473  277.2708  319.6193 LP  0  0  0  0  0  0  0  0  0  0  0  0  # atno 13474 bound_to 1455
  108.0463  275.6435  317.4823 LP  0  0  0  0  0  0  0  0  0  0  0  0  # atno 13479 bound_to 1477
  112.0294  274.5273  319.4143 LP  0  0  0  0  0  0  0  0  0  0  0  0  # atno 13480 bound_to 1480
  111.7218  272.8898  318.9410 LP  0  0  0  0  0  0  0  0  0  0  0  0  # atno 13481 bound_to 1480
  110.4594  275.0320  317.1208 LP  0  0  0  0  0  0  0  0  0  0  0  0  # atno 13482 bound_to 1510
  112.1083  275.5725  316.2702 LP  0  0  0  0  0  0  0  0  0  0  0  0  # atno 13483 bound_to 1551
  116.7225  275.2933  315.7316 LP  0  0  0  0  0  0  0  0  0  0  0  0  # atno 13484 bound_to 1554
  116.5819  274.4750  317.2517 LP  0  0  0  0  0  0  0  0  0  0  0  0  # atno 13485 bound_to 1554
  124.0717  279.5441  308.7172 LP  0  0  0  0  0  0  0  0  0  0  0  0  # atno 13496 bound_to 2319
  123.9579  278.8772  310.3116 LP  0  0  0  0  0  0  0  0  0  0  0  0  # atno 13497 bound_to 2319
  122.9876  276.5586  309.2116 LP  0  0  0  0  0  0  0  0  0  0  0  0  # atno 13498 bound_to 2428
  119.0027  277.6929  309.4541 LP  0  0  0  0  0  0  0  0  0  0  0  0  # atno 13499 bound_to 2431
  119.2169  277.2766  311.1217 LP  0  0  0  0  0  0  0  0  0  0  0  0  # atno 13500 bound_to 2431
  120.9734  278.1515  310.0843 LP  0  0  0  0  0  0  0  0  0  0  0  0  # atno 13501 bound_to 2467
  125.4795  275.6336  310.5746 LP  0  0  0  0  0  0  0  0  0  0  0  0  # atno 13504 bound_to 2287
  125.2481  276.8349  311.8007 LP  0  0  0  0  0  0  0  0  0  0  0  0  # atno 13505 bound_to 2287
  127.1410  276.9286  310.9602 LP  0  0  0  0  0  0  0  0  0  0  0  0  # atno 13506 bound_to 2316
  125.9116  278.0293  309.2659 LP  0  0  0  0  0  0  0  0  0  0  0  0  # atno 13507 bound_to 2351
  123.0846  277.9582  306.3789 LP  0  0  0  0  0  0  0  0  0  0  0  0  # atno 13508 bound_to 2354
  122.6584  276.3704  306.9242 LP  0  0  0  0  0  0  0  0  0  0  0  0  # atno 13509 bound_to 2354
  124.7247  276.7985  308.6910 LP  0  0  0  0  0  0  0  0  0  0  0  0  # atno 13510 bound_to 2383
  121.2460  274.1434  308.6236 LP  0  0  0  0  0  0  0  0  0  0  0  0  # atno 13511 bound_to 2386
  120.7055  275.7705  308.8691 LP  0  0  0  0  0  0  0  0  0  0  0  0  # atno 13512 bound_to 2386
  118.3417  279.6055  306.8523 LP  0  0  0  0  0  0  0  0  0  0  0  0  # atno 13513 bound_to 2470
  117.9304  277.9468  307.1346 LP  0  0  0  0  0  0  0  0  0  0  0  0  # atno 13514 bound_to 2470
  120.7517  277.1241  307.7926 LP  0  0  0  0  0  0  0  0  0  0  0  0  # atno 13517 bound_to 2497
  117.9324  277.1120  309.4231 LP  0  0  0  0  0  0  0  0  0  0  0  0  # atno 13518 bound_to 2558
  118.7434  275.4055  306.9022 LP  0  0  0  0  0  0  0  0  0  0  0  0  # atno 13519 bound_to 2525
  116.6112  278.7583  307.2962 LP  0  0  0  0  0  0  0  0  0  0  0  0  # atno 13520 bound_to 2587
  114.7838  275.8305  308.2835 LP  0  0  0  0  0  0  0  0  0  0  0  0  # atno 13521 bound_to 2528
  115.0947  274.5627  309.4219 LP  0  0  0  0  0  0  0  0  0  0  0  0  # atno 13522 bound_to 2528
  113.3695  277.4715  308.9675 LP  0  0  0  0  0  0  0  0  0  0  0  0  # atno 13523 bound_to 2561
  113.2917  279.0441  308.2458 LP  0  0  0  0  0  0  0  0  0  0  0  0  # atno 13524 bound_to 2561
  110.8608  276.9286  308.7006 LP  0  0  0  0  0  0  0  0  0  0  0  0  # atno 13525 bound_to 2698
  113.6678  275.0197  308.1225 LP  0  0  0  0  0  0  0  0  0  0  0  0  # atno 13526 bound_to 2660
  108.7606  276.6581  308.8269 LP  0  0  0  0  0  0  0  0  0  0  0  0  # atno 13527 bound_to 2663
  109.0209  275.2176  307.9010 LP  0  0  0  0  0  0  0  0  0  0  0  0  # atno 13528 bound_to 2663
  112.0698  277.5036  306.0388 LP  0  0  0  0  0  0  0  0  0  0  0  0  # atno 13529 bound_to 2590
  112.6087  278.0168  304.4748 LP  0  0  0  0  0  0  0  0  0  0  0  0  # atno 13530 bound_to 2590
  114.6787  276.6157  306.8586 LP  0  0  0  0  0  0  0  0  0  0  0  0  # atno 13531 bound_to 2631
  107.4471  277.9279  305.6634 LP  0  0  0  0  0  0  0  0  0  0  0  0  # atno 13532 bound_to 2701
  107.6980  279.0601  306.9500 LP  0  0  0  0  0  0  0  0  0  0  0  0  # atno 13533 bound_to 2701
  109.3395  277.7961  306.0802 LP  0  0  0  0  0  0  0  0  0  0  0  0  # atno 13534 bound_to 2721
  113.5554  272.5308  317.2186 LP  0  0  0  0  0  0  0  0  0  0  0  0  # atno 13535 bound_to 1513
  114.4101  273.1267  315.8349 LP  0  0  0  0  0  0  0  0  0  0  0  0  # atno 13536 bound_to 1513
  110.8741  274.0705  306.6188 LP  0  0  0  0  0  0  0  0  0  0  0  0  # atno 13537 bound_to 2634
  111.3013  274.7470  305.0826 LP  0  0  0  0  0  0  0  0  0  0  0  0  # atno 13538 bound_to 2634
  108.5184  274.6945  307.0332 LP  0  0  0  0  0  0  0  0  0  0  0  0  # atno 13539 bound_to 2776
  107.9253  272.5947  311.1221 LP  0  0  0  0  0  0  0  0  0  0  0  0  # atno 13540 bound_to 2779
  107.6487  271.0438  310.4022 LP  0  0  0  0  0  0  0  0  0  0  0  0  # atno 13541 bound_to 2779

> <Gold.Score>
     Fitness  S(hb_ext) S(vdw_ext)  S(hb_int)    S(int)      intcor
     23.27       8.00      11.18       0.00      -0.10      -0.76

> <Gold.Goldscore.Fitness>
23.2738

> <Gold.Goldscore.Internal.Vdw>
-0.3853

> <Gold.Goldscore.Internal.Torsion>
-0.4688

> <Gold.Goldscore.External.Vdw>
11.1791

> <Gold.Goldscore.Internal.HBond>
0.0000

> <Gold.Goldscore.External.HBond>
7.9982

> <Gold.Goldscore.Internal.Correction>
-0.7585

> <Gold.Goldscore.Hbonds>
donor molecule, donor type, donor heavy atom, donor atom, acceptor molecule, acceptor atom, score
      L1  H     8    22       P1  2565  1.00
      L1  H    10    23       P1  1412  1.00

> <Gold.Goldscore.Internal.Vdw.Weighted>
-0.3853

> <Gold.Goldscore.Internal.Torsion.Weighted>
-0.4688

> <Gold.Goldscore.External.Vdw.Weighted>
15.3712

> <Gold.Goldscore.Internal.HBond.Weighted>
0.0000

> <Gold.Goldscore.External.HBond.Weighted>
7.9982

> <Gold.Goldscore.Internal.Correction.Weighted>
-0.7585

> <Gold.Rescore>
     Score     S(PLP)   S(hbond)     S(cho)   S(metal)  DE(clash)   DE(tors)     intcor
     20.92     -15.03       1.99       0.00       0.00       0.00       0.04       ----

> <Gold.PLP.Fitness>
20.9226

> <Gold.PLP.PLP>
-15.0335

> <Gold.PLP.part.hbond>
-2.0000

> <Gold.PLP.part.metal>
0.0000

> <Gold.PLP.part.buried>
-2.1762

> <Gold.PLP.part.nonpolar>
-11.9524

> <Gold.PLP.part.repulsive>
0.7016

> <Gold.PLP.ligand.clash>
0.0000

> <Gold.PLP.ligand.torsion>
0.0435

> <Gold.PLP.Chemscore.Hbond>
1.9920

> <Gold.PLP.Chemscore.CHOScore>
0.0000

> <Gold.PLP.Chemscore.Metal>
0.0000

> <Gold.Chemscore.Hbonds>
donor molecule, donor type, donor heavy atom, donor atom, acceptor molecule, acceptor atom, score
      L1  H     8    22       P1  2565  0.76
      L1  H    10    23       P1  1412  1.00

> <Gold.PLP.Chemscore.Internal.Correction>
   9.000000E+99

