#       Name:                CT1002167954
#       Creating user name   hitesit
#       Creation time:       Sun Apr 16 20:18:48 2023


#       File generated by GOLD software.
#

@<TRIPOS>MOLECULE
CT1002167954|ligand_prepared|mol2|1|dock10
    29    30     1
SMALL
NO_CHARGES


@<TRIPOS>ATOM
      1 C1         110.7303 280.6798 313.6572 C.3            1 RES1               0.0000
      2 C2         111.2554 281.1881 315.0154 C.ar           1 RES1               0.0000
      3 C3         111.8488 280.9210 312.6478 C.2            1 RES1               0.0000
      4 C4         110.3803 279.2095 313.8584 C.2            1 RES1               0.0000
      5 C5         109.4591 281.4105 313.1657 C.3            1 RES1               0.0000
      6 C6         110.3859 281.3784 316.0851 C.ar           1 RES1               0.0000
      7 C7         112.6048 281.4679 315.2142 C.ar           1 RES1               0.0000
      8 N8         112.5516 279.8365 312.2123 N.am           1 RES1               0.0000
      9 O9         112.1359 282.0502 312.2698 O.2            1 RES1               0.0000
     10 N10        111.1153 278.2754 313.1766 N.am           1 RES1               0.0000
     11 O11        109.4855 278.8507 314.6140 O.2            1 RES1               0.0000
     12 C12        108.9194 280.8818 311.8461 C.3            1 RES1               0.0000
     13 C13        110.8488 281.8293 317.3101 C.ar           1 RES1               0.0000
     14 C14        113.0656 281.9190 316.4400 C.ar           1 RES1               0.0000
     15 C15        112.2051 278.5207 312.3863 C.2            1 RES1               0.0000
     16 C16        112.1889 282.0995 317.4886 C.ar           1 RES1               0.0000
     17 O17        112.8481 277.6230 311.8499 O.2            1 RES1               0.0000
     18 H18        108.6785 281.3142 313.9304 H              1 RES1               0.0000
     19 H19        109.6869 282.4776 313.0518 H              1 RES1               0.0000
     20 H20        109.3275 281.1734 315.9628 H              1 RES1               0.0000
     21 H21        113.3126 281.3343 314.4032 H              1 RES1               0.0000
     22 H22        113.4147 280.0208 311.7108 H              1 RES1               0.0000
     23 H23        110.8230 277.3075 313.2663 H              1 RES1               0.0000
     24 H24        108.0278 281.4289 311.5471 H              1 RES1               0.0000
     25 H25        109.6611 280.9853 311.0568 H              1 RES1               0.0000
     26 H26        108.6586 279.8288 311.9303 H              1 RES1               0.0000
     27 H27        110.1545 281.9710 318.1317 H              1 RES1               0.0000
     28 H28        114.1210 282.1310 316.5758 H              1 RES1               0.0000
     29 H29        112.5513 282.4523 318.4484 H              1 RES1               0.0000
@<TRIPOS>BOND
    1    1    2 1     
    2    1    3 1     
    3    1    4 1     
    4    1    5 1     
    5    2    6 ar    
    6    2    7 ar    
    7    3    8 1     
    8    3    9 2     
    9    4   10 1     
   10    4   11 2     
   11    5   12 1     
   12    5   18 1     
   13    5   19 1     
   14    6   13 ar    
   15    6   20 1     
   16    7   14 ar    
   17    7   21 1     
   18    8   15 1     
   19    8   22 1     
   20   10   15 1     
   21   10   23 1     
   22   12   24 1     
   23   12   25 1     
   24   12   26 1     
   25   13   16 ar    
   26   13   27 1     
   27   14   16 ar    
   28   14   28 1     
   29   15   17 2     
   30   16   29 1     
@<TRIPOS>SUBSTRUCTURE
      1 RES1           1
@<TRIPOS>SET
DONOR_HYDROGENS      STATIC     ATOMS    <user>   **** ""
2 22 23
ATOM$RED        STATIC     ATOMS    COLORGROUP SYSTEM
2 22 23
@<TRIPOS>COMMENT
> <Gold.Version>
2022.3.0

> <Gold.Id.Protein>
unknown|5adg_clean|pdb

> <Gold.Protein.RotatedTorsions>
[ 1392 1385 1383 1380 ] final   72.15 input   60.03 | X-H torsion
[ 1421 1409 1410 1411 ] final  119.19 input  129.35 | X-H torsion
[ 1464 1452 1453 1454 ] final  -42.11 input  108.99 | X-H torsion
[ 1488 1477 1478 1479 ] final  128.83 input  100.07 | X-H torsion
[ 1529 1510 1511 1512 ] final  -50.07 input  113.76 | X-H torsion
[ 1564 1551 1552 1553 ] final   77.68 input  123.58 | X-H torsion
[ 1694 1683 1682 1681 ] final -114.94 input   60.00 | X-H torsion
[ 2447 2428 2429 2430 ] final   42.75 input  119.94 | X-H torsion
[ 2477 2467 2468 2469 ] final  -21.32 input  117.54 | X-H torsion
[ 2324 2316 2317 2318 ] final  -78.13 input  118.58 | X-H torsion
[ 2362 2351 2352 2353 ] final -121.92 input  116.99 | X-H torsion
[ 2407 2383 2384 2385 ] final   79.46 input  115.65 | X-H torsion
[ 2506 2497 2498 2499 ] final    9.15 input  121.55 | X-H torsion
[ 2572 2558 2559 2560 ] final  168.69 input  118.05 | X-H torsion
[ 2539 2525 2526 2527 ] final   61.43 input  116.25 | X-H torsion
[ 2600 2587 2588 2589 ] final  116.70 input  123.81 | X-H torsion
[ 2706 2698 2699 2700 ] final    0.24 input  119.89 | X-H torsion
[ 2668 2660 2661 2662 ] final  -23.67 input  116.13 | X-H torsion
[ 2640 2631 2632 2633 ] final  -92.58 input  117.28 | X-H torsion
[ 2728 2721 2722 2723 ] final   23.83 input   88.34 | X-H torsion
[ 2785 2776 2777 2778 ] final  144.03 input -114.77 | X-H torsion
[ 2608 2595 2594 2593 ] final -130.90 input   60.00 | X-H torsion
[ 1684 1675 1676 1677 ] final  105.96 input  120.12 | X-H torsion
[ 1635 1616 1617 1618 ] final  123.61 input  110.97 | X-H torsion
[ 2756 2749 2750 2751 ] final  128.97 input   47.81 | X-H torsion
[ 13465 1382 1381 1380 ] final  -51.00 input    0.00 | X-H torsion
[ 13470 1412 1411 1410 ] final   84.85 input    0.00 | X-H torsion
[ 13473 1455 1454 1453 ] final  127.69 input   -0.00 | X-H torsion
[ 13480 1480 1479 1478 ] final  -98.88 input   -0.00 | X-H torsion
[ 13484 1554 1553 1552 ] final  151.72 input    0.00 | X-H torsion
[ 13496 2319 2318 2317 ] final   15.58 input   -0.00 | X-H torsion
[ 13499 2431 2430 2429 ] final  165.77 input    0.00 | X-H torsion
[ 13504 2287 2286 2285 ] final   92.50 input   -0.00 | X-H torsion
[ 13508 2354 2353 2352 ] final  172.58 input    0.00 | X-H torsion
[ 13511 2386 2385 2384 ] final -131.52 input    0.00 | X-H torsion
[ 13513 2470 2469 2468 ] final  -87.75 input   -0.00 | X-H torsion
[ 13521 2528 2527 2526 ] final  -59.75 input    0.00 | X-H torsion
[ 13523 2561 2560 2559 ] final  -58.77 input   -0.00 | X-H torsion
[ 13527 2663 2662 2661 ] final    8.73 input    0.00 | X-H torsion
[ 13529 2590 2589 2588 ] final  137.40 input   -0.00 | X-H torsion
[ 13532 2701 2700 2699 ] final -136.17 input    0.00 | X-H torsion
[ 13535 1513 1512 1511 ] final  -77.70 input    0.00 | X-H torsion
[ 13537 2634 2633 2632 ] final   45.12 input    0.00 | X-H torsion
[ 13540 2779 2778 2777 ] final  179.76 input    0.00 | X-H torsion

> <Gold.Protein.ActiveResidues>
 THR355  LYS356  ASP357  GLN358  LEU359  PHE360  PRO361  LEU362  ALA363  LYS364 
 ASP368  PHE377  GLY378  HIS382  MET383  GLU384  ARG385  LEU386  GLU387  GLU388 
 VAL389  ASN390  LYS391  GLU392  ILE393  ASP394  THR395  THR396  SER397 

> <Gold.Protein.RotatedAtoms>
  106.3718  276.0696  317.1029 H   0  0  0  0  0  0  0  0  0  0  0  0  # atno 1392 bound_to 1385
  106.1354  275.7054  313.7543 H   0  0  0  0  0  0  0  0  0  0  0  0  # atno 1421 bound_to 1409
  108.7395  276.5621  315.4365 H   0  0  0  0  0  0  0  0  0  0  0  0  # atno 1464 bound_to 1452
  107.7280  275.9145  318.0071 H   0  0  0  0  0  0  0  0  0  0  0  0  # atno 1488 bound_to 1477
  110.5806  274.3625  317.9297 H   0  0  0  0  0  0  0  0  0  0  0  0  # atno 1529 bound_to 1510
  112.0699  275.6072  316.2170 H   0  0  0  0  0  0  0  0  0  0  0  0  # atno 1564 bound_to 1551
  114.1500  273.7776  318.9754 H   0  0  0  0  0  0  0  0  0  0  0  0  # atno 1635 bound_to 1616
  117.6060  274.1561  316.8524 H   0  0  0  0  0  0  0  0  0  0  0  0  # atno 1684 bound_to 1675
  122.7536  278.9888  319.9391 H   0  0  0  0  0  0  0  0  0  0  0  0  # atno 1694 bound_to 1683
  122.2538  277.4772  319.4790 H   0  0  0  0  0  0  0  0  0  0  0  0  # atno 1695 bound_to 1683
  123.5182  278.2068  318.6937 H   0  0  0  0  0  0  0  0  0  0  0  0  # atno 1696 bound_to 1683
  127.1370  277.0060  311.3081 H   0  0  0  0  0  0  0  0  0  0  0  0  # atno 2324 bound_to 2316
  126.3136  279.2383  308.7575 H   0  0  0  0  0  0  0  0  0  0  0  0  # atno 2362 bound_to 2351
  125.3925  276.2455  308.8857 H   0  0  0  0  0  0  0  0  0  0  0  0  # atno 2407 bound_to 2383
  123.3007  276.8352  309.4396 H   0  0  0  0  0  0  0  0  0  0  0  0  # atno 2447 bound_to 2428
  121.1358  277.5663  309.4195 H   0  0  0  0  0  0  0  0  0  0  0  0  # atno 2477 bound_to 2467
  120.1594  277.4410  307.8498 H   0  0  0  0  0  0  0  0  0  0  0  0  # atno 2506 bound_to 2497
  119.3143  276.1184  308.2939 H   0  0  0  0  0  0  0  0  0  0  0  0  # atno 2539 bound_to 2525
  117.7323  276.7891  309.9113 H   0  0  0  0  0  0  0  0  0  0  0  0  # atno 2572 bound_to 2558
  116.6612  278.4152  307.1857 H   0  0  0  0  0  0  0  0  0  0  0  0  # atno 2600 bound_to 2587
  119.8312  282.2353  303.9555 H   0  0  0  0  0  0  0  0  0  0  0  0  # atno 2608 bound_to 2595
  119.7580  280.6011  303.6860 H   0  0  0  0  0  0  0  0  0  0  0  0  # atno 2609 bound_to 2595
  119.9099  281.6462  302.4075 H   0  0  0  0  0  0  0  0  0  0  0  0  # atno 2610 bound_to 2595
  114.3192  277.1689  305.3870 H   0  0  0  0  0  0  0  0  0  0  0  0  # atno 2640 bound_to 2631
  112.6402  275.6154  306.8499 H   0  0  0  0  0  0  0  0  0  0  0  0  # atno 2668 bound_to 2660
  111.0285  276.5747  307.3794 H   0  0  0  0  0  0  0  0  0  0  0  0  # atno 2706 bound_to 2698
  110.1461  276.7234  305.8650 H   0  0  0  0  0  0  0  0  0  0  0  0  # atno 2728 bound_to 2721
  109.7417  275.1268  304.4904 H   0  0  0  0  0  0  0  0  0  0  0  0  # atno 2756 bound_to 2749
  107.1416  274.2622  306.5594 H   0  0  0  0  0  0  0  0  0  0  0  0  # atno 2785 bound_to 2776
  108.0132  274.2602  316.7807 LP  0  0  0  0  0  0  0  0  0  0  0  0  # atno 13465 bound_to 1382
  108.8173  273.8919  315.2915 LP  0  0  0  0  0  0  0  0  0  0  0  0  # atno 13466 bound_to 1382
  106.0121  274.7188  317.9358 LP  0  0  0  0  0  0  0  0  0  0  0  0  # atno 13467 bound_to 1385
  105.0510  276.0338  318.0525 LP  0  0  0  0  0  0  0  0  0  0  0  0  # atno 13468 bound_to 1385
  107.0580  274.6518  314.8029 LP  0  0  0  0  0  0  0  0  0  0  0  0  # atno 13469 bound_to 1409
  110.7173  277.4783  314.5186 LP  0  0  0  0  0  0  0  0  0  0  0  0  # atno 13470 bound_to 1412
  110.6748  276.0590  315.5104 LP  0  0  0  0  0  0  0  0  0  0  0  0  # atno 13471 bound_to 1412
  107.2705  277.5165  315.4215 LP  0  0  0  0  0  0  0  0  0  0  0  0  # atno 13472 bound_to 1452
  110.2961  277.3844  319.6355 LP  0  0  0  0  0  0  0  0  0  0  0  0  # atno 13473 bound_to 1455
  111.0911  277.8149  318.1581 LP  0  0  0  0  0  0  0  0  0  0  0  0  # atno 13474 bound_to 1455
  109.3143  276.5848  317.7081 LP  0  0  0  0  0  0  0  0  0  0  0  0  # atno 13479 bound_to 1477
  112.2929  274.4222  318.9196 LP  0  0  0  0  0  0  0  0  0  0  0  0  # atno 13480 bound_to 1480
  111.4583  272.9949  319.4356 LP  0  0  0  0  0  0  0  0  0  0  0  0  # atno 13481 bound_to 1480
  109.3995  274.3006  316.6417 LP  0  0  0  0  0  0  0  0  0  0  0  0  # atno 13482 bound_to 1510
  112.5319  274.1668  315.3491 LP  0  0  0  0  0  0  0  0  0  0  0  0  # atno 13483 bound_to 1551
  116.9444  275.3816  317.1375 LP  0  0  0  0  0  0  0  0  0  0  0  0  # atno 13484 bound_to 1554
  116.3600  274.3868  315.8458 LP  0  0  0  0  0  0  0  0  0  0  0  0  # atno 13485 bound_to 1554
  124.1495  279.6632  310.2404 LP  0  0  0  0  0  0  0  0  0  0  0  0  # atno 13496 bound_to 2319
  123.8801  278.7582  308.7884 LP  0  0  0  0  0  0  0  0  0  0  0  0  # atno 13497 bound_to 2319
  123.1458  275.3311  310.3180 LP  0  0  0  0  0  0  0  0  0  0  0  0  # atno 13498 bound_to 2428
  118.9796  278.2166  309.8435 LP  0  0  0  0  0  0  0  0  0  0  0  0  # atno 13499 bound_to 2431
  119.2401  276.7530  310.7324 LP  0  0  0  0  0  0  0  0  0  0  0  0  # atno 13500 bound_to 2431
  122.1622  278.9507  309.7158 LP  0  0  0  0  0  0  0  0  0  0  0  0  # atno 13501 bound_to 2467
  125.3550  276.4238  312.0327 LP  0  0  0  0  0  0  0  0  0  0  0  0  # atno 13504 bound_to 2287
  125.3726  276.0447  310.3427 LP  0  0  0  0  0  0  0  0  0  0  0  0  # atno 13505 bound_to 2287
  128.4562  277.9353  310.6337 LP  0  0  0  0  0  0  0  0  0  0  0  0  # atno 13506 bound_to 2316
  126.7625  277.5512  308.8278 LP  0  0  0  0  0  0  0  0  0  0  0  0  # atno 13507 bound_to 2351
  122.6590  276.3697  306.9227 LP  0  0  0  0  0  0  0  0  0  0  0  0  # atno 13508 bound_to 2354
  123.0839  277.9589  306.3804 LP  0  0  0  0  0  0  0  0  0  0  0  0  # atno 13509 bound_to 2354
  124.7904  276.4101  307.2546 LP  0  0  0  0  0  0  0  0  0  0  0  0  # atno 13510 bound_to 2383
  120.7289  275.7869  308.7622 LP  0  0  0  0  0  0  0  0  0  0  0  0  # atno 13511 bound_to 2386
  121.2227  274.1270  308.7304 LP  0  0  0  0  0  0  0  0  0  0  0  0  # atno 13512 bound_to 2386
  117.8783  278.3146  307.6794 LP  0  0  0  0  0  0  0  0  0  0  0  0  # atno 13513 bound_to 2470
  118.3938  279.2376  306.3075 LP  0  0  0  0  0  0  0  0  0  0  0  0  # atno 13514 bound_to 2470
  121.1687  278.0132  306.5407 LP  0  0  0  0  0  0  0  0  0  0  0  0  # atno 13517 bound_to 2497
  116.8752  276.3908  308.4405 LP  0  0  0  0  0  0  0  0  0  0  0  0  # atno 13518 bound_to 2558
  119.0504  274.9814  306.9906 LP  0  0  0  0  0  0  0  0  0  0  0  0  # atno 13519 bound_to 2525
  115.1784  278.4153  308.1147 LP  0  0  0  0  0  0  0  0  0  0  0  0  # atno 13520 bound_to 2587
  115.0543  274.9910  308.0193 LP  0  0  0  0  0  0  0  0  0  0  0  0  # atno 13521 bound_to 2528
  114.8242  275.4022  309.6860 LP  0  0  0  0  0  0  0  0  0  0  0  0  # atno 13522 bound_to 2528
  113.3599  277.4397  308.8892 LP  0  0  0  0  0  0  0  0  0  0  0  0  # atno 13523 bound_to 2561
  113.3013  279.0760  308.3241 LP  0  0  0  0  0  0  0  0  0  0  0  0  # atno 13524 bound_to 2561
  111.6879  277.5927  308.6388 LP  0  0  0  0  0  0  0  0  0  0  0  0  # atno 13525 bound_to 2698
  113.6409  274.8957  308.0864 LP  0  0  0  0  0  0  0  0  0  0  0  0  # atno 13526 bound_to 2660
  109.0616  275.1915  308.7687 LP  0  0  0  0  0  0  0  0  0  0  0  0  # atno 13527 bound_to 2663
  108.7199  276.6841  307.9591 LP  0  0  0  0  0  0  0  0  0  0  0  0  # atno 13528 bound_to 2663
  112.4212  277.1246  304.6743 LP  0  0  0  0  0  0  0  0  0  0  0  0  # atno 13529 bound_to 2590
  112.2572  278.3957  305.8393 LP  0  0  0  0  0  0  0  0  0  0  0  0  # atno 13530 bound_to 2590
  115.2414  276.3443  306.6236 LP  0  0  0  0  0  0  0  0  0  0  0  0  # atno 13531 bound_to 2631
  107.4036  277.7003  306.0044 LP  0  0  0  0  0  0  0  0  0  0  0  0  # atno 13532 bound_to 2701
  107.7415  279.2878  306.6090 LP  0  0  0  0  0  0  0  0  0  0  0  0  # atno 13533 bound_to 2701
  110.0447  278.4480  305.5761 LP  0  0  0  0  0  0  0  0  0  0  0  0  # atno 13534 bound_to 2721
  113.8181  272.9549  317.3676 LP  0  0  0  0  0  0  0  0  0  0  0  0  # atno 13535 bound_to 1513
  114.1474  272.7025  315.6860 LP  0  0  0  0  0  0  0  0  0  0  0  0  # atno 13536 bound_to 1513
  111.4988  273.7874  305.4093 LP  0  0  0  0  0  0  0  0  0  0  0  0  # atno 13537 bound_to 2634
  110.6765  275.0301  306.2922 LP  0  0  0  0  0  0  0  0  0  0  0  0  # atno 13538 bound_to 2634
  108.8169  273.8985  306.9234 LP  0  0  0  0  0  0  0  0  0  0  0  0  # atno 13539 bound_to 2776
  108.4305  271.2418  310.7133 LP  0  0  0  0  0  0  0  0  0  0  0  0  # atno 13540 bound_to 2779
  107.1435  272.3967  310.8110 LP  0  0  0  0  0  0  0  0  0  0  0  0  # atno 13541 bound_to 2779

> <Gold.Score>
     Fitness  S(hb_ext) S(vdw_ext)  S(hb_int)    S(int)      intcor
     23.99       6.04      14.44       0.00      -1.91      -0.76

> <Gold.Goldscore.Fitness>
23.9867

> <Gold.Goldscore.Internal.Vdw>
-2.2978

> <Gold.Goldscore.Internal.Torsion>
-0.3717

> <Gold.Goldscore.External.Vdw>
14.4409

> <Gold.Goldscore.Internal.HBond>
0.0000

> <Gold.Goldscore.External.HBond>
6.0414

> <Gold.Goldscore.Internal.Correction>
-0.7585

> <Gold.Goldscore.Hbonds>
donor molecule, donor type, donor heavy atom, donor atom, acceptor molecule, acceptor atom, score
      L1  H     8    22       P1  2565  1.00
      L1  H    10    23       P1  1412  0.02

> <Gold.Goldscore.Internal.Vdw.Weighted>
-2.2978

> <Gold.Goldscore.Internal.Torsion.Weighted>
-0.3717

> <Gold.Goldscore.External.Vdw.Weighted>
19.8562

> <Gold.Goldscore.Internal.HBond.Weighted>
0.0000

> <Gold.Goldscore.External.HBond.Weighted>
6.0414

> <Gold.Goldscore.Internal.Correction.Weighted>
-0.7585

> <Gold.Rescore>
     Score     S(PLP)   S(hbond)     S(cho)   S(metal)  DE(clash)   DE(tors)     intcor
     21.36     -20.43       0.86       0.00       0.00       0.56       0.55       ----

> <Gold.PLP.Fitness>
21.3618

> <Gold.PLP.PLP>
-20.4319

> <Gold.PLP.part.hbond>
-0.6301

> <Gold.PLP.part.metal>
0.0000

> <Gold.PLP.part.buried>
-3.6311

> <Gold.PLP.part.nonpolar>
-21.2183

> <Gold.PLP.part.repulsive>
3.8542

> <Gold.PLP.ligand.clash>
0.5571

> <Gold.PLP.ligand.torsion>
0.5525

> <Gold.PLP.Chemscore.Hbond>
0.8640

> <Gold.PLP.Chemscore.CHOScore>
0.0000

> <Gold.PLP.Chemscore.Metal>
0.0000

> <Gold.Chemscore.Hbonds>
donor molecule, donor type, donor heavy atom, donor atom, acceptor molecule, acceptor atom, score
      L1  H     8    22       P1  2565  0.54
      L1  H    10    23       P1  1412  0.34

> <Gold.PLP.Chemscore.Internal.Correction>
   9.000000E+99

