#       Name:                CT1002167954
#       Creating user name   hitesit
#       Creation time:       Sun Apr 16 20:17:44 2023


#       File generated by GOLD software.
#

@<TRIPOS>MOLECULE
CT1002167954|ligand_prepared|mol2|1|dock6
    29    30     1
SMALL
NO_CHARGES


@<TRIPOS>ATOM
      1 C1         111.9584 245.5219 324.2629 C.3            1 RES1               0.0000
      2 C2         113.4755 245.4813 323.9880 C.ar           1 RES1               0.0000
      3 C3         111.7015 246.7969 325.0607 C.2            1 RES1               0.0000
      4 C4         111.2768 245.4932 322.8994 C.2            1 RES1               0.0000
      5 C5         111.4395 244.3171 325.0819 C.3            1 RES1               0.0000
      6 C6         114.2332 246.6482 324.0217 C.ar           1 RES1               0.0000
      7 C7         114.1307 244.2864 323.7024 C.ar           1 RES1               0.0000
      8 N8         111.1021 247.8371 324.4137 N.am           1 RES1               0.0000
      9 O9         112.0554 246.9022 326.2286 O.2            1 RES1               0.0000
     10 N10        110.5674 246.6000 322.5128 N.am           1 RES1               0.0000
     11 O11        111.3615 244.5286 322.1493 O.2            1 RES1               0.0000
     12 C12        110.0153 244.4868 325.5869 C.3            1 RES1               0.0000
     13 C13        115.5970 246.6211 323.7815 C.ar           1 RES1               0.0000
     14 C14        115.4946 244.2617 323.4623 C.ar           1 RES1               0.0000
     15 C15        110.4747 247.7824 323.1951 C.2            1 RES1               0.0000
     16 C16        116.2286 245.4280 323.5021 C.ar           1 RES1               0.0000
     17 O17        109.8627 248.7522 322.7568 O.2            1 RES1               0.0000
     18 H18        111.4872 243.4176 324.4557 H              1 RES1               0.0000
     19 H19        112.1029 244.1626 325.9418 H              1 RES1               0.0000
     20 H20        113.7531 247.5968 324.2374 H              1 RES1               0.0000
     21 H21        113.5732 243.3567 323.6647 H              1 RES1               0.0000
     22 H22        111.1221 248.7390 324.8790 H              1 RES1               0.0000
     23 H23        110.0615 246.5365 321.6351 H              1 RES1               0.0000
     24 H24        109.7008 243.6138 326.1549 H              1 RES1               0.0000
     25 H25        109.9366 245.3582 326.2337 H              1 RES1               0.0000
     26 H26        109.3246 244.6177 324.7564 H              1 RES1               0.0000
     27 H27        116.1699 247.5420 323.8127 H              1 RES1               0.0000
     28 H28        115.9875 243.3205 323.2422 H              1 RES1               0.0000
     29 H29        117.2971 245.4070 323.3144 H              1 RES1               0.0000
@<TRIPOS>BOND
    1    1    2 1     
    2    1    3 1     
    3    1    4 1     
    4    1    5 1     
    5    2    6 ar    
    6    2    7 ar    
    7    3    8 1     
    8    3    9 2     
    9    4   10 1     
   10    4   11 2     
   11    5   12 1     
   12    5   18 1     
   13    5   19 1     
   14    6   13 ar    
   15    6   20 1     
   16    7   14 ar    
   17    7   21 1     
   18    8   15 1     
   19    8   22 1     
   20   10   15 1     
   21   10   23 1     
   22   12   24 1     
   23   12   25 1     
   24   12   26 1     
   25   13   16 ar    
   26   13   27 1     
   27   14   16 ar    
   28   14   28 1     
   29   15   17 2     
   30   16   29 1     
@<TRIPOS>SUBSTRUCTURE
      1 RES1           1
@<TRIPOS>SET
DONOR_HYDROGENS      STATIC     ATOMS    <user>   **** ""
2 22 23
ATOM$RED        STATIC     ATOMS    COLORGROUP SYSTEM
2 22 23
@<TRIPOS>COMMENT
> <Gold.Version>
2022.3.0

> <Gold.Id.Protein>
unknown|4uch_clean|pdb

> <Gold.Protein.RotatedTorsions>
[ 1279 1268 1269 1270 ] final  151.69 input   42.93 | X-H torsion
[ 12873 12852 12853 12854 ] final  -33.50 input  102.46 | X-H torsion
[ 12881 12863 12862 12860 ] final  -32.02 input   59.97 | X-H torsion
[ 12908 12891 12892 12893 ] final  145.02 input   33.49 | X-H torsion
[ 12964 12952 12953 12954 ] final   44.18 input  127.22 | X-H torsion
[ 13444 13426 13425 13421 ] final -128.26 input   59.98 | X-H torsion
[ 1240 1232 1233 1234 ] final -130.71 input  119.89 | X-H torsion
[ 5550 5545 5544 5541 ] final   99.72 input   60.01 | X-H torsion
[ 3552 3542 3543 3544 ] final  157.97 input   78.91 | X-H torsion
[ 3579 3563 3564 3565 ] final   19.50 input  104.01 | X-H torsion
[ 3601 3592 3593 3594 ] final   71.34 input   81.17 | X-H torsion
[ 8428 8423 8424 8425 ] final   66.76 input   41.93 | X-H torsion
[ 8452 8445 8446 8447 ] final  -92.73 input   98.48 | X-H torsion
[ 8978 8972 8973 8974 ] final -138.72 input   32.89 | X-H torsion
[ 8996 8992 8993 8994 ] final -177.62 input   45.98 | X-H torsion
[ 9030 9016 9017 9018 ] final  -48.49 input   38.77 | X-H torsion
[ 9076 9062 9063 9064 ] final  168.49 input   99.93 | X-H torsion
[ 9117 9100 9101 9102 ] final -132.73 input   97.82 | X-H torsion
[ 8482 8476 8477 8478 ] final   90.02 input   55.16 | X-H torsion
[ 9084 9073 9072 9070 ] final  122.50 input   60.02 | X-H torsion
[ 8948 8937 8938 8939 ] final -134.45 input   49.52 | X-H torsion
[ 8982 8977 8976 8973 ] final  115.54 input   60.00 | X-H torsion
[ 4895 4885 4884 4881 ] final  -69.54 input   59.99 | X-H torsion
[ 5574 5565 5566 5567 ] final -173.43 input   50.85 | X-H torsion
[ 5606 5598 5599 5600 ] final -113.55 input  117.92 | X-H torsion
[ 8328 8319 8318 8316 ] final -138.95 input   59.98 | X-H torsion
[ 5644 5636 5637 5638 ] final -118.76 input   69.86 | X-H torsion
[ 13449 13428 13427 13425 ] final -158.16 input   60.01 | X-H torsion
[ 8513 8500 8501 8502 ] final   63.05 input   75.08 | X-H torsion
[ 4911 4901 4902 4903 ] final  171.43 input   29.84 | X-H torsion
[ 13460 1235 1234 1233 ] final  103.56 input    0.00 | X-H torsion
[ 13464 8503 8502 8501 ] final  -57.93 input    0.00 | X-H torsion
[ 13466 12822 12821 12820 ] final  109.29 input   -0.00 | X-H torsion
[ 13469 12855 12854 12853 ] final -136.70 input   -0.00 | X-H torsion
[ 13474 12894 12893 12892 ] final  -53.99 input    0.00 | X-H torsion
[ 13493 5543 5542 5541 ] final -116.74 input    0.00 | X-H torsion
[ 13497 3502 3501 3500 ] final -131.24 input   -0.00 | X-H torsion
[ 13500 3545 3544 3543 ] final  -61.88 input    0.00 | X-H torsion
[ 13505 8400 8399 8398 ] final   16.44 input   -0.00 | X-H torsion
[ 13509 8448 8447 8446 ] final  -13.29 input    0.00 | X-H torsion
[ 13511 8940 8939 8938 ] final  161.35 input    0.00 | X-H torsion
[ 13514 8975 8974 8973 ] final  148.25 input   -0.00 | X-H torsion
[ 13517 8995 8994 8993 ] final  -24.62 input    0.00 | X-H torsion
[ 13520 9019 9018 9017 ] final -176.69 input   -0.00 | X-H torsion
[ 13528 8426 8425 8424 ] final -169.42 input    0.00 | X-H torsion
[ 13530 8363 8362 8361 ] final  175.06 input    0.00 | X-H torsion
[ 13542 5639 5638 5637 ] final   -4.06 input    0.00 | X-H torsion
[ 13548 9180 9179 9178 ] final   70.81 input   -0.00 | X-H torsion

> <Gold.Protein.ActiveResidues>
 TRP311  MET341  HIS342  TRP414  ALA417  ARG419  CYS420  VAL421  GLY422  ARG423 
 SER462  ALA463  SER482  GLN483  LEU484  ILE485  ARG486  TRP566  TYR567  LEU569 
 PRO570  ALA571  VAL572  SER573  ASN574  MET575  PHE589  SER590  GLY591  TRP592 
 TYR593  MET594  GLU597  ILE598  ARG601  ASP602  ARG608  TRP683  PHE696  GLU710 
 TYR711  GLN712  PRO713  ASP714  HEM750  H4B760 

> <Gold.Protein.RotatedAtoms>
  107.5461  253.1139  335.6051 H   0  0  0  0  0  0  0  0  0  0  0  0  # atno 1240 bound_to 1232
  106.2240  254.0223  332.0099 H   0  0  0  0  0  0  0  0  0  0  0  0  # atno 1279 bound_to 1268
  118.5724  252.0230  327.8562 H   0  0  0  0  0  0  0  0  0  0  0  0  # atno 3552 bound_to 3542
  121.4431  248.7747  327.5234 H   0  0  0  0  0  0  0  0  0  0  0  0  # atno 3579 bound_to 3563
  122.7666  248.7113  326.5116 H   0  0  0  0  0  0  0  0  0  0  0  0  # atno 3601 bound_to 3592
  123.9804  246.3432  318.1367 H   0  0  0  0  0  0  0  0  0  0  0  0  # atno 4895 bound_to 4885
  122.8404  246.9186  313.9963 H   0  0  0  0  0  0  0  0  0  0  0  0  # atno 4911 bound_to 4901
  107.0673  244.0702  321.0959 H   0  0  0  0  0  0  0  0  0  0  0  0  # atno 5550 bound_to 5545
  108.2649  244.7606  319.0295 H   0  0  0  0  0  0  0  0  0  0  0  0  # atno 5574 bound_to 5565
  109.8433  243.8750  315.8073 H   0  0  0  0  0  0  0  0  0  0  0  0  # atno 5606 bound_to 5598
  110.5102  240.9492  314.3366 H   0  0  0  0  0  0  0  0  0  0  0  0  # atno 5644 bound_to 5636
  111.4804  239.5250  320.4941 H   0  0  0  0  0  0  0  0  0  0  0  0  # atno 8328 bound_to 8319
  114.3831  242.3706  318.0416 H   0  0  0  0  0  0  0  0  0  0  0  0  # atno 8428 bound_to 8423
  113.7028  245.2666  317.9958 H   0  0  0  0  0  0  0  0  0  0  0  0  # atno 8452 bound_to 8445
  110.5731  246.8881  317.8045 H   0  0  0  0  0  0  0  0  0  0  0  0  # atno 8482 bound_to 8476
  109.5811  249.3128  318.6086 H   0  0  0  0  0  0  0  0  0  0  0  0  # atno 8513 bound_to 8500
  114.9745  249.4723  314.4664 H   0  0  0  0  0  0  0  0  0  0  0  0  # atno 8948 bound_to 8937
  117.2588  247.5996  316.4435 H   0  0  0  0  0  0  0  0  0  0  0  0  # atno 8978 bound_to 8972
  119.7051  244.0982  314.5274 H   0  0  0  0  0  0  0  0  0  0  0  0  # atno 8982 bound_to 8977
  119.7974  245.8933  318.0066 H   0  0  0  0  0  0  0  0  0  0  0  0  # atno 8996 bound_to 8992
  121.2421  243.4127  320.2914 H   0  0  0  0  0  0  0  0  0  0  0  0  # atno 9030 bound_to 9016
  120.8034  239.8819  321.3072 H   0  0  0  0  0  0  0  0  0  0  0  0  # atno 9076 bound_to 9062
  114.2819  239.3084  321.3676 H   0  0  0  0  0  0  0  0  0  0  0  0  # atno 9084 bound_to 9073
  121.8901  240.5018  324.9566 H   0  0  0  0  0  0  0  0  0  0  0  0  # atno 9117 bound_to 9100
  109.2253  257.2361  323.0688 H   0  0  0  0  0  0  0  0  0  0  0  0  # atno 12873 bound_to 12852
  110.3521  250.9868  327.8982 H   0  0  0  0  0  0  0  0  0  0  0  0  # atno 12881 bound_to 12863
  106.7815  255.7681  321.7609 H   0  0  0  0  0  0  0  0  0  0  0  0  # atno 12908 bound_to 12891
   99.9865  253.1647  321.1572 H   0  0  0  0  0  0  0  0  0  0  0  0  # atno 12964 bound_to 12952
  107.8520  246.2380  336.0441 H   0  0  0  0  0  0  0  0  0  0  0  0  # atno 13444 bound_to 13426
  109.7372  250.6161  337.4488 H   0  0  0  0  0  0  0  0  0  0  0  0  # atno 13449 bound_to 13428
  108.1571  253.8848  330.6774 LP  0  0  0  0  0  0  0  0  0  0  0  0  # atno 13460 bound_to 1235
  109.1740  254.5294  331.9226 LP  0  0  0  0  0  0  0  0  0  0  0  0  # atno 13461 bound_to 1235
  106.4747  255.0262  333.4236 LP  0  0  0  0  0  0  0  0  0  0  0  0  # atno 13462 bound_to 1268
  106.3808  252.7359  318.5843 LP  0  0  0  0  0  0  0  0  0  0  0  0  # atno 13464 bound_to 8503
  107.1623  252.8405  320.1264 LP  0  0  0  0  0  0  0  0  0  0  0  0  # atno 13465 bound_to 8503
  110.1209  255.1809  321.7047 LP  0  0  0  0  0  0  0  0  0  0  0  0  # atno 13466 bound_to 12822
  109.5302  256.5796  320.8712 LP  0  0  0  0  0  0  0  0  0  0  0  0  # atno 13467 bound_to 12822
  109.4983  256.4497  324.6025 LP  0  0  0  0  0  0  0  0  0  0  0  0  # atno 13468 bound_to 12852
  105.8088  258.0936  322.8343 LP  0  0  0  0  0  0  0  0  0  0  0  0  # atno 13469 bound_to 12855
  107.5265  258.1615  322.6219 LP  0  0  0  0  0  0  0  0  0  0  0  0  # atno 13470 bound_to 12855
  110.5688  252.2270  328.9291 LP  0  0  0  0  0  0  0  0  0  0  0  0  # atno 13471 bound_to 12863
  111.5729  252.0349  327.6557 LP  0  0  0  0  0  0  0  0  0  0  0  0  # atno 13472 bound_to 12863
  105.6983  255.1114  322.9645 LP  0  0  0  0  0  0  0  0  0  0  0  0  # atno 13473 bound_to 12891
  104.2904  253.5339  321.5271 LP  0  0  0  0  0  0  0  0  0  0  0  0  # atno 13474 bound_to 12894
  103.0722  253.8328  322.7215 LP  0  0  0  0  0  0  0  0  0  0  0  0  # atno 13475 bound_to 12894
  101.6716  252.6992  321.1369 LP  0  0  0  0  0  0  0  0  0  0  0  0  # atno 13476 bound_to 12952
  108.6867  246.5640  337.4022 LP  0  0  0  0  0  0  0  0  0  0  0  0  # atno 13490 bound_to 13426
  109.4341  245.8675  336.1283 LP  0  0  0  0  0  0  0  0  0  0  0  0  # atno 13491 bound_to 13426
  106.1579  253.9699  334.9696 LP  0  0  0  0  0  0  0  0  0  0  0  0  # atno 13492 bound_to 1232
  109.7053  246.5052  318.1809 LP  0  0  0  0  0  0  0  0  0  0  0  0  # atno 13493 bound_to 5543
  109.2082  246.5194  319.8400 LP  0  0  0  0  0  0  0  0  0  0  0  0  # atno 13494 bound_to 5543
  106.2765  243.7127  319.7189 LP  0  0  0  0  0  0  0  0  0  0  0  0  # atno 13495 bound_to 5545
  105.4410  244.0046  321.0913 LP  0  0  0  0  0  0  0  0  0  0  0  0  # atno 13496 bound_to 5545
  118.9297  249.3758  329.6971 LP  0  0  0  0  0  0  0  0  0  0  0  0  # atno 13497 bound_to 3502
  117.2363  249.6882  329.5109 LP  0  0  0  0  0  0  0  0  0  0  0  0  # atno 13498 bound_to 3502
  119.6300  251.6965  329.2060 LP  0  0  0  0  0  0  0  0  0  0  0  0  # atno 13499 bound_to 3542
  122.5731  251.4494  327.1577 LP  0  0  0  0  0  0  0  0  0  0  0  0  # atno 13500 bound_to 3545
  122.6542  251.4013  328.8872 LP  0  0  0  0  0  0  0  0  0  0  0  0  # atno 13501 bound_to 3545
  120.9182  249.4326  329.0598 LP  0  0  0  0  0  0  0  0  0  0  0  0  # atno 13502 bound_to 3563
  123.8578  248.1398  327.7507 LP  0  0  0  0  0  0  0  0  0  0  0  0  # atno 13503 bound_to 3592
  118.1558  243.1544  318.5603 LP  0  0  0  0  0  0  0  0  0  0  0  0  # atno 13505 bound_to 8400
  117.1099  244.4951  318.2309 LP  0  0  0  0  0  0  0  0  0  0  0  0  # atno 13506 bound_to 8400
  115.8314  243.0560  318.7320 LP  0  0  0  0  0  0  0  0  0  0  0  0  # atno 13507 bound_to 8423
  114.8171  246.5640  318.3570 LP  0  0  0  0  0  0  0  0  0  0  0  0  # atno 13508 bound_to 8445
  113.9322  248.7712  317.3919 LP  0  0  0  0  0  0  0  0  0  0  0  0  # atno 13509 bound_to 8448
  112.6904  249.0011  316.2065 LP  0  0  0  0  0  0  0  0  0  0  0  0  # atno 13510 bound_to 8448
  116.1089  246.1488  317.1903 LP  0  0  0  0  0  0  0  0  0  0  0  0  # atno 13511 bound_to 8940
  115.2409  247.6450  317.2801 LP  0  0  0  0  0  0  0  0  0  0  0  0  # atno 13512 bound_to 8940
  118.8256  247.6749  315.6748 LP  0  0  0  0  0  0  0  0  0  0  0  0  # atno 13513 bound_to 8972
  121.5282  246.8326  317.2780 LP  0  0  0  0  0  0  0  0  0  0  0  0  # atno 13514 bound_to 8975
  120.7145  246.7641  315.7505 LP  0  0  0  0  0  0  0  0  0  0  0  0  # atno 13515 bound_to 8975
  119.5226  244.1675  318.0418 LP  0  0  0  0  0  0  0  0  0  0  0  0  # atno 13516 bound_to 8992
  120.8553  242.7558  317.2019 LP  0  0  0  0  0  0  0  0  0  0  0  0  # atno 13517 bound_to 8995
  121.9593  241.6227  317.9071 LP  0  0  0  0  0  0  0  0  0  0  0  0  # atno 13518 bound_to 8995
  122.8577  243.2959  319.6391 LP  0  0  0  0  0  0  0  0  0  0  0  0  # atno 13519 bound_to 9016
  121.2780  242.0647  323.5548 LP  0  0  0  0  0  0  0  0  0  0  0  0  # atno 13520 bound_to 9019
  121.7202  243.1443  322.2746 LP  0  0  0  0  0  0  0  0  0  0  0  0  # atno 13521 bound_to 9019
  122.2721  240.3373  322.1369 LP  0  0  0  0  0  0  0  0  0  0  0  0  # atno 13522 bound_to 9062
  120.2443  240.4343  325.5396 LP  0  0  0  0  0  0  0  0  0  0  0  0  # atno 13523 bound_to 9100
  111.7637  245.2737  317.5141 LP  0  0  0  0  0  0  0  0  0  0  0  0  # atno 13528 bound_to 8426
  112.4395  243.7644  316.9993 LP  0  0  0  0  0  0  0  0  0  0  0  0  # atno 13529 bound_to 8426
  114.8878  240.2539  317.7416 LP  0  0  0  0  0  0  0  0  0  0  0  0  # atno 13530 bound_to 8363
  115.2175  239.2198  316.3918 LP  0  0  0  0  0  0  0  0  0  0  0  0  # atno 13531 bound_to 8363
  111.7116  248.2029  317.9590 LP  0  0  0  0  0  0  0  0  0  0  0  0  # atno 13532 bound_to 8476
  114.0127  239.6499  322.9356 LP  0  0  0  0  0  0  0  0  0  0  0  0  # atno 13533 bound_to 9073
  113.9588  238.1038  322.4128 LP  0  0  0  0  0  0  0  0  0  0  0  0  # atno 13534 bound_to 9073
  114.5895  248.9223  316.0814 LP  0  0  0  0  0  0  0  0  0  0  0  0  # atno 13535 bound_to 8937
  119.7075  245.7156  314.7071 LP  0  0  0  0  0  0  0  0  0  0  0  0  # atno 13536 bound_to 8977
  118.6276  245.0036  313.7103 LP  0  0  0  0  0  0  0  0  0  0  0  0  # atno 13537 bound_to 8977
  125.2411  247.3552  318.3204 LP  0  0  0  0  0  0  0  0  0  0  0  0  # atno 13538 bound_to 4885
  125.3976  246.0077  317.4114 LP  0  0  0  0  0  0  0  0  0  0  0  0  # atno 13539 bound_to 4885
  107.5032  244.0005  317.6525 LP  0  0  0  0  0  0  0  0  0  0  0  0  # atno 13540 bound_to 5565
  111.2934  242.9641  316.1531 LP  0  0  0  0  0  0  0  0  0  0  0  0  # atno 13541 bound_to 5598
  111.6981  239.6502  317.6531 LP  0  0  0  0  0  0  0  0  0  0  0  0  # atno 13542 bound_to 5639
  110.3483  239.1758  318.6294 LP  0  0  0  0  0  0  0  0  0  0  0  0  # atno 13543 bound_to 5639
  111.9538  238.6353  321.7721 LP  0  0  0  0  0  0  0  0  0  0  0  0  # atno 13544 bound_to 8319
  110.5150  238.3421  321.0576 LP  0  0  0  0  0  0  0  0  0  0  0  0  # atno 13545 bound_to 8319
  113.3826  238.6483  327.8998 LP  0  0  0  0  0  0  0  0  0  0  0  0  # atno 13548 bound_to 9180
  113.5690  237.5114  329.1931 LP  0  0  0  0  0  0  0  0  0  0  0  0  # atno 13549 bound_to 9180
  111.5939  241.0307  315.7076 LP  0  0  0  0  0  0  0  0  0  0  0  0  # atno 13552 bound_to 5636

> <Gold.Score>
     Fitness  S(hb_ext) S(vdw_ext)  S(hb_int)    S(int)      intcor
     35.75       3.55      24.19       0.00      -1.06      -0.77

> <Gold.Goldscore.Fitness>
35.7542

> <Gold.Goldscore.Internal.Vdw>
-1.2472

> <Gold.Goldscore.Internal.Torsion>
-0.5754

> <Gold.Goldscore.External.Vdw>
24.1887

> <Gold.Goldscore.Internal.HBond>
0.0000

> <Gold.Goldscore.External.HBond>
3.5520

> <Gold.Goldscore.Internal.Correction>
-0.7653

> <Gold.Goldscore.Hbonds>
donor molecule, donor type, donor heavy atom, donor atom, acceptor molecule, acceptor atom, score
      L1  H     8    22       P1 13311  0.49
      L1  H    10    23       P1  5543  0.31

> <Gold.Goldscore.Internal.Vdw.Weighted>
-1.2472

> <Gold.Goldscore.Internal.Torsion.Weighted>
-0.5754

> <Gold.Goldscore.External.Vdw.Weighted>
33.2595

> <Gold.Goldscore.Internal.HBond.Weighted>
0.0000

> <Gold.Goldscore.External.HBond.Weighted>
3.5520

> <Gold.Goldscore.Internal.Correction.Weighted>
-0.7653

> <Gold.Rescore>
     Score     S(PLP)   S(hbond)     S(cho)   S(metal)  DE(clash)   DE(tors)     intcor
     -4.56       3.42       0.44       0.00       0.00       0.58       0.93       ----

> <Gold.PLP.Fitness>
-4.5575

> <Gold.PLP.PLP>
3.4159

> <Gold.PLP.part.hbond>
-1.0177

> <Gold.PLP.part.metal>
0.0000

> <Gold.PLP.part.buried>
18.3200

> <Gold.PLP.part.nonpolar>
-29.3673

> <Gold.PLP.part.repulsive>
13.1647

> <Gold.PLP.ligand.clash>
0.5838

> <Gold.PLP.ligand.torsion>
0.9341

> <Gold.PLP.Chemscore.Hbond>
0.4368

> <Gold.PLP.Chemscore.CHOScore>
0.0000

> <Gold.PLP.Chemscore.Metal>
0.0000

> <Gold.Chemscore.Hbonds>
donor molecule, donor type, donor heavy atom, donor atom, acceptor molecule, acceptor atom, score
      L1  H     8    22       P1 13311  0.76

> <Gold.PLP.Chemscore.Internal.Correction>
   9.000000E+99

