#       Name:                CT1002167954
#       Creating user name   hitesit
#       Creation time:       Sun Apr 16 20:17:47 2023


#       File generated by GOLD software.
#

@<TRIPOS>MOLECULE
CT1002167954|ligand_prepared|mol2|1|dock9
    29    30     1
SMALL
NO_CHARGES


@<TRIPOS>ATOM
      1 C1         113.4809 244.0596 324.1832 C.3            1 RES1               0.0000
      2 C2         114.8752 244.5864 323.7865 C.ar           1 RES1               0.0000
      3 C3         112.8873 243.4298 322.9265 C.2            1 RES1               0.0000
      4 C4         113.7061 243.0753 325.3256 C.2            1 RES1               0.0000
      5 C5         112.5164 245.1599 324.6838 C.3            1 RES1               0.0000
      6 C6         115.1894 245.9349 323.9267 C.ar           1 RES1               0.0000
      7 C7         115.8565 243.7372 323.2822 C.ar           1 RES1               0.0000
      8 N8         112.8303 242.0684 322.8686 N.am           1 RES1               0.0000
      9 O9         112.5115 244.1161 321.9842 O.2            1 RES1               0.0000
     10 N10        113.4135 241.7552 325.1028 N.am           1 RES1               0.0000
     11 O11        114.1498 243.4283 326.4113 O.2            1 RES1               0.0000
     12 C12        111.1357 244.6425 325.0550 C.3            1 RES1               0.0000
     13 C13        116.4404 246.4164 323.5782 C.ar           1 RES1               0.0000
     14 C14        117.1069 244.2209 322.9342 C.ar           1 RES1               0.0000
     15 C15        113.0149 241.2024 323.9163 C.2            1 RES1               0.0000
     16 C16        117.4000 245.5599 323.0822 C.ar           1 RES1               0.0000
     17 O17        112.8237 239.9975 323.7797 O.2            1 RES1               0.0000
     18 H18        112.9596 245.6451 325.5621 H              1 RES1               0.0000
     19 H19        112.4097 245.9194 323.8994 H              1 RES1               0.0000
     20 H20        114.4463 246.6244 324.3130 H              1 RES1               0.0000
     21 H21        115.6479 242.6802 323.1562 H              1 RES1               0.0000
     22 H22        112.6320 241.6561 321.9625 H              1 RES1               0.0000
     23 H23        113.5009 241.1264 325.8948 H              1 RES1               0.0000
     24 H24        110.4991 245.4547 325.3995 H              1 RES1               0.0000
     25 H25        110.6552 244.1758 324.1976 H              1 RES1               0.0000
     26 H26        111.2019 243.9031 325.8504 H              1 RES1               0.0000
     27 H27        116.6657 247.4713 323.6954 H              1 RES1               0.0000
     28 H28        117.8589 243.5432 322.5436 H              1 RES1               0.0000
     29 H29        118.3801 245.9373 322.8097 H              1 RES1               0.0000
@<TRIPOS>BOND
    1    1    2 1     
    2    1    3 1     
    3    1    4 1     
    4    1    5 1     
    5    2    6 ar    
    6    2    7 ar    
    7    3    8 1     
    8    3    9 2     
    9    4   10 1     
   10    4   11 2     
   11    5   12 1     
   12    5   18 1     
   13    5   19 1     
   14    6   13 ar    
   15    6   20 1     
   16    7   14 ar    
   17    7   21 1     
   18    8   15 1     
   19    8   22 1     
   20   10   15 1     
   21   10   23 1     
   22   12   24 1     
   23   12   25 1     
   24   12   26 1     
   25   13   16 ar    
   26   13   27 1     
   27   14   16 ar    
   28   14   28 1     
   29   15   17 2     
   30   16   29 1     
@<TRIPOS>SUBSTRUCTURE
      1 RES1           1
@<TRIPOS>SET
DONOR_HYDROGENS      STATIC     ATOMS    <user>   **** ""
2 22 23
ATOM$RED        STATIC     ATOMS    COLORGROUP SYSTEM
2 22 23
@<TRIPOS>COMMENT
> <Gold.Version>
2022.3.0

> <Gold.Id.Protein>
unknown|4uch_clean|pdb

> <Gold.Protein.RotatedTorsions>
[ 1279 1268 1269 1270 ] final -104.45 input   42.93 | X-H torsion
[ 12873 12852 12853 12854 ] final  175.03 input  102.46 | X-H torsion
[ 12881 12863 12862 12860 ] final -103.52 input   59.97 | X-H torsion
[ 12908 12891 12892 12893 ] final -143.37 input   33.49 | X-H torsion
[ 12964 12952 12953 12954 ] final   56.79 input  127.22 | X-H torsion
[ 13444 13426 13425 13421 ] final -115.90 input   59.98 | X-H torsion
[ 1240 1232 1233 1234 ] final    8.73 input  119.89 | X-H torsion
[ 5550 5545 5544 5541 ] final   88.24 input   60.01 | X-H torsion
[ 3552 3542 3543 3544 ] final  161.80 input   78.91 | X-H torsion
[ 3579 3563 3564 3565 ] final -116.73 input  104.01 | X-H torsion
[ 3601 3592 3593 3594 ] final   39.07 input   81.17 | X-H torsion
[ 8428 8423 8424 8425 ] final   12.34 input   41.93 | X-H torsion
[ 8452 8445 8446 8447 ] final  -26.48 input   98.48 | X-H torsion
[ 8978 8972 8973 8974 ] final  177.24 input   32.89 | X-H torsion
[ 8996 8992 8993 8994 ] final   -4.49 input   45.98 | X-H torsion
[ 9030 9016 9017 9018 ] final -106.08 input   38.77 | X-H torsion
[ 9076 9062 9063 9064 ] final -164.58 input   99.93 | X-H torsion
[ 9117 9100 9101 9102 ] final  -35.89 input   97.82 | X-H torsion
[ 8482 8476 8477 8478 ] final   14.27 input   55.16 | X-H torsion
[ 9084 9073 9072 9070 ] final -139.83 input   60.02 | X-H torsion
[ 8948 8937 8938 8939 ] final -148.75 input   49.52 | X-H torsion
[ 8982 8977 8976 8973 ] final   69.86 input   60.00 | X-H torsion
[ 4895 4885 4884 4881 ] final    1.61 input   59.99 | X-H torsion
[ 5574 5565 5566 5567 ] final  -64.49 input   50.85 | X-H torsion
[ 5606 5598 5599 5600 ] final   38.98 input  117.92 | X-H torsion
[ 8328 8319 8318 8316 ] final   88.44 input   59.98 | X-H torsion
[ 5644 5636 5637 5638 ] final -147.29 input   69.86 | X-H torsion
[ 13449 13428 13427 13425 ] final  109.09 input   60.01 | X-H torsion
[ 8513 8500 8501 8502 ] final  -60.01 input   75.08 | X-H torsion
[ 4911 4901 4902 4903 ] final  154.86 input   29.84 | X-H torsion
[ 13460 1235 1234 1233 ] final  174.20 input    0.00 | X-H torsion
[ 13464 8503 8502 8501 ] final  -60.57 input    0.00 | X-H torsion
[ 13466 12822 12821 12820 ] final  110.62 input   -0.00 | X-H torsion
[ 13469 12855 12854 12853 ] final  175.55 input   -0.00 | X-H torsion
[ 13474 12894 12893 12892 ] final -129.70 input    0.00 | X-H torsion
[ 13493 5543 5542 5541 ] final  178.18 input    0.00 | X-H torsion
[ 13497 3502 3501 3500 ] final  -21.55 input   -0.00 | X-H torsion
[ 13500 3545 3544 3543 ] final    4.95 input    0.00 | X-H torsion
[ 13505 8400 8399 8398 ] final  -27.31 input   -0.00 | X-H torsion
[ 13509 8448 8447 8446 ] final   -8.94 input    0.00 | X-H torsion
[ 13511 8940 8939 8938 ] final  128.71 input    0.00 | X-H torsion
[ 13514 8975 8974 8973 ] final  -24.52 input   -0.00 | X-H torsion
[ 13517 8995 8994 8993 ] final   31.56 input    0.00 | X-H torsion
[ 13520 9019 9018 9017 ] final  -30.40 input   -0.00 | X-H torsion
[ 13528 8426 8425 8424 ] final   14.60 input    0.00 | X-H torsion
[ 13530 8363 8362 8361 ] final  107.33 input    0.00 | X-H torsion
[ 13542 5639 5638 5637 ] final  -55.79 input    0.00 | X-H torsion
[ 13548 9180 9179 9178 ] final  179.77 input   -0.00 | X-H torsion

> <Gold.Protein.ActiveResidues>
 TRP311  MET341  HIS342  TRP414  ALA417  ARG419  CYS420  VAL421  GLY422  ARG423 
 SER462  ALA463  SER482  GLN483  LEU484  ILE485  ARG486  TRP566  TYR567  LEU569 
 PRO570  ALA571  VAL572  SER573  ASN574  MET575  PHE589  SER590  GLY591  TRP592 
 TYR593  MET594  GLU597  ILE598  ARG601  ASP602  ARG608  TRP683  PHE696  GLU710 
 TYR711  GLN712  PRO713  ASP714  HEM750  H4B760 

> <Gold.Protein.RotatedAtoms>
  106.6328  254.3484  334.9515 H   0  0  0  0  0  0  0  0  0  0  0  0  # atno 1240 bound_to 1232
  107.2383  254.6376  332.7646 H   0  0  0  0  0  0  0  0  0  0  0  0  # atno 1279 bound_to 1268
  118.5354  251.9828  327.8780 H   0  0  0  0  0  0  0  0  0  0  0  0  # atno 3552 bound_to 3542
  121.2537  249.8893  328.7329 H   0  0  0  0  0  0  0  0  0  0  0  0  # atno 3579 bound_to 3563
  123.0545  249.0923  326.6263 H   0  0  0  0  0  0  0  0  0  0  0  0  # atno 3601 bound_to 3592
  124.6676  245.7652  317.5209 H   0  0  0  0  0  0  0  0  0  0  0  0  # atno 4895 bound_to 4885
  122.6505  246.7511  313.9726 H   0  0  0  0  0  0  0  0  0  0  0  0  # atno 4911 bound_to 4901
  107.1466  244.0341  320.9301 H   0  0  0  0  0  0  0  0  0  0  0  0  # atno 5550 bound_to 5545
  107.8272  244.9629  317.6746 H   0  0  0  0  0  0  0  0  0  0  0  0  # atno 5574 bound_to 5565
  110.9995  242.6935  316.2666 H   0  0  0  0  0  0  0  0  0  0  0  0  # atno 5606 bound_to 5598
  110.9055  240.8694  314.1666 H   0  0  0  0  0  0  0  0  0  0  0  0  # atno 5644 bound_to 5636
  111.8144  238.4909  321.8212 H   0  0  0  0  0  0  0  0  0  0  0  0  # atno 8328 bound_to 8319
  114.2979  242.8212  318.7013 H   0  0  0  0  0  0  0  0  0  0  0  0  # atno 8428 bound_to 8423
  113.9306  245.9593  317.3612 H   0  0  0  0  0  0  0  0  0  0  0  0  # atno 8452 bound_to 8445
  110.4567  247.8044  318.3668 H   0  0  0  0  0  0  0  0  0  0  0  0  # atno 8482 bound_to 8476
  109.5359  249.9034  317.1788 H   0  0  0  0  0  0  0  0  0  0  0  0  # atno 8513 bound_to 8500
  114.9741  249.6706  314.5636 H   0  0  0  0  0  0  0  0  0  0  0  0  # atno 8948 bound_to 8937
  117.2435  247.3638  315.8255 H   0  0  0  0  0  0  0  0  0  0  0  0  # atno 8978 bound_to 8972
  120.0401  244.6431  314.8727 H   0  0  0  0  0  0  0  0  0  0  0  0  # atno 8982 bound_to 8977
  119.5642  244.1437  317.9461 H   0  0  0  0  0  0  0  0  0  0  0  0  # atno 8996 bound_to 8992
  121.3383  243.2305  319.4680 H   0  0  0  0  0  0  0  0  0  0  0  0  # atno 9030 bound_to 9016
  120.7544  240.2846  321.3745 H   0  0  0  0  0  0  0  0  0  0  0  0  # atno 9076 bound_to 9062
  114.0296  238.1046  322.0557 H   0  0  0  0  0  0  0  0  0  0  0  0  # atno 9084 bound_to 9073
  120.9202  239.6129  325.0776 H   0  0  0  0  0  0  0  0  0  0  0  0  # atno 9117 bound_to 9100
  109.7406  256.2176  324.3334 H   0  0  0  0  0  0  0  0  0  0  0  0  # atno 12873 bound_to 12852
  110.1319  251.6113  328.7688 H   0  0  0  0  0  0  0  0  0  0  0  0  # atno 12881 bound_to 12863
  106.4853  256.2418  322.6310 H   0  0  0  0  0  0  0  0  0  0  0  0  # atno 12908 bound_to 12891
   99.9770  253.0437  321.3091 H   0  0  0  0  0  0  0  0  0  0  0  0  # atno 12964 bound_to 12952
  107.9624  246.1522  335.8988 H   0  0  0  0  0  0  0  0  0  0  0  0  # atno 13444 bound_to 13426
  108.7017  250.7346  336.5832 H   0  0  0  0  0  0  0  0  0  0  0  0  # atno 13449 bound_to 13428
  108.2586  254.8565  330.8966 LP  0  0  0  0  0  0  0  0  0  0  0  0  # atno 13460 bound_to 1235
  109.0725  253.5577  331.7033 LP  0  0  0  0  0  0  0  0  0  0  0  0  # atno 13461 bound_to 1235
  105.4995  254.4346  332.6980 LP  0  0  0  0  0  0  0  0  0  0  0  0  # atno 13462 bound_to 1268
  106.4017  252.7678  318.5725 LP  0  0  0  0  0  0  0  0  0  0  0  0  # atno 13464 bound_to 8503
  107.1413  252.8087  320.1382 LP  0  0  0  0  0  0  0  0  0  0  0  0  # atno 13465 bound_to 8503
  110.1019  255.1753  321.7082 LP  0  0  0  0  0  0  0  0  0  0  0  0  # atno 13466 bound_to 12822
  109.5492  256.5853  320.8677 LP  0  0  0  0  0  0  0  0  0  0  0  0  # atno 13467 bound_to 12822
  108.9904  257.4535  323.3562 LP  0  0  0  0  0  0  0  0  0  0  0  0  # atno 13468 bound_to 12852
  106.0118  258.0953  322.1634 LP  0  0  0  0  0  0  0  0  0  0  0  0  # atno 13469 bound_to 12855
  107.3235  258.1598  323.2928 LP  0  0  0  0  0  0  0  0  0  0  0  0  # atno 13470 bound_to 12855
  111.4171  252.4771  328.2721 LP  0  0  0  0  0  0  0  0  0  0  0  0  # atno 13471 bound_to 12863
  110.9464  251.1559  327.4358 LP  0  0  0  0  0  0  0  0  0  0  0  0  # atno 13472 bound_to 12863
  105.9878  254.6485  322.1143 LP  0  0  0  0  0  0  0  0  0  0  0  0  # atno 13473 bound_to 12891
  103.2413  253.3872  321.4397 LP  0  0  0  0  0  0  0  0  0  0  0  0  # atno 13474 bound_to 12894
  104.1213  253.9795  322.8090 LP  0  0  0  0  0  0  0  0  0  0  0  0  # atno 13475 bound_to 12894
  101.6808  252.8172  320.9888 LP  0  0  0  0  0  0  0  0  0  0  0  0  # atno 13476 bound_to 12952
  108.4896  246.6017  337.3711 LP  0  0  0  0  0  0  0  0  0  0  0  0  # atno 13490 bound_to 13426
  109.5200  245.9162  336.3057 LP  0  0  0  0  0  0  0  0  0  0  0  0  # atno 13491 bound_to 13426
  107.0415  252.7756  335.6020 LP  0  0  0  0  0  0  0  0  0  0  0  0  # atno 13492 bound_to 1232
  110.0179  245.8861  318.8030 LP  0  0  0  0  0  0  0  0  0  0  0  0  # atno 13493 bound_to 5543
  108.8956  247.1385  319.2179 LP  0  0  0  0  0  0  0  0  0  0  0  0  # atno 13494 bound_to 5543
  106.0888  243.7096  319.7364 LP  0  0  0  0  0  0  0  0  0  0  0  0  # atno 13495 bound_to 5545
  105.5489  244.0441  321.2408 LP  0  0  0  0  0  0  0  0  0  0  0  0  # atno 13496 bound_to 5545
  117.7508  249.7984  330.3581 LP  0  0  0  0  0  0  0  0  0  0  0  0  # atno 13497 bound_to 3502
  118.4152  249.2656  328.8499 LP  0  0  0  0  0  0  0  0  0  0  0  0  # atno 13498 bound_to 3502
  119.6663  251.7360  329.1846 LP  0  0  0  0  0  0  0  0  0  0  0  0  # atno 13499 bound_to 3542
  122.0314  251.9929  327.7244 LP  0  0  0  0  0  0  0  0  0  0  0  0  # atno 13500 bound_to 3545
  123.1959  250.8578  328.3206 LP  0  0  0  0  0  0  0  0  0  0  0  0  # atno 13501 bound_to 3545
  121.1007  248.3588  327.8945 LP  0  0  0  0  0  0  0  0  0  0  0  0  # atno 13502 bound_to 3563
  123.5762  247.7673  327.6386 LP  0  0  0  0  0  0  0  0  0  0  0  0  # atno 13503 bound_to 3592
  117.9826  243.4625  319.1002 LP  0  0  0  0  0  0  0  0  0  0  0  0  # atno 13505 bound_to 8400
  117.2831  244.1869  317.6910 LP  0  0  0  0  0  0  0  0  0  0  0  0  # atno 13506 bound_to 8400
  115.9154  242.6117  318.0816 LP  0  0  0  0  0  0  0  0  0  0  0  0  # atno 13507 bound_to 8423
  114.5948  245.8878  318.9765 LP  0  0  0  0  0  0  0  0  0  0  0  0  # atno 13508 bound_to 8445
  113.9522  248.7193  317.3572 LP  0  0  0  0  0  0  0  0  0  0  0  0  # atno 13509 bound_to 8448
  112.6704  249.0531  316.2412 LP  0  0  0  0  0  0  0  0  0  0  0  0  # atno 13510 bound_to 8448
  115.8234  246.1652  316.7964 LP  0  0  0  0  0  0  0  0  0  0  0  0  # atno 13511 bound_to 8940
  115.5264  247.6286  317.6740 LP  0  0  0  0  0  0  0  0  0  0  0  0  # atno 13512 bound_to 8940
  118.8406  247.9060  316.2803 LP  0  0  0  0  0  0  0  0  0  0  0  0  # atno 13513 bound_to 8972
  120.6603  246.8533  315.7832 LP  0  0  0  0  0  0  0  0  0  0  0  0  # atno 13514 bound_to 8975
  121.5823  246.7435  317.2453 LP  0  0  0  0  0  0  0  0  0  0  0  0  # atno 13515 bound_to 8975
  119.7502  245.8749  318.1009 LP  0  0  0  0  0  0  0  0  0  0  0  0  # atno 13516 bound_to 8992
  121.6434  242.8105  316.9992 LP  0  0  0  0  0  0  0  0  0  0  0  0  # atno 13517 bound_to 8995
  121.1713  241.5680  318.1097 LP  0  0  0  0  0  0  0  0  0  0  0  0  # atno 13518 bound_to 8995
  122.7632  243.4748  320.4475 LP  0  0  0  0  0  0  0  0  0  0  0  0  # atno 13519 bound_to 9016
  122.1463  243.0035  322.5001 LP  0  0  0  0  0  0  0  0  0  0  0  0  # atno 13520 bound_to 9019
  120.8519  242.2055  323.3293 LP  0  0  0  0  0  0  0  0  0  0  0  0  # atno 13521 bound_to 9019
  122.3200  239.9435  322.0711 LP  0  0  0  0  0  0  0  0  0  0  0  0  # atno 13522 bound_to 9062
  121.1934  241.3041  325.4212 LP  0  0  0  0  0  0  0  0  0  0  0  0  # atno 13523 bound_to 9100
  112.4314  243.7439  317.0559 LP  0  0  0  0  0  0  0  0  0  0  0  0  # atno 13528 bound_to 8426
  111.7718  245.2942  317.4575 LP  0  0  0  0  0  0  0  0  0  0  0  0  # atno 13529 bound_to 8426
  114.8964  239.2900  317.7919 LP  0  0  0  0  0  0  0  0  0  0  0  0  # atno 13530 bound_to 8363
  115.2089  240.1837  316.3415 LP  0  0  0  0  0  0  0  0  0  0  0  0  # atno 13531 bound_to 8363
  111.8260  247.3025  317.4065 LP  0  0  0  0  0  0  0  0  0  0  0  0  # atno 13532 bound_to 8476
  114.2783  239.6283  321.5414 LP  0  0  0  0  0  0  0  0  0  0  0  0  # atno 13533 bound_to 9073
  113.9473  239.3381  323.1139 LP  0  0  0  0  0  0  0  0  0  0  0  0  # atno 13534 bound_to 9073
  114.5899  248.7296  315.9870 LP  0  0  0  0  0  0  0  0  0  0  0  0  # atno 13535 bound_to 8937
  119.1525  245.8573  314.2513 LP  0  0  0  0  0  0  0  0  0  0  0  0  # atno 13536 bound_to 8977
  118.8453  244.3131  313.8183 LP  0  0  0  0  0  0  0  0  0  0  0  0  # atno 13537 bound_to 8977
  124.2131  247.0040  318.4727 LP  0  0  0  0  0  0  0  0  0  0  0  0  # atno 13538 bound_to 4885
  125.7332  246.9413  317.8795 LP  0  0  0  0  0  0  0  0  0  0  0  0  # atno 13539 bound_to 4885
  107.9312  243.8027  318.9774 LP  0  0  0  0  0  0  0  0  0  0  0  0  # atno 13540 bound_to 5565
  110.1624  244.1199  315.7038 LP  0  0  0  0  0  0  0  0  0  0  0  0  # atno 13541 bound_to 5598
  111.7132  238.9413  317.9144 LP  0  0  0  0  0  0  0  0  0  0  0  0  # atno 13542 bound_to 5639
  110.3332  239.8846  318.3681 LP  0  0  0  0  0  0  0  0  0  0  0  0  # atno 13543 bound_to 5639
  110.4746  238.4669  320.8974 LP  0  0  0  0  0  0  0  0  0  0  0  0  # atno 13544 bound_to 8319
  111.6579  239.5514  320.5965 LP  0  0  0  0  0  0  0  0  0  0  0  0  # atno 13545 bound_to 8319
  113.4041  237.2775  328.2284 LP  0  0  0  0  0  0  0  0  0  0  0  0  # atno 13548 bound_to 9180
  113.5476  238.8821  328.8645 LP  0  0  0  0  0  0  0  0  0  0  0  0  # atno 13549 bound_to 9180
  111.2104  241.1081  315.8726 LP  0  0  0  0  0  0  0  0  0  0  0  0  # atno 13552 bound_to 5636

> <Gold.Score>
     Fitness  S(hb_ext) S(vdw_ext)  S(hb_int)    S(int)      intcor
     39.56       2.23      27.74       0.00      -0.81      -0.76

> <Gold.Goldscore.Fitness>
39.5638

> <Gold.Goldscore.Internal.Vdw>
-1.1979

> <Gold.Goldscore.Internal.Torsion>
-0.3689

> <Gold.Goldscore.External.Vdw>
27.7414

> <Gold.Goldscore.Internal.HBond>
0.0000

> <Gold.Goldscore.External.HBond>
2.2276

> <Gold.Goldscore.Internal.Correction>
-0.7585

> <Gold.Goldscore.Hbonds>
donor molecule, donor type, donor heavy atom, donor atom, acceptor molecule, acceptor atom, score
      P1  H  8319  8328       L1    17  0.02
      L1  H     8    22       P1  5573  0.36

> <Gold.Goldscore.Internal.Vdw.Weighted>
-1.1979

> <Gold.Goldscore.Internal.Torsion.Weighted>
-0.3689

> <Gold.Goldscore.External.Vdw.Weighted>
38.1445

> <Gold.Goldscore.Internal.HBond.Weighted>
0.0000

> <Gold.Goldscore.External.HBond.Weighted>
2.2276

> <Gold.Goldscore.Internal.Correction.Weighted>
-0.7585

> <Gold.Rescore>
     Score     S(PLP)   S(hbond)     S(cho)   S(metal)  DE(clash)   DE(tors)     intcor
     19.90     -19.19       0.64       0.00       0.00       0.00       0.60       ----

> <Gold.PLP.Fitness>
19.8979

> <Gold.PLP.PLP>
-19.1866

> <Gold.PLP.part.hbond>
-2.7513

> <Gold.PLP.part.metal>
0.0000

> <Gold.PLP.part.buried>
18.7408

> <Gold.PLP.part.nonpolar>
-42.3762

> <Gold.PLP.part.repulsive>
6.3120

> <Gold.PLP.ligand.clash>
0.0000

> <Gold.PLP.ligand.torsion>
0.5991

> <Gold.PLP.Chemscore.Hbond>
0.6365

> <Gold.PLP.Chemscore.CHOScore>
0.0000

> <Gold.PLP.Chemscore.Metal>
0.0000

> <Gold.Chemscore.Hbonds>
donor molecule, donor type, donor heavy atom, donor atom, acceptor molecule, acceptor atom, score
      L1  H     8    22       P1  5573  0.60

> <Gold.PLP.Chemscore.Internal.Correction>
   9.000000E+99

