#       Name:                CT1002167954
#       Creating user name   hitesit
#       Creation time:       Sun Apr 16 20:17:43 2023


#       File generated by GOLD software.
#

@<TRIPOS>MOLECULE
CT1002167954|ligand_prepared|mol2|1|dock4
    29    30     1
SMALL
NO_CHARGES


@<TRIPOS>ATOM
      1 C1         110.0939 245.2425 324.1520 C.3            1 RES1               0.0000
      2 C2         111.3278 244.3516 323.9020 C.ar           1 RES1               0.0000
      3 C3         110.5746 246.4093 325.0098 C.2            1 RES1               0.0000
      4 C4         109.5781 245.6524 322.7770 C.2            1 RES1               0.0000
      5 C5         108.9455 244.5244 324.8984 C.3            1 RES1               0.0000
      6 C6         112.0136 244.4139 322.6927 C.ar           1 RES1               0.0000
      7 C7         111.7929 243.4659 324.8705 C.ar           1 RES1               0.0000
      8 N8         110.7037 247.6257 324.4069 N.am           1 RES1               0.0000
      9 O9         110.8736 246.2557 326.1876 O.2            1 RES1               0.0000
     10 N10        109.6435 246.9779 322.4355 N.am           1 RES1               0.0000
     11 O11        109.1309 244.8371 321.9797 O.2            1 RES1               0.0000
     12 C12        107.6570 245.3293 324.9608 C.3            1 RES1               0.0000
     13 C13        113.1259 243.6218 322.4609 C.ar           1 RES1               0.0000
     14 C14        112.9053 242.6745 324.6366 C.ar           1 RES1               0.0000
     15 C15        110.2112 247.9786 323.1762 C.2            1 RES1               0.0000
     16 C16        113.5727 242.7520 323.4327 C.ar           1 RES1               0.0000
     17 O17        110.2809 249.1377 322.7777 O.2            1 RES1               0.0000
     18 H18        108.7417 243.5698 324.3979 H              1 RES1               0.0000
     19 H19        109.2735 244.3032 325.9216 H              1 RES1               0.0000
     20 H20        111.6752 245.0907 321.9152 H              1 RES1               0.0000
     21 H21        111.2830 243.3874 325.8246 H              1 RES1               0.0000
     22 H22        111.2136 248.3389 324.9183 H              1 RES1               0.0000
     23 H23        109.2307 247.2431 321.5470 H              1 RES1               0.0000
     24 H24        106.8845 244.7800 325.4949 H              1 RES1               0.0000
     25 H25        107.8173 246.2748 325.4748 H              1 RES1               0.0000
     26 H26        107.2886 245.5458 323.9602 H              1 RES1               0.0000
     27 H27        113.6468 243.6856 321.5113 H              1 RES1               0.0000
     28 H28        113.2531 241.9909 325.4040 H              1 RES1               0.0000
     29 H29        114.4443 242.1319 323.2511 H              1 RES1               0.0000
@<TRIPOS>BOND
    1    1    2 1     
    2    1    3 1     
    3    1    4 1     
    4    1    5 1     
    5    2    6 ar    
    6    2    7 ar    
    7    3    8 1     
    8    3    9 2     
    9    4   10 1     
   10    4   11 2     
   11    5   12 1     
   12    5   18 1     
   13    5   19 1     
   14    6   13 ar    
   15    6   20 1     
   16    7   14 ar    
   17    7   21 1     
   18    8   15 1     
   19    8   22 1     
   20   10   15 1     
   21   10   23 1     
   22   12   24 1     
   23   12   25 1     
   24   12   26 1     
   25   13   16 ar    
   26   13   27 1     
   27   14   16 ar    
   28   14   28 1     
   29   15   17 2     
   30   16   29 1     
@<TRIPOS>SUBSTRUCTURE
      1 RES1           1
@<TRIPOS>SET
DONOR_HYDROGENS      STATIC     ATOMS    <user>   **** ""
2 22 23
ATOM$RED        STATIC     ATOMS    COLORGROUP SYSTEM
2 22 23
@<TRIPOS>COMMENT
> <Gold.Version>
2022.3.0

> <Gold.Id.Protein>
unknown|4uch_clean|pdb

> <Gold.Protein.RotatedTorsions>
[ 1279 1268 1269 1270 ] final  -11.35 input   42.93 | X-H torsion
[ 12873 12852 12853 12854 ] final -124.39 input  102.46 | X-H torsion
[ 12881 12863 12862 12860 ] final  -20.86 input   59.97 | X-H torsion
[ 12908 12891 12892 12893 ] final  -48.00 input   33.49 | X-H torsion
[ 12964 12952 12953 12954 ] final  173.23 input  127.22 | X-H torsion
[ 13444 13426 13425 13421 ] final  141.70 input   59.98 | X-H torsion
[ 1240 1232 1233 1234 ] final   50.39 input  119.89 | X-H torsion
[ 5550 5545 5544 5541 ] final  -10.62 input   60.01 | X-H torsion
[ 3552 3542 3543 3544 ] final  110.61 input   78.91 | X-H torsion
[ 3579 3563 3564 3565 ] final   70.56 input  104.01 | X-H torsion
[ 3601 3592 3593 3594 ] final  -46.50 input   81.17 | X-H torsion
[ 8428 8423 8424 8425 ] final  163.17 input   41.93 | X-H torsion
[ 8452 8445 8446 8447 ] final  -93.64 input   98.48 | X-H torsion
[ 8978 8972 8973 8974 ] final  120.20 input   32.89 | X-H torsion
[ 8996 8992 8993 8994 ] final -168.09 input   45.98 | X-H torsion
[ 9030 9016 9017 9018 ] final  -26.67 input   38.77 | X-H torsion
[ 9076 9062 9063 9064 ] final  -64.54 input   99.93 | X-H torsion
[ 9117 9100 9101 9102 ] final -173.42 input   97.82 | X-H torsion
[ 8482 8476 8477 8478 ] final   55.28 input   55.16 | X-H torsion
[ 9084 9073 9072 9070 ] final  -15.55 input   60.02 | X-H torsion
[ 8948 8937 8938 8939 ] final -139.99 input   49.52 | X-H torsion
[ 8982 8977 8976 8973 ] final  102.57 input   60.00 | X-H torsion
[ 4895 4885 4884 4881 ] final   58.66 input   59.99 | X-H torsion
[ 5574 5565 5566 5567 ] final -171.47 input   50.85 | X-H torsion
[ 5606 5598 5599 5600 ] final  113.28 input  117.92 | X-H torsion
[ 8328 8319 8318 8316 ] final  101.55 input   59.98 | X-H torsion
[ 5644 5636 5637 5638 ] final  -42.26 input   69.86 | X-H torsion
[ 13449 13428 13427 13425 ] final  163.38 input   60.01 | X-H torsion
[ 8513 8500 8501 8502 ] final  145.67 input   75.08 | X-H torsion
[ 4911 4901 4902 4903 ] final -147.66 input   29.84 | X-H torsion
[ 13460 1235 1234 1233 ] final  -90.15 input    0.00 | X-H torsion
[ 13464 8503 8502 8501 ] final  -35.02 input    0.00 | X-H torsion
[ 13466 12822 12821 12820 ] final   98.24 input   -0.00 | X-H torsion
[ 13469 12855 12854 12853 ] final  -47.13 input   -0.00 | X-H torsion
[ 13474 12894 12893 12892 ] final  174.45 input    0.00 | X-H torsion
[ 13493 5543 5542 5541 ] final  132.60 input    0.00 | X-H torsion
[ 13497 3502 3501 3500 ] final -121.17 input   -0.00 | X-H torsion
[ 13500 3545 3544 3543 ] final  -64.02 input    0.00 | X-H torsion
[ 13505 8400 8399 8398 ] final   13.47 input   -0.00 | X-H torsion
[ 13509 8448 8447 8446 ] final  125.64 input    0.00 | X-H torsion
[ 13511 8940 8939 8938 ] final  -29.20 input    0.00 | X-H torsion
[ 13514 8975 8974 8973 ] final  -92.78 input   -0.00 | X-H torsion
[ 13517 8995 8994 8993 ] final   90.51 input    0.00 | X-H torsion
[ 13520 9019 9018 9017 ] final  -46.46 input   -0.00 | X-H torsion
[ 13528 8426 8425 8424 ] final   90.90 input    0.00 | X-H torsion
[ 13530 8363 8362 8361 ] final   51.04 input    0.00 | X-H torsion
[ 13542 5639 5638 5637 ] final   93.51 input    0.00 | X-H torsion
[ 13548 9180 9179 9178 ] final  -71.87 input   -0.00 | X-H torsion

> <Gold.Protein.ActiveResidues>
 TRP311  MET341  HIS342  TRP414  ALA417  ARG419  CYS420  VAL421  GLY422  ARG423 
 SER462  ALA463  SER482  GLN483  LEU484  ILE485  ARG486  TRP566  TYR567  LEU569 
 PRO570  ALA571  VAL572  SER573  ASN574  MET575  PHE589  SER590  GLY591  TRP592 
 TYR593  MET594  GLU597  ILE598  ARG601  ASP602  ARG608  TRP683  PHE696  GLU710 
 TYR711  GLN712  PRO713  ASP714  HEM750  H4B760 

> <Gold.Protein.RotatedAtoms>
  106.1307  253.9636  334.9419 H   0  0  0  0  0  0  0  0  0  0  0  0  # atno 1240 bound_to 1232
  106.2148  255.0595  333.4399 H   0  0  0  0  0  0  0  0  0  0  0  0  # atno 1279 bound_to 1268
  119.1641  252.4093  327.8531 H   0  0  0  0  0  0  0  0  0  0  0  0  # atno 3552 bound_to 3542
  121.0661  248.2858  327.9818 H   0  0  0  0  0  0  0  0  0  0  0  0  # atno 3579 bound_to 3563
  123.9130  248.9914  327.4586 H   0  0  0  0  0  0  0  0  0  0  0  0  # atno 3601 bound_to 3592
  125.4913  246.1017  317.4337 H   0  0  0  0  0  0  0  0  0  0  0  0  # atno 4895 bound_to 4885
  123.0805  247.4338  314.2364 H   0  0  0  0  0  0  0  0  0  0  0  0  # atno 4911 bound_to 4901
  106.4332  243.7251  319.7384 H   0  0  0  0  0  0  0  0  0  0  0  0  # atno 5550 bound_to 5545
  108.2672  244.7861  319.0134 H   0  0  0  0  0  0  0  0  0  0  0  0  # atno 5574 bound_to 5565
  111.4368  243.5901  315.8888 H   0  0  0  0  0  0  0  0  0  0  0  0  # atno 5606 bound_to 5598
  110.2621  241.1452  315.3895 H   0  0  0  0  0  0  0  0  0  0  0  0  # atno 5644 bound_to 5636
  111.9554  238.6409  321.7634 H   0  0  0  0  0  0  0  0  0  0  0  0  # atno 8328 bound_to 8319
  115.6712  242.3745  317.8034 H   0  0  0  0  0  0  0  0  0  0  0  0  # atno 8428 bound_to 8423
  113.7048  245.2614  318.0088 H   0  0  0  0  0  0  0  0  0  0  0  0  # atno 8452 bound_to 8445
  110.3523  247.2514  318.1140 H   0  0  0  0  0  0  0  0  0  0  0  0  # atno 8482 bound_to 8476
  108.9013  248.5611  318.0400 H   0  0  0  0  0  0  0  0  0  0  0  0  # atno 8513 bound_to 8500
  114.9758  249.5518  314.4983 H   0  0  0  0  0  0  0  0  0  0  0  0  # atno 8948 bound_to 8937
  117.8666  247.2969  315.2623 H   0  0  0  0  0  0  0  0  0  0  0  0  # atno 8978 bound_to 8972
  119.8350  244.2113  314.6503 H   0  0  0  0  0  0  0  0  0  0  0  0  # atno 8982 bound_to 8977
  119.8481  245.8702  317.8707 H   0  0  0  0  0  0  0  0  0  0  0  0  # atno 8996 bound_to 8992
  121.4247  243.4771  320.5631 H   0  0  0  0  0  0  0  0  0  0  0  0  # atno 9030 bound_to 9016
  121.7628  240.9168  322.0197 H   0  0  0  0  0  0  0  0  0  0  0  0  # atno 9076 bound_to 9062
  113.9614  239.4003  323.0836 H   0  0  0  0  0  0  0  0  0  0  0  0  # atno 9084 bound_to 9073
  121.7149  241.0520  325.1658 H   0  0  0  0  0  0  0  0  0  0  0  0  # atno 9117 bound_to 9100
  109.8936  256.2519  323.4608 H   0  0  0  0  0  0  0  0  0  0  0  0  # atno 12873 bound_to 12852
  110.4726  250.9799  327.7618 H   0  0  0  0  0  0  0  0  0  0  0  0  # atno 12881 bound_to 12863
  105.7147  255.2808  323.0681 H   0  0  0  0  0  0  0  0  0  0  0  0  # atno 12908 bound_to 12891
  101.2690  252.3658  321.6780 H   0  0  0  0  0  0  0  0  0  0  0  0  # atno 12964 bound_to 12952
  108.2280  246.6235  337.2536 H   0  0  0  0  0  0  0  0  0  0  0  0  # atno 13444 bound_to 13426
  109.1630  250.7842  337.3000 H   0  0  0  0  0  0  0  0  0  0  0  0  # atno 13449 bound_to 13428
  109.0996  254.7103  331.8553 LP  0  0  0  0  0  0  0  0  0  0  0  0  # atno 13460 bound_to 1235
  108.2315  253.7039  330.7447 LP  0  0  0  0  0  0  0  0  0  0  0  0  # atno 13461 bound_to 1235
  106.4835  254.0290  332.0487 LP  0  0  0  0  0  0  0  0  0  0  0  0  # atno 13462 bound_to 1268
  106.2380  252.4712  318.7513 LP  0  0  0  0  0  0  0  0  0  0  0  0  # atno 13464 bound_to 8503
  107.3050  253.1052  319.9594 LP  0  0  0  0  0  0  0  0  0  0  0  0  # atno 13465 bound_to 8503
  110.2715  255.2421  321.6672 LP  0  0  0  0  0  0  0  0  0  0  0  0  # atno 13466 bound_to 12822
  109.3796  256.5185  320.9086 LP  0  0  0  0  0  0  0  0  0  0  0  0  # atno 13467 bound_to 12822
  108.8397  257.4197  324.2162 LP  0  0  0  0  0  0  0  0  0  0  0  0  # atno 13468 bound_to 12852
  106.7670  258.1400  323.5883 LP  0  0  0  0  0  0  0  0  0  0  0  0  # atno 13469 bound_to 12855
  106.5683  258.1151  321.8679 LP  0  0  0  0  0  0  0  0  0  0  0  0  # atno 13470 bound_to 12855
  110.4371  252.1000  328.9416 LP  0  0  0  0  0  0  0  0  0  0  0  0  # atno 13471 bound_to 12863
  111.5833  252.1689  327.7805 LP  0  0  0  0  0  0  0  0  0  0  0  0  # atno 13472 bound_to 12863
  106.7407  255.5875  321.6873 LP  0  0  0  0  0  0  0  0  0  0  0  0  # atno 13473 bound_to 12891
  102.8214  253.5823  322.1056 LP  0  0  0  0  0  0  0  0  0  0  0  0  # atno 13474 bound_to 12894
  104.5412  253.7844  322.1430 LP  0  0  0  0  0  0  0  0  0  0  0  0  # atno 13475 bound_to 12894
  100.4210  253.4782  320.6291 LP  0  0  0  0  0  0  0  0  0  0  0  0  # atno 13476 bound_to 12952
  109.5725  246.0094  336.5735 LP  0  0  0  0  0  0  0  0  0  0  0  0  # atno 13490 bound_to 13426
  108.1695  246.0337  335.7383 LP  0  0  0  0  0  0  0  0  0  0  0  0  # atno 13491 bound_to 13426
  107.5273  253.1479  335.6112 LP  0  0  0  0  0  0  0  0  0  0  0  0  # atno 13492 bound_to 1232
  109.8400  245.8719  319.4498 LP  0  0  0  0  0  0  0  0  0  0  0  0  # atno 13493 bound_to 5543
  109.0736  247.1527  318.5711 LP  0  0  0  0  0  0  0  0  0  0  0  0  # atno 13494 bound_to 5543
  105.3756  243.9690  320.9512 LP  0  0  0  0  0  0  0  0  0  0  0  0  # atno 13495 bound_to 5545
  106.9804  244.0957  321.2258 LP  0  0  0  0  0  0  0  0  0  0  0  0  # atno 13496 bound_to 5545
  118.9079  249.4179  329.8416 LP  0  0  0  0  0  0  0  0  0  0  0  0  # atno 13497 bound_to 3502
  117.2581  249.6461  329.3664 LP  0  0  0  0  0  0  0  0  0  0  0  0  # atno 13498 bound_to 3502
  119.0476  251.3163  329.2091 LP  0  0  0  0  0  0  0  0  0  0  0  0  # atno 13499 bound_to 3542
  122.5961  251.4268  327.1566 LP  0  0  0  0  0  0  0  0  0  0  0  0  # atno 13500 bound_to 3545
  122.6312  251.4239  328.8883 LP  0  0  0  0  0  0  0  0  0  0  0  0  # atno 13501 bound_to 3545
  121.2814  249.9036  328.6182 LP  0  0  0  0  0  0  0  0  0  0  0  0  # atno 13502 bound_to 3563
  122.7366  247.8659  326.8246 LP  0  0  0  0  0  0  0  0  0  0  0  0  # atno 13503 bound_to 3592
  118.1530  243.1644  318.6039 LP  0  0  0  0  0  0  0  0  0  0  0  0  # atno 13505 bound_to 8400
  117.1127  244.4850  318.1873 LP  0  0  0  0  0  0  0  0  0  0  0  0  # atno 13506 bound_to 8400
  114.5615  243.0520  318.9669 LP  0  0  0  0  0  0  0  0  0  0  0  0  # atno 13507 bound_to 8423
  114.8152  246.5690  318.3443 LP  0  0  0  0  0  0  0  0  0  0  0  0  # atno 13508 bound_to 8445
  113.0325  248.5190  316.0660 LP  0  0  0  0  0  0  0  0  0  0  0  0  # atno 13509 bound_to 8448
  113.5902  249.2533  317.5323 LP  0  0  0  0  0  0  0  0  0  0  0  0  # atno 13510 bound_to 8448
  115.3219  247.6669  317.4155 LP  0  0  0  0  0  0  0  0  0  0  0  0  # atno 13511 bound_to 8940
  116.0279  246.1269  317.0549 LP  0  0  0  0  0  0  0  0  0  0  0  0  # atno 13512 bound_to 8940
  118.2300  247.9715  316.8322 LP  0  0  0  0  0  0  0  0  0  0  0  0  # atno 13513 bound_to 8972
  121.3231  246.1647  315.9596 LP  0  0  0  0  0  0  0  0  0  0  0  0  # atno 13514 bound_to 8975
  120.9196  247.4321  317.0690 LP  0  0  0  0  0  0  0  0  0  0  0  0  # atno 13515 bound_to 8975
  119.4732  244.1901  318.1745 LP  0  0  0  0  0  0  0  0  0  0  0  0  # atno 13516 bound_to 8992
  122.2338  242.2820  317.3130 LP  0  0  0  0  0  0  0  0  0  0  0  0  # atno 13517 bound_to 8995
  120.5809  242.0965  317.7960 LP  0  0  0  0  0  0  0  0  0  0  0  0  # atno 13518 bound_to 8995
  122.6784  243.2327  319.3723 LP  0  0  0  0  0  0  0  0  0  0  0  0  # atno 13519 bound_to 9016
  122.2792  242.8842  322.6634 LP  0  0  0  0  0  0  0  0  0  0  0  0  # atno 13520 bound_to 9019
  120.7190  242.3248  323.1660 LP  0  0  0  0  0  0  0  0  0  0  0  0  # atno 13521 bound_to 9019
  121.3339  239.3253  321.4401 LP  0  0  0  0  0  0  0  0  0  0  0  0  # atno 13522 bound_to 9062
  120.4158  239.8959  325.3348 LP  0  0  0  0  0  0  0  0  0  0  0  0  # atno 13523 bound_to 9100
  112.0556  244.0777  318.0004 LP  0  0  0  0  0  0  0  0  0  0  0  0  # atno 13528 bound_to 8426
  112.1476  244.9604  316.5130 LP  0  0  0  0  0  0  0  0  0  0  0  0  # atno 13529 bound_to 8426
  115.0609  238.8719  317.1095 LP  0  0  0  0  0  0  0  0  0  0  0  0  # atno 13530 bound_to 8363
  115.0444  240.6018  317.0239 LP  0  0  0  0  0  0  0  0  0  0  0  0  # atno 13531 bound_to 8363
  111.9286  247.8459  317.6549 LP  0  0  0  0  0  0  0  0  0  0  0  0  # atno 13532 bound_to 8476
  114.0131  238.0883  322.1224 LP  0  0  0  0  0  0  0  0  0  0  0  0  # atno 13533 bound_to 9073
  114.2812  239.5730  321.4975 LP  0  0  0  0  0  0  0  0  0  0  0  0  # atno 13534 bound_to 9073
  114.5883  248.8451  316.0505 LP  0  0  0  0  0  0  0  0  0  0  0  0  # atno 13535 bound_to 8937
  119.5581  245.8138  314.5911 LP  0  0  0  0  0  0  0  0  0  0  0  0  # atno 13536 bound_to 8977
  118.6462  244.7915  313.7024 LP  0  0  0  0  0  0  0  0  0  0  0  0  # atno 13537 bound_to 8977
  123.9966  246.2317  318.0632 LP  0  0  0  0  0  0  0  0  0  0  0  0  # atno 13538 bound_to 4885
  125.1200  247.3745  318.3767 LP  0  0  0  0  0  0  0  0  0  0  0  0  # atno 13539 bound_to 4885
  107.5009  243.9755  317.6682 LP  0  0  0  0  0  0  0  0  0  0  0  0  # atno 13540 bound_to 5565
  109.7346  243.2428  316.0734 LP  0  0  0  0  0  0  0  0  0  0  0  0  # atno 13541 bound_to 5598
  110.5909  240.1627  318.1103 LP  0  0  0  0  0  0  0  0  0  0  0  0  # atno 13542 bound_to 5639
  111.4555  238.6632  318.1722 LP  0  0  0  0  0  0  0  0  0  0  0  0  # atno 13543 bound_to 5639
  110.5174  238.3376  321.0641 LP  0  0  0  0  0  0  0  0  0  0  0  0  # atno 13544 bound_to 8319
  111.4732  239.5297  320.4880 LP  0  0  0  0  0  0  0  0  0  0  0  0  # atno 13545 bound_to 8319
  113.6153  238.0237  329.3993 LP  0  0  0  0  0  0  0  0  0  0  0  0  # atno 13548 bound_to 9180
  113.3363  238.1359  327.6936 LP  0  0  0  0  0  0  0  0  0  0  0  0  # atno 13549 bound_to 9180
  111.8347  240.8405  314.6861 LP  0  0  0  0  0  0  0  0  0  0  0  0  # atno 13552 bound_to 5636

> <Gold.Score>
     Fitness  S(hb_ext) S(vdw_ext)  S(hb_int)    S(int)      intcor
     31.80       4.12      21.00       0.00      -1.20      -0.77

> <Gold.Goldscore.Fitness>
31.7954

> <Gold.Goldscore.Internal.Vdw>
-1.4793

> <Gold.Goldscore.Internal.Torsion>
-0.4845

> <Gold.Goldscore.External.Vdw>
20.9965

> <Gold.Goldscore.Internal.HBond>
0.0000

> <Gold.Goldscore.External.HBond>
4.1237

> <Gold.Goldscore.Internal.Correction>
-0.7653

> <Gold.Goldscore.Hbonds>
donor molecule, donor type, donor heavy atom, donor atom, acceptor molecule, acceptor atom, score
      P1  H  5572  5581       L1    11  0.11
      L1  H     8    22       P1 13311  0.65

> <Gold.Goldscore.Internal.Vdw.Weighted>
-1.4793

> <Gold.Goldscore.Internal.Torsion.Weighted>
-0.4845

> <Gold.Goldscore.External.Vdw.Weighted>
28.8702

> <Gold.Goldscore.Internal.HBond.Weighted>
0.0000

> <Gold.Goldscore.External.HBond.Weighted>
4.1237

> <Gold.Goldscore.Internal.Correction.Weighted>
-0.7653

> <Gold.Rescore>
     Score     S(PLP)   S(hbond)     S(cho)   S(metal)  DE(clash)   DE(tors)     intcor
     22.85     -18.92       2.00       0.00       0.00       0.00       1.04       ----

> <Gold.PLP.Fitness>
22.8495

> <Gold.PLP.PLP>
-18.9213

> <Gold.PLP.part.hbond>
-1.8002

> <Gold.PLP.part.metal>
0.0000

> <Gold.PLP.part.buried>
-5.1262

> <Gold.PLP.part.nonpolar>
-16.0428

> <Gold.PLP.part.repulsive>
3.8177

> <Gold.PLP.ligand.clash>
0.0000

> <Gold.PLP.ligand.torsion>
1.0359

> <Gold.PLP.Chemscore.Hbond>
2.0000

> <Gold.PLP.Chemscore.CHOScore>
0.0000

> <Gold.PLP.Chemscore.Metal>
0.0000

> <Gold.Chemscore.Hbonds>
donor molecule, donor type, donor heavy atom, donor atom, acceptor molecule, acceptor atom, score
      L1  H     8    22       P1 13311  1.00
      P1  H  5572  5581       L1    11  0.88

> <Gold.PLP.Chemscore.Internal.Correction>
   9.000000E+99

