#       Name:                CT1002167954
#       Creating user name   hitesit
#       Creation time:       Sun Apr 16 20:17:45 2023


#       File generated by GOLD software.
#

@<TRIPOS>MOLECULE
CT1002167954|ligand_prepared|mol2|1|dock7
    29    30     1
SMALL
NO_CHARGES


@<TRIPOS>ATOM
      1 C1         111.8848 242.3122 325.6594 C.3            1 RES1               0.0000
      2 C2         111.7070 243.6438 324.9018 C.ar           1 RES1               0.0000
      3 C3         110.4795 241.7948 325.9521 C.2            1 RES1               0.0000
      4 C4         112.7031 241.4072 324.7450 C.2            1 RES1               0.0000
      5 C5         112.6456 242.4519 326.9985 C.3            1 RES1               0.0000
      6 C6         110.4616 244.0149 324.4039 C.ar           1 RES1               0.0000
      7 C7         112.7765 244.5112 324.6958 C.ar           1 RES1               0.0000
      8 N8         110.0303 240.7364 325.2185 N.am           1 RES1               0.0000
      9 O9         109.7616 242.3322 326.7863 O.2            1 RES1               0.0000
     10 N10        112.0995 240.2818 324.2481 N.am           1 RES1               0.0000
     11 O11        113.8597 241.6672 324.4370 O.2            1 RES1               0.0000
     12 C12        112.7990 241.1424 327.7561 C.3            1 RES1               0.0000
     13 C13        110.2908 245.2112 323.7271 C.ar           1 RES1               0.0000
     14 C14        112.6035 245.7069 324.0185 C.ar           1 RES1               0.0000
     15 C15        110.7905 239.9215 324.4187 C.2            1 RES1               0.0000
     16 C16        111.3614 246.0581 323.5343 C.ar           1 RES1               0.0000
     17 O17        110.3062 238.9225 323.8947 O.2            1 RES1               0.0000
     18 H18        113.6428 242.8622 326.7969 H              1 RES1               0.0000
     19 H19        112.1111 243.1676 327.6353 H              1 RES1               0.0000
     20 H20        109.6079 243.3601 324.5438 H              1 RES1               0.0000
     21 H21        113.7630 244.2551 325.0670 H              1 RES1               0.0000
     22 H22        109.0374 240.5321 325.2693 H              1 RES1               0.0000
     23 H23        112.6797 239.6544 323.7003 H              1 RES1               0.0000
     24 H24        113.3396 241.2968 328.6876 H              1 RES1               0.0000
     25 H25        111.8258 240.7189 327.9953 H              1 RES1               0.0000
     26 H26        113.3484 240.4152 327.1619 H              1 RES1               0.0000
     27 H27        109.3114 245.4823 323.3468 H              1 RES1               0.0000
     28 H28        113.4490 246.3701 323.8685 H              1 RES1               0.0000
     29 H29        111.2272 246.9954 323.0044 H              1 RES1               0.0000
@<TRIPOS>BOND
    1    1    2 1     
    2    1    3 1     
    3    1    4 1     
    4    1    5 1     
    5    2    6 ar    
    6    2    7 ar    
    7    3    8 1     
    8    3    9 2     
    9    4   10 1     
   10    4   11 2     
   11    5   12 1     
   12    5   18 1     
   13    5   19 1     
   14    6   13 ar    
   15    6   20 1     
   16    7   14 ar    
   17    7   21 1     
   18    8   15 1     
   19    8   22 1     
   20   10   15 1     
   21   10   23 1     
   22   12   24 1     
   23   12   25 1     
   24   12   26 1     
   25   13   16 ar    
   26   13   27 1     
   27   14   16 ar    
   28   14   28 1     
   29   15   17 2     
   30   16   29 1     
@<TRIPOS>SUBSTRUCTURE
      1 RES1           1
@<TRIPOS>SET
DONOR_HYDROGENS      STATIC     ATOMS    <user>   **** ""
2 22 23
ATOM$RED        STATIC     ATOMS    COLORGROUP SYSTEM
2 22 23
@<TRIPOS>COMMENT
> <Gold.Version>
2022.3.0

> <Gold.Id.Protein>
unknown|4uch_clean|pdb

> <Gold.Protein.RotatedTorsions>
[ 1279 1268 1269 1270 ] final   10.05 input   42.93 | X-H torsion
[ 12873 12852 12853 12854 ] final  105.36 input  102.46 | X-H torsion
[ 12881 12863 12862 12860 ] final  -72.90 input   59.97 | X-H torsion
[ 12908 12891 12892 12893 ] final  166.24 input   33.49 | X-H torsion
[ 12964 12952 12953 12954 ] final   30.65 input  127.22 | X-H torsion
[ 13444 13426 13425 13421 ] final   47.12 input   59.98 | X-H torsion
[ 1240 1232 1233 1234 ] final  105.22 input  119.89 | X-H torsion
[ 5550 5545 5544 5541 ] final  121.07 input   60.01 | X-H torsion
[ 3552 3542 3543 3544 ] final  109.27 input   78.91 | X-H torsion
[ 3579 3563 3564 3565 ] final -165.17 input  104.01 | X-H torsion
[ 3601 3592 3593 3594 ] final -133.84 input   81.17 | X-H torsion
[ 8428 8423 8424 8425 ] final  -44.33 input   41.93 | X-H torsion
[ 8452 8445 8446 8447 ] final   98.58 input   98.48 | X-H torsion
[ 8978 8972 8973 8974 ] final  178.46 input   32.89 | X-H torsion
[ 8996 8992 8993 8994 ] final -127.45 input   45.98 | X-H torsion
[ 9030 9016 9017 9018 ] final  126.95 input   38.77 | X-H torsion
[ 9076 9062 9063 9064 ] final -166.86 input   99.93 | X-H torsion
[ 9117 9100 9101 9102 ] final    7.66 input   97.82 | X-H torsion
[ 8482 8476 8477 8478 ] final   41.33 input   55.16 | X-H torsion
[ 9084 9073 9072 9070 ] final   68.58 input   60.02 | X-H torsion
[ 8948 8937 8938 8939 ] final -165.56 input   49.52 | X-H torsion
[ 8982 8977 8976 8973 ] final  -66.28 input   60.00 | X-H torsion
[ 4895 4885 4884 4881 ] final   28.21 input   59.99 | X-H torsion
[ 5574 5565 5566 5567 ] final   34.84 input   50.85 | X-H torsion
[ 5606 5598 5599 5600 ] final -155.60 input  117.92 | X-H torsion
[ 8328 8319 8318 8316 ] final  179.05 input   59.98 | X-H torsion
[ 5644 5636 5637 5638 ] final   89.22 input   69.86 | X-H torsion
[ 13449 13428 13427 13425 ] final  -71.28 input   60.01 | X-H torsion
[ 8513 8500 8501 8502 ] final  -40.55 input   75.08 | X-H torsion
[ 4911 4901 4902 4903 ] final -127.81 input   29.84 | X-H torsion
[ 13460 1235 1234 1233 ] final   13.84 input    0.00 | X-H torsion
[ 13464 8503 8502 8501 ] final  144.70 input    0.00 | X-H torsion
[ 13466 12822 12821 12820 ] final  173.47 input   -0.00 | X-H torsion
[ 13469 12855 12854 12853 ] final -158.67 input   -0.00 | X-H torsion
[ 13474 12894 12893 12892 ] final  150.66 input    0.00 | X-H torsion
[ 13493 5543 5542 5541 ] final  -88.23 input    0.00 | X-H torsion
[ 13497 3502 3501 3500 ] final  -52.96 input   -0.00 | X-H torsion
[ 13500 3545 3544 3543 ] final   65.64 input    0.00 | X-H torsion
[ 13505 8400 8399 8398 ] final  -27.02 input   -0.00 | X-H torsion
[ 13509 8448 8447 8446 ] final -166.52 input    0.00 | X-H torsion
[ 13511 8940 8939 8938 ] final   17.94 input    0.00 | X-H torsion
[ 13514 8975 8974 8973 ] final  -12.73 input   -0.00 | X-H torsion
[ 13517 8995 8994 8993 ] final  117.10 input    0.00 | X-H torsion
[ 13520 9019 9018 9017 ] final  -96.59 input   -0.00 | X-H torsion
[ 13528 8426 8425 8424 ] final  159.63 input    0.00 | X-H torsion
[ 13530 8363 8362 8361 ] final   63.06 input    0.00 | X-H torsion
[ 13542 5639 5638 5637 ] final   47.89 input    0.00 | X-H torsion
[ 13548 9180 9179 9178 ] final -165.90 input   -0.00 | X-H torsion

> <Gold.Protein.ActiveResidues>
 TRP311  MET341  HIS342  TRP414  ALA417  ARG419  CYS420  VAL421  GLY422  ARG423 
 SER462  ALA463  SER482  GLN483  LEU484  ILE485  ARG486  TRP566  TYR567  LEU569 
 PRO570  ALA571  VAL572  SER573  ASN574  MET575  PHE589  SER590  GLY591  TRP592 
 TYR593  MET594  GLU597  ILE598  ARG601  ASP602  ARG608  TRP683  PHE696  GLU710 
 TYR711  GLN712  PRO713  ASP714  HEM750  H4B760 

> <Gold.Protein.RotatedAtoms>
  106.0368  253.1834  335.1730 H   0  0  0  0  0  0  0  0  0  0  0  0  # atno 1240 bound_to 1232
  105.9026  254.9809  333.3603 H   0  0  0  0  0  0  0  0  0  0  0  0  # atno 1279 bound_to 1268
  119.1823  252.4158  327.8602 H   0  0  0  0  0  0  0  0  0  0  0  0  # atno 3552 bound_to 3542
  120.9031  249.3719  329.1140 H   0  0  0  0  0  0  0  0  0  0  0  0  # atno 3579 bound_to 3563
  123.6586  247.8207  327.6879 H   0  0  0  0  0  0  0  0  0  0  0  0  # atno 3601 bound_to 3592
  125.0792  245.8342  317.4146 H   0  0  0  0  0  0  0  0  0  0  0  0  # atno 4895 bound_to 4885
  123.0528  247.6765  314.4178 H   0  0  0  0  0  0  0  0  0  0  0  0  # atno 4911 bound_to 4901
  106.8377  244.1216  321.3509 H   0  0  0  0  0  0  0  0  0  0  0  0  # atno 5550 bound_to 5545
  107.5075  243.6805  317.9357 H   0  0  0  0  0  0  0  0  0  0  0  0  # atno 5574 bound_to 5565
  110.3617  244.2080  315.6591 H   0  0  0  0  0  0  0  0  0  0  0  0  # atno 5606 bound_to 5598
  111.8666  240.9295  315.3992 H   0  0  0  0  0  0  0  0  0  0  0  0  # atno 5644 bound_to 5636
  111.9908  239.4602  320.9254 H   0  0  0  0  0  0  0  0  0  0  0  0  # atno 8328 bound_to 8319
  114.9276  243.1883  319.1065 H   0  0  0  0  0  0  0  0  0  0  0  0  # atno 8428 bound_to 8423
  114.8380  246.5062  318.5194 H   0  0  0  0  0  0  0  0  0  0  0  0  # atno 8452 bound_to 8445
  110.3424  247.4365  318.2208 H   0  0  0  0  0  0  0  0  0  0  0  0  # atno 8482 bound_to 8476
  109.6800  250.0087  317.4169 H   0  0  0  0  0  0  0  0  0  0  0  0  # atno 8513 bound_to 8500
  114.9588  249.8649  314.7345 H   0  0  0  0  0  0  0  0  0  0  0  0  # atno 8948 bound_to 8937
  117.2372  247.3687  315.8425 H   0  0  0  0  0  0  0  0  0  0  0  0  # atno 8978 bound_to 8972
  118.9689  245.7625  314.0874 H   0  0  0  0  0  0  0  0  0  0  0  0  # atno 8982 bound_to 8977
  119.9922  245.5275  317.3814 H   0  0  0  0  0  0  0  0  0  0  0  0  # atno 8996 bound_to 8992
  122.8964  243.3125  319.6966 H   0  0  0  0  0  0  0  0  0  0  0  0  # atno 9030 bound_to 9016
  120.7518  240.2508  321.3655 H   0  0  0  0  0  0  0  0  0  0  0  0  # atno 9076 bound_to 9062
  114.2264  239.9067  321.9671 H   0  0  0  0  0  0  0  0  0  0  0  0  # atno 9084 bound_to 9073
  120.3928  239.8949  325.3451 H   0  0  0  0  0  0  0  0  0  0  0  0  # atno 9117 bound_to 9100
  109.1263  256.9308  324.6828 H   0  0  0  0  0  0  0  0  0  0  0  0  # atno 12873 bound_to 12852
  110.0917  251.2447  328.4397 H   0  0  0  0  0  0  0  0  0  0  0  0  # atno 12881 bound_to 12863
  106.7748  256.0128  321.9754 H   0  0  0  0  0  0  0  0  0  0  0  0  # atno 12908 bound_to 12891
  100.0423  253.2816  320.9937 H   0  0  0  0  0  0  0  0  0  0  0  0  # atno 12964 bound_to 12952
  109.4916  246.1785  336.9419 H   0  0  0  0  0  0  0  0  0  0  0  0  # atno 13444 bound_to 13426
  110.4490  250.0660  336.5286 H   0  0  0  0  0  0  0  0  0  0  0  0  # atno 13449 bound_to 13428
  108.9158  253.4039  331.5057 LP  0  0  0  0  0  0  0  0  0  0  0  0  # atno 13460 bound_to 1235
  108.4154  255.0103  331.0942 LP  0  0  0  0  0  0  0  0  0  0  0  0  # atno 13461 bound_to 1235
  106.7836  254.1046  332.1253 LP  0  0  0  0  0  0  0  0  0  0  0  0  # atno 13462 bound_to 1268
  107.3037  253.1022  319.9621 LP  0  0  0  0  0  0  0  0  0  0  0  0  # atno 13464 bound_to 8503
  106.2393  252.4742  318.7486 LP  0  0  0  0  0  0  0  0  0  0  0  0  # atno 13465 bound_to 8503
  109.2214  255.3494  321.6090 LP  0  0  0  0  0  0  0  0  0  0  0  0  # atno 13466 bound_to 12822
  110.4298  256.4112  320.9669 LP  0  0  0  0  0  0  0  0  0  0  0  0  # atno 13467 bound_to 12822
  109.5958  256.7506  323.0118 LP  0  0  0  0  0  0  0  0  0  0  0  0  # atno 13468 bound_to 12852
  105.8316  258.0913  322.5051 LP  0  0  0  0  0  0  0  0  0  0  0  0  # atno 13469 bound_to 12855
  107.5037  258.1638  322.9511 LP  0  0  0  0  0  0  0  0  0  0  0  0  # atno 13470 bound_to 12855
  111.0948  252.5086  328.6502 LP  0  0  0  0  0  0  0  0  0  0  0  0  # atno 13471 bound_to 12863
  111.3092  251.4936  327.3891 LP  0  0  0  0  0  0  0  0  0  0  0  0  # atno 13472 bound_to 12863
  105.7049  254.8723  322.7550 LP  0  0  0  0  0  0  0  0  0  0  0  0  # atno 13473 bound_to 12891
  102.8736  253.7076  322.4359 LP  0  0  0  0  0  0  0  0  0  0  0  0  # atno 13474 bound_to 12894
  104.4890  253.6591  321.8128 LP  0  0  0  0  0  0  0  0  0  0  0  0  # atno 13475 bound_to 12894
  101.6171  252.5851  321.2963 LP  0  0  0  0  0  0  0  0  0  0  0  0  # atno 13476 bound_to 12952
  108.5504  245.8996  335.6443 LP  0  0  0  0  0  0  0  0  0  0  0  0  # atno 13490 bound_to 13426
  107.9184  246.5919  336.9815 LP  0  0  0  0  0  0  0  0  0  0  0  0  # atno 13491 bound_to 13426
  107.6181  253.9027  335.3876 LP  0  0  0  0  0  0  0  0  0  0  0  0  # atno 13492 bound_to 1232
  109.4350  246.8340  318.2067 LP  0  0  0  0  0  0  0  0  0  0  0  0  # atno 13493 bound_to 5543
  109.4785  246.1906  319.8142 LP  0  0  0  0  0  0  0  0  0  0  0  0  # atno 13494 bound_to 5543
  106.6187  243.7411  319.7836 LP  0  0  0  0  0  0  0  0  0  0  0  0  # atno 13495 bound_to 5545
  105.3301  243.9244  320.7699 LP  0  0  0  0  0  0  0  0  0  0  0  0  # atno 13496 bound_to 5545
  118.2061  249.7226  330.4398 LP  0  0  0  0  0  0  0  0  0  0  0  0  # atno 13497 bound_to 3502
  117.9599  249.3414  328.7682 LP  0  0  0  0  0  0  0  0  0  0  0  0  # atno 13498 bound_to 3502
  119.0298  251.3099  329.2021 LP  0  0  0  0  0  0  0  0  0  0  0  0  # atno 13499 bound_to 3542
  122.1498  251.8921  328.5855 LP  0  0  0  0  0  0  0  0  0  0  0  0  # atno 13500 bound_to 3545
  123.0775  250.9586  327.4595 LP  0  0  0  0  0  0  0  0  0  0  0  0  # atno 13501 bound_to 3545
  121.4385  248.8572  327.5274 LP  0  0  0  0  0  0  0  0  0  0  0  0  # atno 13502 bound_to 3563
  122.9854  249.0108  326.6003 LP  0  0  0  0  0  0  0  0  0  0  0  0  # atno 13503 bound_to 3592
  117.9846  243.4595  319.0977 LP  0  0  0  0  0  0  0  0  0  0  0  0  # atno 13505 bound_to 8400
  117.2812  244.1899  317.6935 LP  0  0  0  0  0  0  0  0  0  0  0  0  # atno 13506 bound_to 8400
  115.2945  242.2498  317.6821 LP  0  0  0  0  0  0  0  0  0  0  0  0  # atno 13507 bound_to 8423
  113.7091  245.3540  317.8460 LP  0  0  0  0  0  0  0  0  0  0  0  0  # atno 13508 bound_to 8445
  112.6272  249.2999  316.4662 LP  0  0  0  0  0  0  0  0  0  0  0  0  # atno 13509 bound_to 8448
  113.9954  248.4725  317.1321 LP  0  0  0  0  0  0  0  0  0  0  0  0  # atno 13510 bound_to 8448
  115.0867  247.3850  316.8281 LP  0  0  0  0  0  0  0  0  0  0  0  0  # atno 13511 bound_to 8940
  116.2631  246.4087  317.6423 LP  0  0  0  0  0  0  0  0  0  0  0  0  # atno 13512 bound_to 8940
  118.8467  247.9012  316.2638 LP  0  0  0  0  0  0  0  0  0  0  0  0  # atno 13513 bound_to 8972
  120.5881  246.9960  315.8611 LP  0  0  0  0  0  0  0  0  0  0  0  0  # atno 13514 bound_to 8975
  121.6546  246.6008  317.1675 LP  0  0  0  0  0  0  0  0  0  0  0  0  # atno 13515 bound_to 8975
  119.3325  244.5245  318.6520 LP  0  0  0  0  0  0  0  0  0  0  0  0  # atno 13516 bound_to 8992
  122.2458  241.9727  317.5635 LP  0  0  0  0  0  0  0  0  0  0  0  0  # atno 13517 bound_to 8995
  120.5689  242.4058  317.5455 LP  0  0  0  0  0  0  0  0  0  0  0  0  # atno 13518 bound_to 8995
  121.2334  243.3943  320.2231 LP  0  0  0  0  0  0  0  0  0  0  0  0  # atno 13519 bound_to 9016
  122.2834  242.4228  323.2339 LP  0  0  0  0  0  0  0  0  0  0  0  0  # atno 13520 bound_to 9019
  120.7148  242.7862  322.5955 LP  0  0  0  0  0  0  0  0  0  0  0  0  # atno 13521 bound_to 9019
  122.3226  239.9766  322.0799 LP  0  0  0  0  0  0  0  0  0  0  0  0  # atno 13522 bound_to 9062
  121.7096  241.0282  325.1594 LP  0  0  0  0  0  0  0  0  0  0  0  0  # atno 13523 bound_to 9100
  111.7581  245.0023  317.8879 LP  0  0  0  0  0  0  0  0  0  0  0  0  # atno 13528 bound_to 8426
  112.4450  244.0358  316.6254 LP  0  0  0  0  0  0  0  0  0  0  0  0  # atno 13529 bound_to 8426
  115.0204  238.8992  317.2843 LP  0  0  0  0  0  0  0  0  0  0  0  0  # atno 13530 bound_to 8363
  115.0849  240.5745  316.8492 LP  0  0  0  0  0  0  0  0  0  0  0  0  # atno 13531 bound_to 8363
  111.9383  247.6640  317.5500 LP  0  0  0  0  0  0  0  0  0  0  0  0  # atno 13532 bound_to 8476
  113.8916  238.8285  323.1389 LP  0  0  0  0  0  0  0  0  0  0  0  0  # atno 13533 bound_to 9073
  114.1357  238.3227  321.6056 LP  0  0  0  0  0  0  0  0  0  0  0  0  # atno 13534 bound_to 9073
  114.6048  248.5407  315.8209 LP  0  0  0  0  0  0  0  0  0  0  0  0  # atno 13535 bound_to 8937
  119.0086  244.1424  313.9380 LP  0  0  0  0  0  0  0  0  0  0  0  0  # atno 13536 bound_to 8977
  120.0680  244.9007  314.9225 LP  0  0  0  0  0  0  0  0  0  0  0  0  # atno 13537 bound_to 8977
  124.0071  246.6519  318.3251 LP  0  0  0  0  0  0  0  0  0  0  0  0  # atno 13538 bound_to 4885
  125.5247  247.2238  318.1341 LP  0  0  0  0  0  0  0  0  0  0  0  0  # atno 13539 bound_to 4885
  108.2437  245.0566  318.7221 LP  0  0  0  0  0  0  0  0  0  0  0  0  # atno 13540 bound_to 5565
  110.7863  242.6384  316.2981 LP  0  0  0  0  0  0  0  0  0  0  0  0  # atno 13541 bound_to 5598
  111.1664  240.1796  317.7647 LP  0  0  0  0  0  0  0  0  0  0  0  0  # atno 13542 bound_to 5639
  110.8800  238.6464  318.5178 LP  0  0  0  0  0  0  0  0  0  0  0  0  # atno 13543 bound_to 5639
  111.4170  238.2275  321.8200 LP  0  0  0  0  0  0  0  0  0  0  0  0  # atno 13544 bound_to 8319
  110.5380  238.8151  320.5756 LP  0  0  0  0  0  0  0  0  0  0  0  0  # atno 13545 bound_to 8319
  113.4368  237.2219  328.4346 LP  0  0  0  0  0  0  0  0  0  0  0  0  # atno 13548 bound_to 9180
  113.5148  238.9377  328.6583 LP  0  0  0  0  0  0  0  0  0  0  0  0  # atno 13549 bound_to 9180
  110.2779  241.0498  314.6767 LP  0  0  0  0  0  0  0  0  0  0  0  0  # atno 13552 bound_to 5636

> <Gold.Score>
     Fitness  S(hb_ext) S(vdw_ext)  S(hb_int)    S(int)      intcor
     35.69       5.05      23.76       0.00      -2.03      -0.76

> <Gold.Goldscore.Fitness>
35.6853

> <Gold.Goldscore.Internal.Vdw>
-2.4204

> <Gold.Goldscore.Internal.Torsion>
-0.3686

> <Gold.Goldscore.External.Vdw>
23.7577

> <Gold.Goldscore.Internal.HBond>
0.0000

> <Gold.Goldscore.External.HBond>
5.0489

> <Gold.Goldscore.Internal.Correction>
-0.7585

> <Gold.Goldscore.Hbonds>
donor molecule, donor type, donor heavy atom, donor atom, acceptor molecule, acceptor atom, score
      P1  H  5572  5580       L1    17  0.02
      P1  H  9513  9525       L1    17  0.74
      L1  H    10    23       P1  9073  0.29

> <Gold.Goldscore.Internal.Vdw.Weighted>
-2.4204

> <Gold.Goldscore.Internal.Torsion.Weighted>
-0.3686

> <Gold.Goldscore.External.Vdw.Weighted>
32.6669

> <Gold.Goldscore.Internal.HBond.Weighted>
0.0000

> <Gold.Goldscore.External.HBond.Weighted>
5.0489

> <Gold.Goldscore.Internal.Correction.Weighted>
-0.7585

> <Gold.Rescore>
     Score     S(PLP)   S(hbond)     S(cho)   S(metal)  DE(clash)   DE(tors)     intcor
     24.56     -24.17       0.86       0.00       0.00       2.03       0.07       ----

> <Gold.PLP.Fitness>
24.5634

> <Gold.PLP.PLP>
-24.1688

> <Gold.PLP.part.hbond>
-4.6794

> <Gold.PLP.part.metal>
0.0000

> <Gold.PLP.part.buried>
1.1671

> <Gold.PLP.part.nonpolar>
-23.2443

> <Gold.PLP.part.repulsive>
3.2236

> <Gold.PLP.ligand.clash>
2.0329

> <Gold.PLP.ligand.torsion>
0.0709

> <Gold.PLP.Chemscore.Hbond>
0.8564

> <Gold.PLP.Chemscore.CHOScore>
0.0000

> <Gold.PLP.Chemscore.Metal>
0.0000

> <Gold.Chemscore.Hbonds>
donor molecule, donor type, donor heavy atom, donor atom, acceptor molecule, acceptor atom, score
      P1  H  9513  9525       L1    17  0.91

> <Gold.PLP.Chemscore.Internal.Correction>
   9.000000E+99

