#       Name:                CT1002167954
#       Creating user name   hitesit
#       Creation time:       Sun Apr 16 20:17:39 2023


#       File generated by GOLD software.
#

@<TRIPOS>MOLECULE
CT1002167954|ligand_prepared|mol2|1|dock1
    29    30     1
SMALL
NO_CHARGES


@<TRIPOS>ATOM
      1 C1         116.6214 245.5382 322.9586 C.3            1 RES1               0.0000
      2 C2         115.1918 245.0269 323.2298 C.ar           1 RES1               0.0000
      3 C3         117.5035 244.9451 324.0533 C.2            1 RES1               0.0000
      4 C4         116.9804 245.0747 321.5511 C.2            1 RES1               0.0000
      5 C5         116.7529 247.0785 323.0025 C.3            1 RES1               0.0000
      6 C6         114.2281 245.8717 323.7723 C.ar           1 RES1               0.0000
      7 C7         114.8218 243.7161 322.9409 C.ar           1 RES1               0.0000
      8 N8         118.3428 243.9277 323.7065 N.am           1 RES1               0.0000
      9 O9         117.4351 245.3374 325.2116 O.2            1 RES1               0.0000
     10 N10        117.9916 244.1600 321.4147 N.am           1 RES1               0.0000
     11 O11        116.3857 245.4809 320.5604 O.2            1 RES1               0.0000
     12 C12        118.0762 247.5965 322.4615 C.3            1 RES1               0.0000
     13 C13        112.9402 245.4233 324.0144 C.ar           1 RES1               0.0000
     14 C14        113.5333 243.2696 323.1840 C.ar           1 RES1               0.0000
     15 C15        118.6684 243.5424 322.4309 C.2            1 RES1               0.0000
     16 C16        112.5918 244.1223 323.7200 C.ar           1 RES1               0.0000
     17 O17        119.5281 242.6893 322.2298 O.2            1 RES1               0.0000
     18 H18        115.9357 247.5194 322.4184 H              1 RES1               0.0000
     19 H19        116.6410 247.4130 324.0412 H              1 RES1               0.0000
     20 H20        114.4845 246.8981 324.0127 H              1 RES1               0.0000
     21 H21        115.5462 243.0273 322.5196 H              1 RES1               0.0000
     22 H22        118.7677 243.4050 324.4658 H              1 RES1               0.0000
     23 H23        118.2651 243.9171 320.4678 H              1 RES1               0.0000
     24 H24        118.1163 248.6824 322.5153 H              1 RES1               0.0000
     25 H25        118.9102 247.1978 323.0353 H              1 RES1               0.0000
     26 H26        118.2091 247.3036 321.4220 H              1 RES1               0.0000
     27 H27        112.2033 246.0978 324.4377 H              1 RES1               0.0000
     28 H28        113.2637 242.2447 322.9513 H              1 RES1               0.0000
     29 H29        111.5828 243.7713 323.9094 H              1 RES1               0.0000
@<TRIPOS>BOND
    1    1    2 1     
    2    1    3 1     
    3    1    4 1     
    4    1    5 1     
    5    2    6 ar    
    6    2    7 ar    
    7    3    8 1     
    8    3    9 2     
    9    4   10 1     
   10    4   11 2     
   11    5   12 1     
   12    5   18 1     
   13    5   19 1     
   14    6   13 ar    
   15    6   20 1     
   16    7   14 ar    
   17    7   21 1     
   18    8   15 1     
   19    8   22 1     
   20   10   15 1     
   21   10   23 1     
   22   12   24 1     
   23   12   25 1     
   24   12   26 1     
   25   13   16 ar    
   26   13   27 1     
   27   14   16 ar    
   28   14   28 1     
   29   15   17 2     
   30   16   29 1     
@<TRIPOS>SUBSTRUCTURE
      1 RES1           1
@<TRIPOS>SET
DONOR_HYDROGENS      STATIC     ATOMS    <user>   **** ""
2 22 23
ATOM$RED        STATIC     ATOMS    COLORGROUP SYSTEM
2 22 23
@<TRIPOS>COMMENT
> <Gold.Version>
2022.3.0

> <Gold.Id.Protein>
unknown|4uch_clean|pdb

> <Gold.Protein.RotatedTorsions>
[ 1279 1268 1269 1270 ] final  159.73 input   42.93 | X-H torsion
[ 12873 12852 12853 12854 ] final   69.28 input  102.46 | X-H torsion
[ 12881 12863 12862 12860 ] final -177.22 input   59.97 | X-H torsion
[ 12908 12891 12892 12893 ] final  136.51 input   33.49 | X-H torsion
[ 12964 12952 12953 12954 ] final  -84.72 input  127.22 | X-H torsion
[ 13444 13426 13425 13421 ] final -171.96 input   59.98 | X-H torsion
[ 1240 1232 1233 1234 ] final -161.27 input  119.89 | X-H torsion
[ 5550 5545 5544 5541 ] final   47.45 input   60.01 | X-H torsion
[ 3552 3542 3543 3544 ] final   62.47 input   78.91 | X-H torsion
[ 3579 3563 3564 3565 ] final  134.91 input  104.01 | X-H torsion
[ 3601 3592 3593 3594 ] final  -79.19 input   81.17 | X-H torsion
[ 8428 8423 8424 8425 ] final  -75.07 input   41.93 | X-H torsion
[ 8452 8445 8446 8447 ] final  -98.78 input   98.48 | X-H torsion
[ 8978 8972 8973 8974 ] final  156.79 input   32.89 | X-H torsion
[ 8996 8992 8993 8994 ] final   16.24 input   45.98 | X-H torsion
[ 9030 9016 9017 9018 ] final -140.34 input   38.77 | X-H torsion
[ 9076 9062 9063 9064 ] final   54.77 input   99.93 | X-H torsion
[ 9117 9100 9101 9102 ] final -117.59 input   97.82 | X-H torsion
[ 8482 8476 8477 8478 ] final  -28.26 input   55.16 | X-H torsion
[ 9084 9073 9072 9070 ] final -107.93 input   60.02 | X-H torsion
[ 8948 8937 8938 8939 ] final -132.38 input   49.52 | X-H torsion
[ 8982 8977 8976 8973 ] final   41.07 input   60.00 | X-H torsion
[ 4895 4885 4884 4881 ] final   61.84 input   59.99 | X-H torsion
[ 5574 5565 5566 5567 ] final  -58.36 input   50.85 | X-H torsion
[ 5606 5598 5599 5600 ] final   23.20 input  117.92 | X-H torsion
[ 8328 8319 8318 8316 ] final  -25.59 input   59.98 | X-H torsion
[ 5644 5636 5637 5638 ] final -100.39 input   69.86 | X-H torsion
[ 13449 13428 13427 13425 ] final  -39.50 input   60.01 | X-H torsion
[ 8513 8500 8501 8502 ] final  -54.57 input   75.08 | X-H torsion
[ 4911 4901 4902 4903 ] final  -40.90 input   29.84 | X-H torsion
[ 13460 1235 1234 1233 ] final    3.37 input    0.00 | X-H torsion
[ 13464 8503 8502 8501 ] final -116.63 input    0.00 | X-H torsion
[ 13466 12822 12821 12820 ] final  -27.47 input   -0.00 | X-H torsion
[ 13469 12855 12854 12853 ] final   18.05 input   -0.00 | X-H torsion
[ 13474 12894 12893 12892 ] final  112.18 input    0.00 | X-H torsion
[ 13493 5543 5542 5541 ] final  136.20 input    0.00 | X-H torsion
[ 13497 3502 3501 3500 ] final   12.56 input   -0.00 | X-H torsion
[ 13500 3545 3544 3543 ] final -137.92 input    0.00 | X-H torsion
[ 13505 8400 8399 8398 ] final  129.79 input   -0.00 | X-H torsion
[ 13509 8448 8447 8446 ] final  173.52 input    0.00 | X-H torsion
[ 13511 8940 8939 8938 ] final  102.50 input    0.00 | X-H torsion
[ 13514 8975 8974 8973 ] final   55.64 input   -0.00 | X-H torsion
[ 13517 8995 8994 8993 ] final   69.86 input    0.00 | X-H torsion
[ 13520 9019 9018 9017 ] final   41.96 input   -0.00 | X-H torsion
[ 13528 8426 8425 8424 ] final  -26.44 input    0.00 | X-H torsion
[ 13530 8363 8362 8361 ] final -164.23 input    0.00 | X-H torsion
[ 13542 5639 5638 5637 ] final  -43.20 input    0.00 | X-H torsion
[ 13548 9180 9179 9178 ] final  -48.19 input   -0.00 | X-H torsion

> <Gold.Protein.ActiveResidues>
 TRP311  MET341  HIS342  TRP414  ALA417  ARG419  CYS420  VAL421  GLY422  ARG423 
 SER462  ALA463  SER482  GLN483  LEU484  ILE485  ARG486  TRP566  TYR567  LEU569 
 PRO570  ALA571  VAL572  SER573  ASN574  MET575  PHE589  SER590  GLY591  TRP592 
 TYR593  MET594  GLU597  ILE598  ARG601  ASP602  ARG608  TRP683  PHE696  GLU710 
 TYR711  GLN712  PRO713  ASP714  HEM750  H4B760 

> <Gold.Protein.RotatedAtoms>
  107.1954  252.8030  335.6123 H   0  0  0  0  0  0  0  0  0  0  0  0  # atno 1240 bound_to 1232
  106.3488  254.0224  331.9986 H   0  0  0  0  0  0  0  0  0  0  0  0  # atno 1279 bound_to 1268
  119.7236  252.4387  328.3017 H   0  0  0  0  0  0  0  0  0  0  0  0  # atno 3552 bound_to 3542
  120.7502  248.5373  328.8418 H   0  0  0  0  0  0  0  0  0  0  0  0  # atno 3579 bound_to 3563
  123.9875  248.5619  327.6975 H   0  0  0  0  0  0  0  0  0  0  0  0  # atno 3601 bound_to 3592
  125.5259  246.1387  317.4444 H   0  0  0  0  0  0  0  0  0  0  0  0  # atno 4895 bound_to 4885
  122.0862  247.9713  315.0908 H   0  0  0  0  0  0  0  0  0  0  0  0  # atno 4911 bound_to 4901
  107.1343  243.8836  320.2949 H   0  0  0  0  0  0  0  0  0  0  0  0  # atno 5550 bound_to 5545
  107.7861  244.8945  317.6238 H   0  0  0  0  0  0  0  0  0  0  0  0  # atno 5574 bound_to 5565
  110.7729  242.6158  316.3036 H   0  0  0  0  0  0  0  0  0  0  0  0  # atno 5606 bound_to 5598
  110.3215  241.0061  314.5402 H   0  0  0  0  0  0  0  0  0  0  0  0  # atno 5644 bound_to 5636
  110.4953  238.4064  320.9719 H   0  0  0  0  0  0  0  0  0  0  0  0  # atno 8328 bound_to 8319
  115.3900  243.2148  319.0569 H   0  0  0  0  0  0  0  0  0  0  0  0  # atno 8428 bound_to 8423
  113.7184  245.2357  318.0827 H   0  0  0  0  0  0  0  0  0  0  0  0  # atno 8452 bound_to 8445
  110.9211  248.2430  318.3783 H   0  0  0  0  0  0  0  0  0  0  0  0  # atno 8482 bound_to 8476
  109.5796  249.9405  317.2396 H   0  0  0  0  0  0  0  0  0  0  0  0  # atno 8513 bound_to 8500
  114.9736  249.4419  314.4565 H   0  0  0  0  0  0  0  0  0  0  0  0  # atno 8948 bound_to 8937
  117.4007  247.3012  315.5618 H   0  0  0  0  0  0  0  0  0  0  0  0  # atno 8978 bound_to 8972
  120.0392  245.1058  314.9235 H   0  0  0  0  0  0  0  0  0  0  0  0  # atno 8982 bound_to 8977
  119.4533  244.1871  318.2412 H   0  0  0  0  0  0  0  0  0  0  0  0  # atno 8996 bound_to 8992
  121.7497  243.1692  319.1574 H   0  0  0  0  0  0  0  0  0  0  0  0  # atno 9030 bound_to 9016
  122.1051  239.4403  321.8540 H   0  0  0  0  0  0  0  0  0  0  0  0  # atno 9076 bound_to 9062
  113.9378  238.1552  322.5594 H   0  0  0  0  0  0  0  0  0  0  0  0  # atno 9084 bound_to 9073
  121.8508  240.2769  324.9117 H   0  0  0  0  0  0  0  0  0  0  0  0  # atno 9117 bound_to 9100
  108.8848  257.3256  324.3964 H   0  0  0  0  0  0  0  0  0  0  0  0  # atno 12873 bound_to 12852
  110.8925  252.4371  328.7906 H   0  0  0  0  0  0  0  0  0  0  0  0  # atno 12881 bound_to 12863
  106.7630  255.6552  321.6967 H   0  0  0  0  0  0  0  0  0  0  0  0  # atno 12908 bound_to 12891
  101.4810  253.1872  320.5942 H   0  0  0  0  0  0  0  0  0  0  0  0  # atno 12964 bound_to 12952
  107.7787  246.5100  336.6812 H   0  0  0  0  0  0  0  0  0  0  0  0  # atno 13444 bound_to 13426
  110.2574  249.9922  336.0590 H   0  0  0  0  0  0  0  0  0  0  0  0  # atno 13449 bound_to 13428
  109.0042  253.4752  331.6156 LP  0  0  0  0  0  0  0  0  0  0  0  0  # atno 13460 bound_to 1235
  108.3270  254.9390  330.9844 LP  0  0  0  0  0  0  0  0  0  0  0  0  # atno 13461 bound_to 1235
  106.3547  255.0261  333.4345 LP  0  0  0  0  0  0  0  0  0  0  0  0  # atno 13462 bound_to 1268
  106.9494  253.3511  318.7217 LP  0  0  0  0  0  0  0  0  0  0  0  0  # atno 13464 bound_to 8503
  106.5936  252.2254  319.9890 LP  0  0  0  0  0  0  0  0  0  0  0  0  # atno 13465 bound_to 8503
  110.1681  256.5620  320.8781 LP  0  0  0  0  0  0  0  0  0  0  0  0  # atno 13466 bound_to 12822
  109.4831  255.1986  321.6978 LP  0  0  0  0  0  0  0  0  0  0  0  0  # atno 13467 bound_to 12822
  109.8338  256.3616  323.2941 LP  0  0  0  0  0  0  0  0  0  0  0  0  # atno 13468 bound_to 12852
  107.4896  258.1637  322.9986 LP  0  0  0  0  0  0  0  0  0  0  0  0  # atno 13469 bound_to 12855
  105.8457  258.0915  322.4577 LP  0  0  0  0  0  0  0  0  0  0  0  0  # atno 13470 bound_to 12855
  111.4484  251.7009  327.4502 LP  0  0  0  0  0  0  0  0  0  0  0  0  # atno 13471 bound_to 12863
  110.1489  251.1003  328.2357 LP  0  0  0  0  0  0  0  0  0  0  0  0  # atno 13472 bound_to 12863
  105.7165  255.2217  323.0272 LP  0  0  0  0  0  0  0  0  0  0  0  0  # atno 13473 bound_to 12891
  103.2353  253.8924  322.8367 LP  0  0  0  0  0  0  0  0  0  0  0  0  # atno 13474 bound_to 12894
  104.1272  253.4743  321.4120 LP  0  0  0  0  0  0  0  0  0  0  0  0  # atno 13475 bound_to 12894
  100.2142  252.6772  321.6858 LP  0  0  0  0  0  0  0  0  0  0  0  0  # atno 13476 bound_to 12952
  109.3116  246.3223  337.1935 LP  0  0  0  0  0  0  0  0  0  0  0  0  # atno 13490 bound_to 13426
  108.8830  245.8352  335.6950 LP  0  0  0  0  0  0  0  0  0  0  0  0  # atno 13491 bound_to 13426
  106.4972  254.2707  334.9627 LP  0  0  0  0  0  0  0  0  0  0  0  0  # atno 13492 bound_to 1232
  109.8649  245.8575  319.4037 LP  0  0  0  0  0  0  0  0  0  0  0  0  # atno 13493 bound_to 5543
  109.0486  247.1671  318.6172 LP  0  0  0  0  0  0  0  0  0  0  0  0  # atno 13494 bound_to 5543
  105.5263  243.7670  320.0714 LP  0  0  0  0  0  0  0  0  0  0  0  0  # atno 13495 bound_to 5545
  106.1238  244.1381  321.5452 LP  0  0  0  0  0  0  0  0  0  0  0  0  # atno 13496 bound_to 5545
  117.3703  249.7922  330.0216 LP  0  0  0  0  0  0  0  0  0  0  0  0  # atno 13497 bound_to 3502
  118.7957  249.2718  329.1864 LP  0  0  0  0  0  0  0  0  0  0  0  0  # atno 13498 bound_to 3502
  118.4971  251.2873  328.7677 LP  0  0  0  0  0  0  0  0  0  0  0  0  # atno 13499 bound_to 3542
  123.2017  250.8421  327.7694 LP  0  0  0  0  0  0  0  0  0  0  0  0  # atno 13500 bound_to 3545
  122.0256  252.0086  328.2756 LP  0  0  0  0  0  0  0  0  0  0  0  0  # atno 13501 bound_to 3545
  121.5858  249.6613  327.7896 LP  0  0  0  0  0  0  0  0  0  0  0  0  # atno 13502 bound_to 3563
  122.6638  248.2859  326.5909 LP  0  0  0  0  0  0  0  0  0  0  0  0  # atno 13503 bound_to 3592
  117.4627  243.9285  317.5528 LP  0  0  0  0  0  0  0  0  0  0  0  0  # atno 13505 bound_to 8400
  117.8030  243.7209  319.2384 LP  0  0  0  0  0  0  0  0  0  0  0  0  # atno 13506 bound_to 8400
  114.8387  242.2236  317.7310 LP  0  0  0  0  0  0  0  0  0  0  0  0  # atno 13507 bound_to 8423
  114.8020  246.5941  318.2722 LP  0  0  0  0  0  0  0  0  0  0  0  0  # atno 13508 bound_to 8445
  112.6607  249.0822  316.2623 LP  0  0  0  0  0  0  0  0  0  0  0  0  # atno 13509 bound_to 8448
  113.9620  248.6902  317.3360 LP  0  0  0  0  0  0  0  0  0  0  0  0  # atno 13510 bound_to 8448
  115.5551  246.3484  316.5758 LP  0  0  0  0  0  0  0  0  0  0  0  0  # atno 13511 bound_to 8940
  115.7947  247.4453  317.8946 LP  0  0  0  0  0  0  0  0  0  0  0  0  # atno 13512 bound_to 8940
  118.6865  247.9673  316.5387 LP  0  0  0  0  0  0  0  0  0  0  0  0  # atno 13513 bound_to 8972
  120.6474  247.5015  316.6905 LP  0  0  0  0  0  0  0  0  0  0  0  0  # atno 13514 bound_to 8975
  121.5952  246.0953  316.3380 LP  0  0  0  0  0  0  0  0  0  0  0  0  # atno 13515 bound_to 8975
  119.8584  245.8326  317.8129 LP  0  0  0  0  0  0  0  0  0  0  0  0  # atno 13516 bound_to 8992
  122.1024  242.5121  317.1512 LP  0  0  0  0  0  0  0  0  0  0  0  0  # atno 13517 bound_to 8995
  120.7123  241.8664  317.9578 LP  0  0  0  0  0  0  0  0  0  0  0  0  # atno 13518 bound_to 8995
  122.3593  243.5350  320.7524 LP  0  0  0  0  0  0  0  0  0  0  0  0  # atno 13519 bound_to 9016
  121.1505  243.0824  322.2822 LP  0  0  0  0  0  0  0  0  0  0  0  0  # atno 13520 bound_to 9019
  121.8477  242.1266  323.5472 LP  0  0  0  0  0  0  0  0  0  0  0  0  # atno 13521 bound_to 9019
  120.9991  240.7692  321.6021 LP  0  0  0  0  0  0  0  0  0  0  0  0  # atno 13522 bound_to 9062
  120.2827  240.6544  325.5835 LP  0  0  0  0  0  0  0  0  0  0  0  0  # atno 13523 bound_to 9100
  112.4342  244.1084  316.5705 LP  0  0  0  0  0  0  0  0  0  0  0  0  # atno 13528 bound_to 8426
  111.7690  244.9296  317.9428 LP  0  0  0  0  0  0  0  0  0  0  0  0  # atno 13529 bound_to 8426
  114.9343  240.4660  317.5187 LP  0  0  0  0  0  0  0  0  0  0  0  0  # atno 13530 bound_to 8363
  115.1710  239.0076  316.6148 LP  0  0  0  0  0  0  0  0  0  0  0  0  # atno 13531 bound_to 8363
  111.3697  246.8715  317.3951 LP  0  0  0  0  0  0  0  0  0  0  0  0  # atno 13532 bound_to 8476
  114.2734  239.1584  321.3230 LP  0  0  0  0  0  0  0  0  0  0  0  0  # atno 13533 bound_to 9073
  114.0446  239.7570  322.8249 LP  0  0  0  0  0  0  0  0  0  0  0  0  # atno 13534 bound_to 9073
  114.5904  248.9519  316.0911 LP  0  0  0  0  0  0  0  0  0  0  0  0  # atno 13535 bound_to 8937
  118.8427  245.6523  313.9653 LP  0  0  0  0  0  0  0  0  0  0  0  0  # atno 13536 bound_to 8977
  119.1559  244.0521  314.0531 LP  0  0  0  0  0  0  0  0  0  0  0  0  # atno 13537 bound_to 8977
  124.0100  246.1914  318.0329 LP  0  0  0  0  0  0  0  0  0  0  0  0  # atno 13538 bound_to 4885
  125.0718  247.3776  318.3963 LP  0  0  0  0  0  0  0  0  0  0  0  0  # atno 13539 bound_to 4885
  107.9713  243.8695  319.0271 LP  0  0  0  0  0  0  0  0  0  0  0  0  # atno 13540 bound_to 5565
  110.3841  244.1959  315.6677 LP  0  0  0  0  0  0  0  0  0  0  0  0  # atno 13541 bound_to 5598
  111.7653  239.0996  317.8233 LP  0  0  0  0  0  0  0  0  0  0  0  0  # atno 13542 bound_to 5639
  110.2811  239.7264  318.4592 LP  0  0  0  0  0  0  0  0  0  0  0  0  # atno 13543 bound_to 5639
  111.5753  239.5461  320.5434 LP  0  0  0  0  0  0  0  0  0  0  0  0  # atno 13544 bound_to 8319
  111.8851  238.5573  321.8055 LP  0  0  0  0  0  0  0  0  0  0  0  0  # atno 13545 bound_to 8319
  113.6153  238.3754  329.3484 LP  0  0  0  0  0  0  0  0  0  0  0  0  # atno 13548 bound_to 9180
  113.3363  237.7842  327.7445 LP  0  0  0  0  0  0  0  0  0  0  0  0  # atno 13549 bound_to 9180
  111.7771  240.9754  315.5101 LP  0  0  0  0  0  0  0  0  0  0  0  0  # atno 13552 bound_to 5636

> <Gold.Score>
     Fitness  S(hb_ext) S(vdw_ext)  S(hb_int)    S(int)      intcor
     41.55       2.27      29.13       0.00      -0.77      -0.79

> <Gold.Goldscore.Fitness>
41.5497

> <Gold.Goldscore.Internal.Vdw>
-0.9724

> <Gold.Goldscore.Internal.Torsion>
-0.5812

> <Gold.Goldscore.External.Vdw>
29.1259

> <Gold.Goldscore.Internal.HBond>
0.0000

> <Gold.Goldscore.External.HBond>
2.2680

> <Gold.Goldscore.Internal.Correction>
-0.7872

> <Gold.Goldscore.Hbonds>
donor molecule, donor type, donor heavy atom, donor atom, acceptor molecule, acceptor atom, score
      L1  H     8    22       P1  9185  0.36
      L1  H    10    23       P1  8400  0.06

> <Gold.Goldscore.Internal.Vdw.Weighted>
-0.9724

> <Gold.Goldscore.Internal.Torsion.Weighted>
-0.5812

> <Gold.Goldscore.External.Vdw.Weighted>
40.0481

> <Gold.Goldscore.Internal.HBond.Weighted>
0.0000

> <Gold.Goldscore.External.HBond.Weighted>
2.2680

> <Gold.Goldscore.Internal.Correction.Weighted>
-0.7872

> <Gold.Rescore>
     Score     S(PLP)   S(hbond)     S(cho)   S(metal)  DE(clash)   DE(tors)     intcor
     23.06     -25.72       0.20       0.00       0.00       0.00       1.64       ----

> <Gold.PLP.Fitness>
23.0553

> <Gold.PLP.PLP>
-25.7203

> <Gold.PLP.part.hbond>
-4.2828

> <Gold.PLP.part.metal>
0.0000

> <Gold.PLP.part.buried>
18.1241

> <Gold.PLP.part.nonpolar>
-44.5925

> <Gold.PLP.part.repulsive>
3.2187

> <Gold.PLP.ligand.clash>
0.0000

> <Gold.PLP.ligand.torsion>
1.6367

> <Gold.PLP.Chemscore.Hbond>
0.2028

> <Gold.PLP.Chemscore.CHOScore>
0.0000

> <Gold.PLP.Chemscore.Metal>
0.0000

> <Gold.Chemscore.Hbonds>
donor molecule, donor type, donor heavy atom, donor atom, acceptor molecule, acceptor atom, score
      L1  H     8    22       P1  9185  1.00
      L1  H    10    23       P1  8400  0.35

> <Gold.PLP.Chemscore.Internal.Correction>
   9.000000E+99

