#       Name:                CT1002167954
#       Creating user name   hitesit
#       Creation time:       Sun Apr 16 20:17:43 2023


#       File generated by GOLD software.
#

@<TRIPOS>MOLECULE
CT1002167954|ligand_prepared|mol2|1|dock5
    29    30     1
SMALL
NO_CHARGES


@<TRIPOS>ATOM
      1 C1         110.8732 242.9453 327.2563 C.3            1 RES1               0.0000
      2 C2         111.5363 243.8136 326.1677 C.ar           1 RES1               0.0000
      3 C3         111.2180 243.5963 328.5926 C.2            1 RES1               0.0000
      4 C4         109.3820 242.9283 326.9389 C.2            1 RES1               0.0000
      5 C5         111.3735 241.4821 327.2792 C.3            1 RES1               0.0000
      6 C6         111.4155 245.1997 326.1958 C.ar           1 RES1               0.0000
      7 C7         112.2729 243.2441 325.1324 C.ar           1 RES1               0.0000
      8 N8         110.2269 244.2735 329.2398 N.am           1 RES1               0.0000
      9 O9         112.3524 243.5497 329.0522 O.2            1 RES1               0.0000
     10 N10        108.5293 243.5268 327.8291 N.am           1 RES1               0.0000
     11 O11        108.9395 242.4167 325.9178 O.2            1 RES1               0.0000
     12 C12        110.9258 240.7002 328.5040 C.3            1 RES1               0.0000
     13 C13        112.0118 245.9882 325.2258 C.ar           1 RES1               0.0000
     14 C14        112.8682 244.0345 324.1632 C.ar           1 RES1               0.0000
     15 C15        108.8870 244.2255 328.9498 C.2            1 RES1               0.0000
     16 C16        112.7389 245.4063 324.2092 C.ar           1 RES1               0.0000
     17 O17        108.0652 244.7826 329.6718 O.2            1 RES1               0.0000
     18 H18        111.0083 240.9700 326.3804 H              1 RES1               0.0000
     19 H19        112.4699 241.4832 327.2423 H              1 RES1               0.0000
     20 H20        110.8451 245.6754 326.9866 H              1 RES1               0.0000
     21 H21        112.3871 242.1669 325.0755 H              1 RES1               0.0000
     22 H22        110.5080 244.8710 330.0107 H              1 RES1               0.0000
     23 H23        107.5357 243.4437 327.6386 H              1 RES1               0.0000
     24 H24        111.3039 239.6805 328.4701 H              1 RES1               0.0000
     25 H25        111.2929 241.1675 329.4154 H              1 RES1               0.0000
     26 H26        109.8400 240.6574 328.5587 H              1 RES1               0.0000
     27 H27        111.9059 247.0673 325.2657 H              1 RES1               0.0000
     28 H28        113.4390 243.5722 323.3647 H              1 RES1               0.0000
     29 H29        113.2063 246.0243 323.4497 H              1 RES1               0.0000
@<TRIPOS>BOND
    1    1    2 1     
    2    1    3 1     
    3    1    4 1     
    4    1    5 1     
    5    2    6 ar    
    6    2    7 ar    
    7    3    8 1     
    8    3    9 2     
    9    4   10 1     
   10    4   11 2     
   11    5   12 1     
   12    5   18 1     
   13    5   19 1     
   14    6   13 ar    
   15    6   20 1     
   16    7   14 ar    
   17    7   21 1     
   18    8   15 1     
   19    8   22 1     
   20   10   15 1     
   21   10   23 1     
   22   12   24 1     
   23   12   25 1     
   24   12   26 1     
   25   13   16 ar    
   26   13   27 1     
   27   14   16 ar    
   28   14   28 1     
   29   15   17 2     
   30   16   29 1     
@<TRIPOS>SUBSTRUCTURE
      1 RES1           1
@<TRIPOS>SET
DONOR_HYDROGENS      STATIC     ATOMS    <user>   **** ""
2 22 23
ATOM$RED        STATIC     ATOMS    COLORGROUP SYSTEM
2 22 23
@<TRIPOS>COMMENT
> <Gold.Version>
2022.3.0

> <Gold.Id.Protein>
unknown|4uch_clean|pdb

> <Gold.Protein.RotatedTorsions>
[ 1279 1268 1269 1270 ] final  140.20 input   42.93 | X-H torsion
[ 12873 12852 12853 12854 ] final  166.55 input  102.46 | X-H torsion
[ 12881 12863 12862 12860 ] final  -57.01 input   59.97 | X-H torsion
[ 12908 12891 12892 12893 ] final   78.05 input   33.49 | X-H torsion
[ 12964 12952 12953 12954 ] final  -84.39 input  127.22 | X-H torsion
[ 13444 13426 13425 13421 ] final   79.18 input   59.98 | X-H torsion
[ 1240 1232 1233 1234 ] final   -3.08 input  119.89 | X-H torsion
[ 5550 5545 5544 5541 ] final  -59.42 input   60.01 | X-H torsion
[ 3552 3542 3543 3544 ] final  -45.33 input   78.91 | X-H torsion
[ 3579 3563 3564 3565 ] final  155.54 input  104.01 | X-H torsion
[ 3601 3592 3593 3594 ] final    5.99 input   81.17 | X-H torsion
[ 8428 8423 8424 8425 ] final  174.91 input   41.93 | X-H torsion
[ 8452 8445 8446 8447 ] final  -39.98 input   98.48 | X-H torsion
[ 8978 8972 8973 8974 ] final -132.37 input   32.89 | X-H torsion
[ 8996 8992 8993 8994 ] final  -95.53 input   45.98 | X-H torsion
[ 9030 9016 9017 9018 ] final  105.69 input   38.77 | X-H torsion
[ 9076 9062 9063 9064 ] final -107.49 input   99.93 | X-H torsion
[ 9117 9100 9101 9102 ] final -118.09 input   97.82 | X-H torsion
[ 8482 8476 8477 8478 ] final  -68.00 input   55.16 | X-H torsion
[ 9084 9073 9072 9070 ] final  -55.53 input   60.02 | X-H torsion
[ 8948 8937 8938 8939 ] final -170.64 input   49.52 | X-H torsion
[ 8982 8977 8976 8973 ] final  -25.21 input   60.00 | X-H torsion
[ 4895 4885 4884 4881 ] final   -9.69 input   59.99 | X-H torsion
[ 5574 5565 5566 5567 ] final  131.59 input   50.85 | X-H torsion
[ 5606 5598 5599 5600 ] final  -44.81 input  117.92 | X-H torsion
[ 8328 8319 8318 8316 ] final   35.12 input   59.98 | X-H torsion
[ 5644 5636 5637 5638 ] final -108.37 input   69.86 | X-H torsion
[ 13449 13428 13427 13425 ] final   15.37 input   60.01 | X-H torsion
[ 8513 8500 8501 8502 ] final  158.41 input   75.08 | X-H torsion
[ 4911 4901 4902 4903 ] final  173.53 input   29.84 | X-H torsion
[ 13460 1235 1234 1233 ] final  126.63 input    0.00 | X-H torsion
[ 13464 8503 8502 8501 ] final    1.57 input    0.00 | X-H torsion
[ 13466 12822 12821 12820 ] final -161.94 input   -0.00 | X-H torsion
[ 13469 12855 12854 12853 ] final   87.17 input   -0.00 | X-H torsion
[ 13474 12894 12893 12892 ] final  -15.49 input    0.00 | X-H torsion
[ 13493 5543 5542 5541 ] final  116.81 input    0.00 | X-H torsion
[ 13497 3502 3501 3500 ] final -144.79 input   -0.00 | X-H torsion
[ 13500 3545 3544 3543 ] final  -79.42 input    0.00 | X-H torsion
[ 13505 8400 8399 8398 ] final   16.45 input   -0.00 | X-H torsion
[ 13509 8448 8447 8446 ] final   81.14 input    0.00 | X-H torsion
[ 13511 8940 8939 8938 ] final -152.04 input    0.00 | X-H torsion
[ 13514 8975 8974 8973 ] final   11.28 input   -0.00 | X-H torsion
[ 13517 8995 8994 8993 ] final   23.56 input    0.00 | X-H torsion
[ 13520 9019 9018 9017 ] final  139.26 input   -0.00 | X-H torsion
[ 13528 8426 8425 8424 ] final  123.35 input    0.00 | X-H torsion
[ 13530 8363 8362 8361 ] final   24.99 input    0.00 | X-H torsion
[ 13542 5639 5638 5637 ] final   39.09 input    0.00 | X-H torsion
[ 13548 9180 9179 9178 ] final   46.55 input   -0.00 | X-H torsion

> <Gold.Protein.ActiveResidues>
 TRP311  MET341  HIS342  TRP414  ALA417  ARG419  CYS420  VAL421  GLY422  ARG423 
 SER462  ALA463  SER482  GLN483  LEU484  ILE485  ARG486  TRP566  TYR567  LEU569 
 PRO570  ALA571  VAL572  SER573  ASN574  MET575  PHE589  SER590  GLY591  TRP592 
 TYR593  MET594  GLU597  ILE598  ARG601  ASP602  ARG608  TRP683  PHE696  GLU710 
 TYR711  GLN712  PRO713  ASP714  HEM750  H4B760 

> <Gold.Protein.RotatedAtoms>
  106.8082  254.3874  334.9862 H   0  0  0  0  0  0  0  0  0  0  0  0  # atno 1240 bound_to 1232
  106.0508  254.0400  332.0502 H   0  0  0  0  0  0  0  0  0  0  0  0  # atno 1279 bound_to 1268
  119.3662  251.4758  329.2846 H   0  0  0  0  0  0  0  0  0  0  0  0  # atno 3552 bound_to 3542
  120.7517  248.7981  329.0264 H   0  0  0  0  0  0  0  0  0  0  0  0  # atno 3579 bound_to 3563
  123.4336  249.2671  326.9068 H   0  0  0  0  0  0  0  0  0  0  0  0  # atno 3601 bound_to 3592
  124.5008  245.7878  317.5959 H   0  0  0  0  0  0  0  0  0  0  0  0  # atno 4895 bound_to 4885
  122.8614  246.9425  314.0027 H   0  0  0  0  0  0  0  0  0  0  0  0  # atno 4911 bound_to 4901
  105.6828  243.7406  319.9263 H   0  0  0  0  0  0  0  0  0  0  0  0  # atno 5550 bound_to 5545
  108.0401  243.9803  319.1067 H   0  0  0  0  0  0  0  0  0  0  0  0  # atno 5574 bound_to 5565
  109.8517  242.9526  316.1858 H   0  0  0  0  0  0  0  0  0  0  0  0  # atno 5606 bound_to 5598
  110.3952  240.9813  314.4442 H   0  0  0  0  0  0  0  0  0  0  0  0  # atno 5644 bound_to 5636
  111.0702  238.1304  321.6716 H   0  0  0  0  0  0  0  0  0  0  0  0  # atno 8328 bound_to 8319
  115.7962  242.4593  317.9008 H   0  0  0  0  0  0  0  0  0  0  0  0  # atno 8428 bound_to 8423
  113.8309  245.7869  317.4210 H   0  0  0  0  0  0  0  0  0  0  0  0  # atno 8452 bound_to 8445
  111.4692  248.3253  318.1522 H   0  0  0  0  0  0  0  0  0  0  0  0  # atno 8482 bound_to 8476
  108.8393  248.5539  317.8549 H   0  0  0  0  0  0  0  0  0  0  0  0  # atno 8513 bound_to 8500
  114.9512  249.9130  314.7962 H   0  0  0  0  0  0  0  0  0  0  0  0  # atno 8948 bound_to 8937
  117.3014  247.6390  316.5220 H   0  0  0  0  0  0  0  0  0  0  0  0  # atno 8978 bound_to 8972
  119.4609  245.8449  314.5146 H   0  0  0  0  0  0  0  0  0  0  0  0  # atno 8982 bound_to 8977
  119.9944  245.0730  317.2078 H   0  0  0  0  0  0  0  0  0  0  0  0  # atno 8996 bound_to 8992
  122.9365  243.3837  320.0112 H   0  0  0  0  0  0  0  0  0  0  0  0  # atno 9030 bound_to 9016
  121.1836  240.9178  321.7319 H   0  0  0  0  0  0  0  0  0  0  0  0  # atno 9076 bound_to 9062
  113.8918  238.7648  323.1159 H   0  0  0  0  0  0  0  0  0  0  0  0  # atno 9084 bound_to 9073
  121.8531  240.2842  324.9128 H   0  0  0  0  0  0  0  0  0  0  0  0  # atno 9117 bound_to 9100
  109.6784  256.2724  324.4333 H   0  0  0  0  0  0  0  0  0  0  0  0  # atno 12873 bound_to 12852
  110.1536  251.1046  328.2310 H   0  0  0  0  0  0  0  0  0  0  0  0  # atno 12881 bound_to 12863
  106.3689  254.8873  321.6901 H   0  0  0  0  0  0  0  0  0  0  0  0  # atno 12908 bound_to 12891
  101.4777  253.1902  320.5918 H   0  0  0  0  0  0  0  0  0  0  0  0  # atno 12964 bound_to 12952
  109.1718  246.3962  337.2849 H   0  0  0  0  0  0  0  0  0  0  0  0  # atno 13444 bound_to 13426
  109.5114  250.1454  335.6546 H   0  0  0  0  0  0  0  0  0  0  0  0  # atno 13449 bound_to 13428
  108.0988  254.2246  330.6454 LP  0  0  0  0  0  0  0  0  0  0  0  0  # atno 13460 bound_to 1235
  109.2323  254.1896  331.9546 LP  0  0  0  0  0  0  0  0  0  0  0  0  # atno 13461 bound_to 1235
  106.6412  255.0092  333.3849 LP  0  0  0  0  0  0  0  0  0  0  0  0  # atno 13462 bound_to 1268
  106.1891  252.1667  319.1991 LP  0  0  0  0  0  0  0  0  0  0  0  0  # atno 13464 bound_to 8503
  107.3539  253.4098  319.5116 LP  0  0  0  0  0  0  0  0  0  0  0  0  # atno 13465 bound_to 8503
  109.0180  255.6139  321.4519 LP  0  0  0  0  0  0  0  0  0  0  0  0  # atno 13466 bound_to 12822
  110.6331  256.1467  321.1240 LP  0  0  0  0  0  0  0  0  0  0  0  0  # atno 13467 bound_to 12822
  109.0517  257.3995  323.2577 LP  0  0  0  0  0  0  0  0  0  0  0  0  # atno 13468 bound_to 12852
  107.2134  258.1432  322.0559 LP  0  0  0  0  0  0  0  0  0  0  0  0  # atno 13469 bound_to 12855
  106.1219  258.1119  323.4004 LP  0  0  0  0  0  0  0  0  0  0  0  0  # atno 13470 bound_to 12855
  110.8916  252.4394  328.7981 LP  0  0  0  0  0  0  0  0  0  0  0  0  # atno 13471 bound_to 12863
  111.4501  251.7038  327.4514 LP  0  0  0  0  0  0  0  0  0  0  0  0  # atno 13472 bound_to 12863
  106.1015  255.9720  323.0337 LP  0  0  0  0  0  0  0  0  0  0  0  0  # atno 13473 bound_to 12891
  104.5372  253.7329  322.0021 LP  0  0  0  0  0  0  0  0  0  0  0  0  # atno 13474 bound_to 12894
  102.8254  253.6337  322.2466 LP  0  0  0  0  0  0  0  0  0  0  0  0  # atno 13475 bound_to 12894
  100.2174  252.6743  321.6882 LP  0  0  0  0  0  0  0  0  0  0  0  0  # atno 13476 bound_to 12952
  109.0504  245.8215  335.7675 LP  0  0  0  0  0  0  0  0  0  0  0  0  # atno 13490 bound_to 13426
  107.7406  246.4506  336.5128 LP  0  0  0  0  0  0  0  0  0  0  0  0  # atno 13491 bound_to 13426
  106.8718  252.7379  335.5684 LP  0  0  0  0  0  0  0  0  0  0  0  0  # atno 13492 bound_to 1232
  109.7139  245.9638  319.6294 LP  0  0  0  0  0  0  0  0  0  0  0  0  # atno 13493 bound_to 5543
  109.1996  247.0608  318.3915 LP  0  0  0  0  0  0  0  0  0  0  0  0  # atno 13494 bound_to 5543
  105.9158  244.1176  321.4924 LP  0  0  0  0  0  0  0  0  0  0  0  0  # atno 13495 bound_to 5545
  107.1957  243.9315  320.4955 LP  0  0  0  0  0  0  0  0  0  0  0  0  # atno 13496 bound_to 5545
  118.9178  249.3269  329.4990 LP  0  0  0  0  0  0  0  0  0  0  0  0  # atno 13497 bound_to 3502
  117.2482  249.7371  329.7089 LP  0  0  0  0  0  0  0  0  0  0  0  0  # atno 13498 bound_to 3502
  118.8488  252.2350  327.8004 LP  0  0  0  0  0  0  0  0  0  0  0  0  # atno 13499 bound_to 3542
  122.7607  251.2654  327.1842 LP  0  0  0  0  0  0  0  0  0  0  0  0  # atno 13500 bound_to 3545
  122.4667  251.5853  328.8608 LP  0  0  0  0  0  0  0  0  0  0  0  0  # atno 13501 bound_to 3545
  121.5843  249.4100  327.6118 LP  0  0  0  0  0  0  0  0  0  0  0  0  # atno 13502 bound_to 3563
  123.2055  247.5963  327.3642 LP  0  0  0  0  0  0  0  0  0  0  0  0  # atno 13503 bound_to 3592
  118.1558  243.1543  318.5601 LP  0  0  0  0  0  0  0  0  0  0  0  0  # atno 13505 bound_to 8400
  117.1099  244.4951  318.2311 LP  0  0  0  0  0  0  0  0  0  0  0  0  # atno 13506 bound_to 8400
  114.4382  242.9685  318.8708 LP  0  0  0  0  0  0  0  0  0  0  0  0  # atno 13507 bound_to 8423
  114.6921  246.0561  318.9181 LP  0  0  0  0  0  0  0  0  0  0  0  0  # atno 13508 bound_to 8445
  113.5506  248.2064  316.3190 LP  0  0  0  0  0  0  0  0  0  0  0  0  # atno 13509 bound_to 8448
  113.0720  249.5660  317.2793 LP  0  0  0  0  0  0  0  0  0  0  0  0  # atno 13510 bound_to 8448
  116.2653  246.5201  317.7445 LP  0  0  0  0  0  0  0  0  0  0  0  0  # atno 13511 bound_to 8940
  115.0845  247.2737  316.7259 LP  0  0  0  0  0  0  0  0  0  0  0  0  # atno 13512 bound_to 8940
  118.7838  247.6363  315.5979 LP  0  0  0  0  0  0  0  0  0  0  0  0  # atno 13513 bound_to 8972
  120.5129  247.2548  316.1002 LP  0  0  0  0  0  0  0  0  0  0  0  0  # atno 13514 bound_to 8975
  121.7298  246.3420  316.9284 LP  0  0  0  0  0  0  0  0  0  0  0  0  # atno 13515 bound_to 8975
  119.3304  244.9680  318.8214 LP  0  0  0  0  0  0  0  0  0  0  0  0  # atno 13516 bound_to 8992
  121.5265  242.8415  316.9973 LP  0  0  0  0  0  0  0  0  0  0  0  0  # atno 13517 bound_to 8995
  121.2881  241.5370  318.1116 LP  0  0  0  0  0  0  0  0  0  0  0  0  # atno 13518 bound_to 8995
  121.1940  243.3245  319.9142 LP  0  0  0  0  0  0  0  0  0  0  0  0  # atno 13519 bound_to 9016
  120.7598  242.2792  323.2272 LP  0  0  0  0  0  0  0  0  0  0  0  0  # atno 13520 bound_to 9019
  122.2384  242.9298  322.6023 LP  0  0  0  0  0  0  0  0  0  0  0  0  # atno 13521 bound_to 9019
  121.9003  239.3243  321.7216 LP  0  0  0  0  0  0  0  0  0  0  0  0  # atno 13522 bound_to 9062
  120.2806  240.6472  325.5824 LP  0  0  0  0  0  0  0  0  0  0  0  0  # atno 13523 bound_to 9100
  111.8746  244.5171  318.0924 LP  0  0  0  0  0  0  0  0  0  0  0  0  # atno 13528 bound_to 8426
  112.3285  244.5210  316.4209 LP  0  0  0  0  0  0  0  0  0  0  0  0  # atno 13529 bound_to 8426
  115.1450  238.9422  316.7349 LP  0  0  0  0  0  0  0  0  0  0  0  0  # atno 13530 bound_to 8363
  114.9603  240.5314  317.3985 LP  0  0  0  0  0  0  0  0  0  0  0  0  # atno 13531 bound_to 8363
  110.8310  246.7906  317.6174 LP  0  0  0  0  0  0  0  0  0  0  0  0  # atno 13532 bound_to 8476
  114.1494  238.3695  321.5585 LP  0  0  0  0  0  0  0  0  0  0  0  0  # atno 13533 bound_to 9073
  114.2150  239.9319  322.0289 LP  0  0  0  0  0  0  0  0  0  0  0  0  # atno 13534 bound_to 9073
  114.6122  248.4940  315.7608 LP  0  0  0  0  0  0  0  0  0  0  0  0  # atno 13535 bound_to 8937
  118.6747  244.6671  313.7128 LP  0  0  0  0  0  0  0  0  0  0  0  0  # atno 13536 bound_to 8977
  119.9064  244.2929  314.7175 LP  0  0  0  0  0  0  0  0  0  0  0  0  # atno 13537 bound_to 8977
  124.3465  247.1294  318.5034 LP  0  0  0  0  0  0  0  0  0  0  0  0  # atno 13538 bound_to 4885
  125.7678  246.7930  317.7731 LP  0  0  0  0  0  0  0  0  0  0  0  0  # atno 13539 bound_to 4885
  107.7230  244.7635  317.5770 LP  0  0  0  0  0  0  0  0  0  0  0  0  # atno 13540 bound_to 5565
  111.2852  243.8664  315.7828 LP  0  0  0  0  0  0  0  0  0  0  0  0  # atno 13541 bound_to 5598
  111.2786  240.1249  317.7194 LP  0  0  0  0  0  0  0  0  0  0  0  0  # atno 13542 bound_to 5639
  110.7678  238.7011  318.5631 LP  0  0  0  0  0  0  0  0  0  0  0  0  # atno 13543 bound_to 5639
  110.7400  239.1069  320.4119 LP  0  0  0  0  0  0  0  0  0  0  0  0  # atno 13544 bound_to 8319
  112.1417  239.2742  321.2327 LP  0  0  0  0  0  0  0  0  0  0  0  0  # atno 13545 bound_to 8319
  113.4352  238.8664  328.1864 LP  0  0  0  0  0  0  0  0  0  0  0  0  # atno 13548 bound_to 9180
  113.5165  237.2932  328.9065 LP  0  0  0  0  0  0  0  0  0  0  0  0  # atno 13549 bound_to 9180
  111.7055  240.9995  315.6033 LP  0  0  0  0  0  0  0  0  0  0  0  0  # atno 13552 bound_to 5636

> <Gold.Score>
     Fitness  S(hb_ext) S(vdw_ext)  S(hb_int)    S(int)      intcor
     28.61       6.00      16.63       0.00      -0.26      -0.77

> <Gold.Goldscore.Fitness>
28.6091

> <Gold.Goldscore.Internal.Vdw>
-0.4612

> <Gold.Goldscore.Internal.Torsion>
-0.5606

> <Gold.Goldscore.External.Vdw>
16.6295

> <Gold.Goldscore.Internal.HBond>
0.0000

> <Gold.Goldscore.External.HBond>
6.0000

> <Gold.Goldscore.Internal.Correction>
-0.7653

> <Gold.Goldscore.Hbonds>
donor molecule, donor type, donor heavy atom, donor atom, acceptor molecule, acceptor atom, score
      L1  H     8    22       P1 13419  1.00

> <Gold.Goldscore.Internal.Vdw.Weighted>
-0.4612

> <Gold.Goldscore.Internal.Torsion.Weighted>
-0.5606

> <Gold.Goldscore.External.Vdw.Weighted>
22.8656

> <Gold.Goldscore.Internal.HBond.Weighted>
0.0000

> <Gold.Goldscore.External.HBond.Weighted>
6.0000

> <Gold.Goldscore.Internal.Correction.Weighted>
-0.7653

> <Gold.Rescore>
     Score     S(PLP)   S(hbond)     S(cho)   S(metal)  DE(clash)   DE(tors)     intcor
     28.17     -27.61       0.94       0.00       0.00       0.00       1.14       ----

> <Gold.PLP.Fitness>
28.1655

> <Gold.PLP.PLP>
-27.6083

> <Gold.PLP.part.hbond>
-3.4283

> <Gold.PLP.part.metal>
0.0000

> <Gold.PLP.part.buried>
-2.2788

> <Gold.PLP.part.nonpolar>
-23.2632

> <Gold.PLP.part.repulsive>
1.2108

> <Gold.PLP.ligand.clash>
0.0000

> <Gold.PLP.ligand.torsion>
1.1374

> <Gold.PLP.Chemscore.Hbond>
0.9440

> <Gold.PLP.Chemscore.CHOScore>
0.0000

> <Gold.PLP.Chemscore.Metal>
0.0000

> <Gold.Chemscore.Hbonds>
donor molecule, donor type, donor heavy atom, donor atom, acceptor molecule, acceptor atom, score
      L1  H     8    22       P1 13419  1.00

> <Gold.PLP.Chemscore.Internal.Correction>
   9.000000E+99

