#       Name:                CT1002167954
#       Creating user name   hitesit
#       Creation time:       Sun Apr 16 02:30:53 2023


#       File generated by GOLD software.
#

@<TRIPOS>MOLECULE
CT1002167954|ligand_prepared|mol2|1|dock4
    29    30     1
SMALL
NO_CHARGES


@<TRIPOS>ATOM
      1 C1         234.5652 354.7854 -116.0675 C.3            1 RES1               0.0000
      2 C2         235.7588 355.0997 -116.9924 C.ar           1 RES1               0.0000
      3 C3         233.4574 355.7623 -116.4506 C.2            1 RES1               0.0000
      4 C4         234.2139 353.3212 -116.3070 C.2            1 RES1               0.0000
      5 C5         234.8772 354.9620 -114.5631 C.3            1 RES1               0.0000
      6 C6         236.9613 355.5613 -116.4655 C.ar           1 RES1               0.0000
      7 C7         235.6735 354.9308 -118.3718 C.ar           1 RES1               0.0000
      8 N8         232.3958 355.2704 -117.1512 N.am           1 RES1               0.0000
      9 O9         233.5331 356.9537 -116.1766 O.2            1 RES1               0.0000
     10 N10        232.9992 353.0368 -116.8739 N.am           1 RES1               0.0000
     11 O11        234.9849 352.4121 -116.0253 O.2            1 RES1               0.0000
     12 C12        233.7496 354.5141 -113.6465 C.3            1 RES1               0.0000
     13 C13        238.0404 355.8411 -117.2873 C.ar           1 RES1               0.0000
     14 C14        236.7538 355.2114 -119.1920 C.ar           1 RES1               0.0000
     15 C15        232.0871 353.9466 -117.3351 C.2            1 RES1               0.0000
     16 C16        237.9376 355.6660 -118.6509 C.ar           1 RES1               0.0000
     17 O17        231.0403 353.6133 -117.8831 O.2            1 RES1               0.0000
     18 H18        235.7794 354.3874 -114.3198 H              1 RES1               0.0000
     19 H19        235.0910 356.0202 -114.3686 H              1 RES1               0.0000
     20 H20        237.0601 355.7076 -115.3950 H              1 RES1               0.0000
     21 H21        234.7517 354.5753 -118.8196 H              1 RES1               0.0000
     22 H22        231.7739 355.9497 -117.5779 H              1 RES1               0.0000
     23 H23        232.7520 352.0561 -116.9600 H              1 RES1               0.0000
     24 H24        234.0202 354.6594 -112.6028 H              1 RES1               0.0000
     25 H25        232.8431 355.0825 -113.8439 H              1 RES1               0.0000
     26 H26        233.5274 353.4594 -113.7953 H              1 RES1               0.0000
     27 H27        238.9694 356.1999 -116.8567 H              1 RES1               0.0000
     28 H28        236.6682 355.0727 -120.2647 H              1 RES1               0.0000
     29 H29        238.7832 355.8848 -119.2945 H              1 RES1               0.0000
@<TRIPOS>BOND
    1    1    2 1     
    2    1    3 1     
    3    1    4 1     
    4    1    5 1     
    5    2    6 ar    
    6    2    7 ar    
    7    3    8 1     
    8    3    9 2     
    9    4   10 1     
   10    4   11 2     
   11    5   12 1     
   12    5   18 1     
   13    5   19 1     
   14    6   13 ar    
   15    6   20 1     
   16    7   14 ar    
   17    7   21 1     
   18    8   15 1     
   19    8   22 1     
   20   10   15 1     
   21   10   23 1     
   22   12   24 1     
   23   12   25 1     
   24   12   26 1     
   25   13   16 ar    
   26   13   27 1     
   27   14   16 ar    
   28   14   28 1     
   29   15   17 2     
   30   16   29 1     
@<TRIPOS>SUBSTRUCTURE
      1 RES1           1
@<TRIPOS>SET
DONOR_HYDROGENS      STATIC     ATOMS    <user>   **** ""
2 22 23
ATOM$RED        STATIC     ATOMS    COLORGROUP SYSTEM
2 22 23
@<TRIPOS>COMMENT
> <Gold.Version>
2022.3.0

> <Gold.Id.Protein>
unknown|7ts3_clean|pdb

> <Gold.Protein.RotatedTorsions>
[ 17121 17111 17112 17113 ] final  -14.48 input   42.04 | X-H torsion
[ 17169 17155 17156 17157 ] final  161.65 input  103.88 | X-H torsion
[ 18263 18249 18250 18251 ] final  -85.86 input   32.50 | X-H torsion
[ 18345 18297 18298 18299 ] final -123.00 input   28.05 | X-H torsion
[ 18431 18389 18390 18391 ] final  -94.77 input   99.92 | X-H torsion
[ 18439 18400 18399 18397 ] final  -99.96 input   59.97 | X-H torsion
[ 18499 18465 18466 18467 ] final   35.17 input   91.01 | X-H torsion
[ 18649 18619 18620 18621 ] final   20.60 input  125.07 | X-H torsion
[ 7445 7437 7438 7439 ] final -146.72 input   89.33 | X-H torsion
[ 18231 18209 18210 18211 ] final -167.69 input   30.89 | X-H torsion
[ 7393 7379 7380 7381 ] final   23.23 input   98.82 | X-H torsion
[ 18539 18525 18526 18527 ] final  106.38 input  129.79 | X-H torsion
[ 18235 18214 18213 18210 ] final  -97.05 input   60.00 | X-H torsion
[ 18179 18139 18140 18141 ] final  -17.67 input   56.47 | X-H torsion
[ 17229 17217 17218 17219 ] final   15.20 input   53.60 | X-H torsion
[ 10082 10067 10068 10069 ] final  100.34 input   26.25 | X-H torsion
[ 16913 16892 16891 16889 ] final   67.63 input   59.99 | X-H torsion
[ 11371 11350 11349 11346 ] final   42.00 input   59.99 | X-H torsion
[ 11429 11395 11396 11397 ] final   57.90 input   50.42 | X-H torsion
[ 26033 25995 25994 25992 ] final   66.79 input   60.01 | X-H torsion
[ 17337 17321 17322 17323 ] final -154.32 input   80.81 | X-H torsion
[ 17281 17265 17266 17267 ] final -137.87 input   66.93 | X-H torsion
[ 22383 22351 22352 22353 ] final  -89.55 input   47.53 | X-H torsion
[ 27271 16988 16987 16986 ] final   34.17 input   -0.00 | X-H torsion
[ 27274 17062 17061 17060 ] final  -62.04 input   -0.00 | X-H torsion
[ 27278 18142 18141 18140 ] final -106.57 input    0.00 | X-H torsion
[ 27281 18252 18251 18250 ] final -154.45 input    0.00 | X-H torsion
[ 27284 18300 18299 18298 ] final   -6.32 input   -0.00 | X-H torsion
[ 27287 18392 18391 18390 ] final  125.90 input   -0.00 | X-H torsion
[ 27292 18468 18467 18466 ] final  100.28 input   -0.00 | X-H torsion
[ 27305 18212 18211 18210 ] final -159.06 input   -0.00 | X-H torsion
[ 27308 16952 16951 16950 ] final  -69.04 input   -0.00 | X-H torsion
[ 27313 17114 17113 17112 ] final   78.95 input   -0.00 | X-H torsion
[ 27315 17158 17157 17156 ] final -141.38 input   -0.00 | X-H torsion
[ 27320 10070 10069 10068 ] final -107.47 input   -0.00 | X-H torsion
[ 27326 11348 11347 11346 ] final  -16.35 input   -0.00 | X-H torsion
[ 27341 7254 7253 7252 ] final -146.05 input    0.00 | X-H torsion
[ 27344 17268 17267 17266 ] final  -49.31 input   -0.00 | X-H torsion
[ 27346 25921 25920 25919 ] final -122.93 input    0.00 | X-H torsion

> <Gold.Protein.ActiveResidues>
 MET341  HIS342  TRP414  ARG419  CYS420  VAL421  GLY422  LEU429  LEU460  SER462 
 ALA463  ILE464  SER482  GLN483  ARG486  TYR567  GLY568  LEU569  PRO570  ALA571 
 VAL572  SER573  ASN574  MET575  PRO588  PHE589  SER590  GLY591  TRP592  TYR593 
 MET594  GLY595  GLU597  ILE598  ARG601  ASP602  ARG608  ILE653  VAL654  TRP683 
 PHE709  GLU710  TYR711  HEM801  H4B802 

> <Gold.Protein.RotatedAtoms>
  229.5755  359.5711 -112.6670 H   0  0  0  0  0  0  0  0  0  0  0  0  # atno 7393 bound_to 7379
  227.5144  359.4811 -113.7355 H   0  0  0  0  0  0  0  0  0  0  0  0  # atno 7445 bound_to 7437
  229.1146  345.9143 -114.4353 H   0  0  0  0  0  0  0  0  0  0  0  0  # atno 10082 bound_to 10067
  244.0576  351.6458 -118.1630 H   0  0  0  0  0  0  0  0  0  0  0  0  # atno 11371 bound_to 11350
  243.2977  350.0292 -118.1129 H   0  0  0  0  0  0  0  0  0  0  0  0  # atno 11429 bound_to 11395
  239.6044  351.9415 -122.1536 H   0  0  0  0  0  0  0  0  0  0  0  0  # atno 16913 bound_to 16892
  236.5518  350.5790 -118.2606 H   0  0  0  0  0  0  0  0  0  0  0  0  # atno 17121 bound_to 17111
  236.5687  350.5613 -115.7264 H   0  0  0  0  0  0  0  0  0  0  0  0  # atno 17169 bound_to 17155
  240.7375  349.9628 -113.8237 H   0  0  0  0  0  0  0  0  0  0  0  0  # atno 17229 bound_to 17217
  242.2888  348.6583 -112.5544 H   0  0  0  0  0  0  0  0  0  0  0  0  # atno 17281 bound_to 17265
  242.4750  351.0894 -110.3029 H   0  0  0  0  0  0  0  0  0  0  0  0  # atno 17337 bound_to 17321
  236.4301  347.1092 -112.9678 H   0  0  0  0  0  0  0  0  0  0  0  0  # atno 18179 bound_to 18139
  233.9141  347.8828 -113.8729 H   0  0  0  0  0  0  0  0  0  0  0  0  # atno 18231 bound_to 18209
  232.5822  345.5786 -115.7240 H   0  0  0  0  0  0  0  0  0  0  0  0  # atno 18235 bound_to 18214
  231.0816  348.8214 -116.5050 H   0  0  0  0  0  0  0  0  0  0  0  0  # atno 18263 bound_to 18249
  229.6519  350.8992 -118.3431 H   0  0  0  0  0  0  0  0  0  0  0  0  # atno 18345 bound_to 18297
  229.5986  353.5021 -120.4342 H   0  0  0  0  0  0  0  0  0  0  0  0  # atno 18431 bound_to 18389
  236.5579  353.2906 -121.7176 H   0  0  0  0  0  0  0  0  0  0  0  0  # atno 18439 bound_to 18400
  230.7151  357.2816 -121.2459 H   0  0  0  0  0  0  0  0  0  0  0  0  # atno 18499 bound_to 18465
  228.3924  359.9553 -123.6768 H   0  0  0  0  0  0  0  0  0  0  0  0  # atno 18539 bound_to 18525
  233.0660  360.7594 -123.8097 H   0  0  0  0  0  0  0  0  0  0  0  0  # atno 18649 bound_to 18619
  225.2540  356.4512 -124.2508 H   0  0  0  0  0  0  0  0  0  0  0  0  # atno 22383 bound_to 22351
  241.1765  360.5835 -110.0447 H   0  0  0  0  0  0  0  0  0  0  0  0  # atno 26033 bound_to 25995
  235.6653  348.5023 -122.3492 LP  0  0  0  0  0  0  0  0  0  0  0  0  # atno 27271 bound_to 16988
  235.9065  349.0171 -120.7131 LP  0  0  0  0  0  0  0  0  0  0  0  0  # atno 27272 bound_to 16988
  233.3843  350.8006 -117.4079 LP  0  0  0  0  0  0  0  0  0  0  0  0  # atno 27274 bound_to 17062
  233.5177  349.0911 -117.6521 LP  0  0  0  0  0  0  0  0  0  0  0  0  # atno 27275 bound_to 17062
  235.3888  349.5186 -119.0113 LP  0  0  0  0  0  0  0  0  0  0  0  0  # atno 27276 bound_to 17111
  237.1083  348.9284 -115.4189 LP  0  0  0  0  0  0  0  0  0  0  0  0  # atno 27277 bound_to 17155
  235.0827  349.7461 -114.2757 LP  0  0  0  0  0  0  0  0  0  0  0  0  # atno 27278 bound_to 18142
  235.8004  348.2237 -114.6843 LP  0  0  0  0  0  0  0  0  0  0  0  0  # atno 27279 bound_to 18142
  231.5013  350.4848 -116.1513 LP  0  0  0  0  0  0  0  0  0  0  0  0  # atno 27280 bound_to 18249
  229.7380  349.6925 -119.9749 LP  0  0  0  0  0  0  0  0  0  0  0  0  # atno 27281 bound_to 18252
  229.2919  348.5533 -118.7488 LP  0  0  0  0  0  0  0  0  0  0  0  0  # atno 27282 bound_to 18252
  228.5387  352.1771 -117.9147 LP  0  0  0  0  0  0  0  0  0  0  0  0  # atno 27283 bound_to 18297
  229.0621  353.9009 -118.2787 LP  0  0  0  0  0  0  0  0  0  0  0  0  # atno 27284 bound_to 18300
  229.7182  355.1643 -119.2653 LP  0  0  0  0  0  0  0  0  0  0  0  0  # atno 27285 bound_to 18300
  229.2299  353.3885 -122.1378 LP  0  0  0  0  0  0  0  0  0  0  0  0  # atno 27286 bound_to 18389
  227.3152  356.4143 -121.3222 LP  0  0  0  0  0  0  0  0  0  0  0  0  # atno 27287 bound_to 18392
  227.8694  355.7866 -122.8384 LP  0  0  0  0  0  0  0  0  0  0  0  0  # atno 27288 bound_to 18392
  236.9612  354.6065 -122.5850 LP  0  0  0  0  0  0  0  0  0  0  0  0  # atno 27289 bound_to 18400
  236.6454  353.1929 -123.3392 LP  0  0  0  0  0  0  0  0  0  0  0  0  # atno 27290 bound_to 18400
  229.1238  356.7818 -120.7171 LP  0  0  0  0  0  0  0  0  0  0  0  0  # atno 27291 bound_to 18465
  231.6303  358.1889 -123.2670 LP  0  0  0  0  0  0  0  0  0  0  0  0  # atno 27292 bound_to 18468
  231.7943  359.6756 -122.3936 LP  0  0  0  0  0  0  0  0  0  0  0  0  # atno 27293 bound_to 18468
  232.9477  361.4802 -122.2228 LP  0  0  0  0  0  0  0  0  0  0  0  0  # atno 27294 bound_to 18619
  227.9642  358.7068 -112.2342 LP  0  0  0  0  0  0  0  0  0  0  0  0  # atno 27303 bound_to 7437
  232.2281  347.8999 -113.4115 LP  0  0  0  0  0  0  0  0  0  0  0  0  # atno 27304 bound_to 18209
  229.3603  348.6531 -114.7456 LP  0  0  0  0  0  0  0  0  0  0  0  0  # atno 27305 bound_to 18212
  230.6814  348.2782 -113.6901 LP  0  0  0  0  0  0  0  0  0  0  0  0  # atno 27306 bound_to 18212
  229.9953  361.1079 -111.9520 LP  0  0  0  0  0  0  0  0  0  0  0  0  # atno 27307 bound_to 7379
  231.3311  351.0521 -123.7702 LP  0  0  0  0  0  0  0  0  0  0  0  0  # atno 27308 bound_to 16952
  230.6077  349.6039 -123.1543 LP  0  0  0  0  0  0  0  0  0  0  0  0  # atno 27309 bound_to 16952
  229.6975  358.8992 -123.1987 LP  0  0  0  0  0  0  0  0  0  0  0  0  # atno 27310 bound_to 18525
  231.6846  345.8501 -117.0545 LP  0  0  0  0  0  0  0  0  0  0  0  0  # atno 27311 bound_to 18214
  231.2453  346.5015 -115.6230 LP  0  0  0  0  0  0  0  0  0  0  0  0  # atno 27312 bound_to 18214
  239.0051  349.1531 -117.4610 LP  0  0  0  0  0  0  0  0  0  0  0  0  # atno 27313 bound_to 17114
  238.9270  347.9288 -116.2382 LP  0  0  0  0  0  0  0  0  0  0  0  0  # atno 27314 bound_to 17114
  238.5455  348.4773 -111.9787 LP  0  0  0  0  0  0  0  0  0  0  0  0  # atno 27315 bound_to 17158
  237.2504  348.5147 -113.1282 LP  0  0  0  0  0  0  0  0  0  0  0  0  # atno 27316 bound_to 17158
  236.2360  346.9554 -111.2357 LP  0  0  0  0  0  0  0  0  0  0  0  0  # atno 27317 bound_to 18139
  239.3249  349.0066 -114.2056 LP  0  0  0  0  0  0  0  0  0  0  0  0  # atno 27318 bound_to 17217
  228.5440  346.6104 -112.9407 LP  0  0  0  0  0  0  0  0  0  0  0  0  # atno 27319 bound_to 10067
  232.4370  345.7081 -112.9899 LP  0  0  0  0  0  0  0  0  0  0  0  0  # atno 27320 bound_to 10070
  231.3361  346.9325 -112.4525 LP  0  0  0  0  0  0  0  0  0  0  0  0  # atno 27321 bound_to 10070
  238.6292  353.1599 -122.6140 LP  0  0  0  0  0  0  0  0  0  0  0  0  # atno 27322 bound_to 16892
  240.0575  352.9234 -123.3694 LP  0  0  0  0  0  0  0  0  0  0  0  0  # atno 27323 bound_to 16892
  242.3835  350.7235 -114.3383 LP  0  0  0  0  0  0  0  0  0  0  0  0  # atno 27326 bound_to 11348
  241.1358  350.6916 -115.5392 LP  0  0  0  0  0  0  0  0  0  0  0  0  # atno 27327 bound_to 11348
  245.6843  351.6229 -118.1731 LP  0  0  0  0  0  0  0  0  0  0  0  0  # atno 27333 bound_to 11350
  244.8852  353.0451 -118.0993 LP  0  0  0  0  0  0  0  0  0  0  0  0  # atno 27334 bound_to 11350
  242.8520  350.1653 -116.4227 LP  0  0  0  0  0  0  0  0  0  0  0  0  # atno 27335 bound_to 11395
  239.9102  359.8856 -109.2987 LP  0  0  0  0  0  0  0  0  0  0  0  0  # atno 27336 bound_to 25995
  240.5018  359.2462 -110.6799 LP  0  0  0  0  0  0  0  0  0  0  0  0  # atno 27337 bound_to 25995
  241.7555  349.6164 -109.7020 LP  0  0  0  0  0  0  0  0  0  0  0  0  # atno 27340 bound_to 17321
  232.0077  361.5583 -112.0849 LP  0  0  0  0  0  0  0  0  0  0  0  0  # atno 27341 bound_to 7254
  233.6946  361.7658 -111.7510 LP  0  0  0  0  0  0  0  0  0  0  0  0  # atno 27342 bound_to 7254
  241.5975  350.2036 -112.1340 LP  0  0  0  0  0  0  0  0  0  0  0  0  # atno 27343 bound_to 17265
  244.9921  350.5631 -109.1669 LP  0  0  0  0  0  0  0  0  0  0  0  0  # atno 27344 bound_to 17268
  244.0592  352.0127 -108.9982 LP  0  0  0  0  0  0  0  0  0  0  0  0  # atno 27345 bound_to 17268
  242.4964  353.0670 -105.7942 LP  0  0  0  0  0  0  0  0  0  0  0  0  # atno 27346 bound_to 25921
  240.8460  353.3409 -106.2427 LP  0  0  0  0  0  0  0  0  0  0  0  0  # atno 27347 bound_to 25921

> <Gold.Score>
     Fitness  S(hb_ext) S(vdw_ext)  S(hb_int)    S(int)      intcor
     37.43       1.37      27.03       0.00      -1.11      -0.76

> <Gold.Goldscore.Fitness>
37.4294

> <Gold.Goldscore.Internal.Vdw>
-1.4558

> <Gold.Goldscore.Internal.Torsion>
-0.4228

> <Gold.Goldscore.External.Vdw>
27.0341

> <Gold.Goldscore.Internal.HBond>
0.0000

> <Gold.Goldscore.External.HBond>
1.3712

> <Gold.Goldscore.Internal.Correction>
-0.7650

> <Gold.Goldscore.Hbonds>
donor molecule, donor type, donor heavy atom, donor atom, acceptor molecule, acceptor atom, score
      P1  H 17155 17169       L1    11  0.64
      L1  H    10    23       P1 17062  0.05

> <Gold.Goldscore.Internal.Vdw.Weighted>
-1.4558

> <Gold.Goldscore.Internal.Torsion.Weighted>
-0.4228

> <Gold.Goldscore.External.Vdw.Weighted>
37.1719

> <Gold.Goldscore.Internal.HBond.Weighted>
0.0000

> <Gold.Goldscore.External.HBond.Weighted>
1.3712

> <Gold.Goldscore.Internal.Correction.Weighted>
-0.7650

> <Gold.Rescore>
     Score     S(PLP)   S(hbond)     S(cho)   S(metal)  DE(clash)   DE(tors)     intcor
     26.88     -22.28       1.74       0.00       0.00       0.00       0.30       ----

> <Gold.PLP.Fitness>
26.8833

> <Gold.PLP.PLP>
-22.2764

> <Gold.PLP.part.hbond>
-4.2650

> <Gold.PLP.part.metal>
0.0000

> <Gold.PLP.part.buried>
12.5067

> <Gold.PLP.part.nonpolar>
-32.2052

> <Gold.PLP.part.repulsive>
2.5513

> <Gold.PLP.ligand.clash>
0.0000

> <Gold.PLP.ligand.torsion>
0.3005

> <Gold.PLP.Chemscore.Hbond>
1.7360

> <Gold.PLP.Chemscore.CHOScore>
0.0000

> <Gold.PLP.Chemscore.Metal>
0.0000

> <Gold.Chemscore.Hbonds>
donor molecule, donor type, donor heavy atom, donor atom, acceptor molecule, acceptor atom, score
      L1  H    10    23       P1 17062  0.06
      P1  H 17155 17169       L1    11  0.11

> <Gold.PLP.Chemscore.Internal.Correction>
   9.000000E+99

