#       Name:                CT1002167954
#       Creating user name   hitesit
#       Creation time:       Sun Apr 16 02:30:52 2023


#       File generated by GOLD software.
#

@<TRIPOS>MOLECULE
CT1002167954|ligand_prepared|mol2|1|dock3
    29    30     1
SMALL
NO_CHARGES


@<TRIPOS>ATOM
      1 C1         236.8348 352.9345 -113.5298 C.3            1 RES1               0.0000
      2 C2         237.8972 354.0067 -113.8469 C.ar           1 RES1               0.0000
      3 C3         236.3817 352.3699 -114.8730 C.2            1 RES1               0.0000
      4 C4         237.5154 351.9144 -112.6238 C.2            1 RES1               0.0000
      5 C5         235.5959 353.4837 -112.7847 C.3            1 RES1               0.0000
      6 C6         239.2315 353.8043 -113.5073 C.ar           1 RES1               0.0000
      7 C7         237.5592 355.1999 -114.4799 C.ar           1 RES1               0.0000
      8 N8         236.8128 351.1210 -115.2112 N.am           1 RES1               0.0000
      9 O9         235.6892 353.0261 -115.6411 O.2            1 RES1               0.0000
     10 N10        237.6964 350.6453 -113.1081 N.am           1 RES1               0.0000
     11 O11        237.9116 352.2026 -111.5012 O.2            1 RES1               0.0000
     12 C12        234.3632 352.6026 -112.9125 C.3            1 RES1               0.0000
     13 C13        240.1937 354.7588 -113.7928 C.ar           1 RES1               0.0000
     14 C14        238.5229 356.1532 -114.7643 C.ar           1 RES1               0.0000
     15 C15        237.4036 350.2108 -114.3721 C.2            1 RES1               0.0000
     16 C16        239.8402 355.9336 -114.4218 C.ar           1 RES1               0.0000
     17 O17        237.6459 349.0684 -114.7510 O.2            1 RES1               0.0000
     18 H18        235.8430 353.5931 -111.7215 H              1 RES1               0.0000
     19 H19        235.3601 354.4801 -113.1784 H              1 RES1               0.0000
     20 H20        239.5281 352.8871 -113.0096 H              1 RES1               0.0000
     21 H21        236.5289 355.3946 -114.7576 H              1 RES1               0.0000
     22 H22        236.6842 350.8378 -116.1774 H              1 RES1               0.0000
     23 H23        238.0853 349.9612 -112.4670 H              1 RES1               0.0000
     24 H24        233.5233 353.0336 -112.3717 H              1 RES1               0.0000
     25 H25        234.0740 352.4928 -113.9557 H              1 RES1               0.0000
     26 H26        234.5541 351.6110 -112.5075 H              1 RES1               0.0000
     27 H27        241.2288 354.5818 -113.5199 H              1 RES1               0.0000
     28 H28        238.2401 357.0766 -115.2589 H              1 RES1               0.0000
     29 H29        240.5941 356.6810 -114.6456 H              1 RES1               0.0000
@<TRIPOS>BOND
    1    1    2 1     
    2    1    3 1     
    3    1    4 1     
    4    1    5 1     
    5    2    6 ar    
    6    2    7 ar    
    7    3    8 1     
    8    3    9 2     
    9    4   10 1     
   10    4   11 2     
   11    5   12 1     
   12    5   18 1     
   13    5   19 1     
   14    6   13 ar    
   15    6   20 1     
   16    7   14 ar    
   17    7   21 1     
   18    8   15 1     
   19    8   22 1     
   20   10   15 1     
   21   10   23 1     
   22   12   24 1     
   23   12   25 1     
   24   12   26 1     
   25   13   16 ar    
   26   13   27 1     
   27   14   16 ar    
   28   14   28 1     
   29   15   17 2     
   30   16   29 1     
@<TRIPOS>SUBSTRUCTURE
      1 RES1           1
@<TRIPOS>SET
DONOR_HYDROGENS      STATIC     ATOMS    <user>   **** ""
2 22 23
ATOM$RED        STATIC     ATOMS    COLORGROUP SYSTEM
2 22 23
@<TRIPOS>COMMENT
> <Gold.Version>
2022.3.0

> <Gold.Id.Protein>
unknown|7ts3_clean|pdb

> <Gold.Protein.RotatedTorsions>
[ 17121 17111 17112 17113 ] final  105.94 input   42.04 | X-H torsion
[ 17169 17155 17156 17157 ] final  134.56 input  103.88 | X-H torsion
[ 18263 18249 18250 18251 ] final  112.53 input   32.50 | X-H torsion
[ 18345 18297 18298 18299 ] final  110.69 input   28.05 | X-H torsion
[ 18431 18389 18390 18391 ] final  -61.44 input   99.92 | X-H torsion
[ 18439 18400 18399 18397 ] final  168.48 input   59.97 | X-H torsion
[ 18499 18465 18466 18467 ] final  -31.04 input   91.01 | X-H torsion
[ 18649 18619 18620 18621 ] final   -0.71 input  125.07 | X-H torsion
[ 7445 7437 7438 7439 ] final  166.07 input   89.33 | X-H torsion
[ 18231 18209 18210 18211 ] final  176.75 input   30.89 | X-H torsion
[ 7393 7379 7380 7381 ] final -162.10 input   98.82 | X-H torsion
[ 18539 18525 18526 18527 ] final  -84.16 input  129.79 | X-H torsion
[ 18235 18214 18213 18210 ] final   -4.73 input   60.00 | X-H torsion
[ 18179 18139 18140 18141 ] final  109.01 input   56.47 | X-H torsion
[ 17229 17217 17218 17219 ] final   -3.71 input   53.60 | X-H torsion
[ 10082 10067 10068 10069 ] final   92.52 input   26.25 | X-H torsion
[ 16913 16892 16891 16889 ] final  140.03 input   59.99 | X-H torsion
[ 11371 11350 11349 11346 ] final  121.75 input   59.99 | X-H torsion
[ 11429 11395 11396 11397 ] final  120.28 input   50.42 | X-H torsion
[ 26033 25995 25994 25992 ] final   95.47 input   60.01 | X-H torsion
[ 17337 17321 17322 17323 ] final -116.43 input   80.81 | X-H torsion
[ 17281 17265 17266 17267 ] final  170.40 input   66.93 | X-H torsion
[ 22383 22351 22352 22353 ] final -138.23 input   47.53 | X-H torsion
[ 27271 16988 16987 16986 ] final -107.93 input   -0.00 | X-H torsion
[ 27274 17062 17061 17060 ] final  -97.52 input   -0.00 | X-H torsion
[ 27278 18142 18141 18140 ] final   96.81 input    0.00 | X-H torsion
[ 27281 18252 18251 18250 ] final  -14.51 input    0.00 | X-H torsion
[ 27284 18300 18299 18298 ] final -158.58 input   -0.00 | X-H torsion
[ 27287 18392 18391 18390 ] final  -95.89 input   -0.00 | X-H torsion
[ 27292 18468 18467 18466 ] final   56.03 input   -0.00 | X-H torsion
[ 27305 18212 18211 18210 ] final  -37.40 input   -0.00 | X-H torsion
[ 27308 16952 16951 16950 ] final  -39.99 input   -0.00 | X-H torsion
[ 27313 17114 17113 17112 ] final  -39.90 input   -0.00 | X-H torsion
[ 27315 17158 17157 17156 ] final -140.43 input   -0.00 | X-H torsion
[ 27320 10070 10069 10068 ] final  -38.86 input   -0.00 | X-H torsion
[ 27326 11348 11347 11346 ] final -115.09 input   -0.00 | X-H torsion
[ 27341 7254 7253 7252 ] final  129.74 input    0.00 | X-H torsion
[ 27344 17268 17267 17266 ] final -122.55 input   -0.00 | X-H torsion
[ 27346 25921 25920 25919 ] final  -79.48 input    0.00 | X-H torsion

> <Gold.Protein.ActiveResidues>
 MET341  HIS342  TRP414  ARG419  CYS420  VAL421  GLY422  LEU429  LEU460  SER462 
 ALA463  ILE464  SER482  GLN483  ARG486  TYR567  GLY568  LEU569  PRO570  ALA571 
 VAL572  SER573  ASN574  MET575  PRO588  PHE589  SER590  GLY591  TRP592  TYR593 
 MET594  GLY595  GLU597  ILE598  ARG601  ASP602  ARG608  ILE653  VAL654  TRP683 
 PHE709  GLU710  TYR711  HEM801  H4B802 

> <Gold.Protein.RotatedAtoms>
  230.0338  361.1410 -112.0173 H   0  0  0  0  0  0  0  0  0  0  0  0  # atno 7393 bound_to 7379
  228.0626  359.0360 -113.7987 H   0  0  0  0  0  0  0  0  0  0  0  0  # atno 7445 bound_to 7437
  229.2163  345.9741 -114.4148 H   0  0  0  0  0  0  0  0  0  0  0  0  # atno 10082 bound_to 10067
  244.2779  352.8240 -118.1056 H   0  0  0  0  0  0  0  0  0  0  0  0  # atno 11371 bound_to 11350
  242.9112  350.8035 -117.7789 H   0  0  0  0  0  0  0  0  0  0  0  0  # atno 11429 bound_to 11395
  240.2631  352.3219 -122.9562 H   0  0  0  0  0  0  0  0  0  0  0  0  # atno 16913 bound_to 16892
  236.2279  349.4344 -119.2102 H   0  0  0  0  0  0  0  0  0  0  0  0  # atno 17121 bound_to 17111
  236.3787  350.4614 -115.3727 H   0  0  0  0  0  0  0  0  0  0  0  0  # atno 17169 bound_to 17155
  240.5802  350.0123 -113.5842 H   0  0  0  0  0  0  0  0  0  0  0  0  # atno 17229 bound_to 17217
  242.4343  349.2324 -113.0397 H   0  0  0  0  0  0  0  0  0  0  0  0  # atno 17281 bound_to 17265
  242.8735  350.7885 -110.0238 H   0  0  0  0  0  0  0  0  0  0  0  0  # atno 17337 bound_to 17321
  236.4200  347.6775 -111.4848 H   0  0  0  0  0  0  0  0  0  0  0  0  # atno 18179 bound_to 18139
  233.8610  347.6576 -113.9356 H   0  0  0  0  0  0  0  0  0  0  0  0  # atno 18231 bound_to 18209
  231.5580  346.3668 -115.3294 H   0  0  0  0  0  0  0  0  0  0  0  0  # atno 18235 bound_to 18214
  231.4009  350.4407 -115.8903 H   0  0  0  0  0  0  0  0  0  0  0  0  # atno 18263 bound_to 18249
  228.2068  351.4780 -118.0724 H   0  0  0  0  0  0  0  0  0  0  0  0  # atno 18345 bound_to 18297
  229.1421  353.7112 -120.4982 H   0  0  0  0  0  0  0  0  0  0  0  0  # atno 18431 bound_to 18389
  236.9047  354.5168 -122.1358 H   0  0  0  0  0  0  0  0  0  0  0  0  # atno 18439 bound_to 18400
  230.0851  356.8218 -121.8229 H   0  0  0  0  0  0  0  0  0  0  0  0  # atno 18499 bound_to 18465
  229.6171  358.7731 -123.2587 H   0  0  0  0  0  0  0  0  0  0  0  0  # atno 18539 bound_to 18525
  233.2397  361.0321 -123.8542 H   0  0  0  0  0  0  0  0  0  0  0  0  # atno 18649 bound_to 18619
  224.9548  356.0003 -123.7546 H   0  0  0  0  0  0  0  0  0  0  0  0  # atno 22383 bound_to 22351
  241.2602  360.3246 -110.4199 H   0  0  0  0  0  0  0  0  0  0  0  0  # atno 26033 bound_to 25995
  235.7474  348.4777 -120.7133 LP  0  0  0  0  0  0  0  0  0  0  0  0  # atno 27271 bound_to 16988
  235.8244  349.0418 -122.3491 LP  0  0  0  0  0  0  0  0  0  0  0  0  # atno 27272 bound_to 16988
  233.6997  350.6085 -117.0310 LP  0  0  0  0  0  0  0  0  0  0  0  0  # atno 27274 bound_to 17062
  233.2023  349.2832 -118.0290 LP  0  0  0  0  0  0  0  0  0  0  0  0  # atno 27275 bound_to 17062
  235.7090  350.6500 -118.0727 LP  0  0  0  0  0  0  0  0  0  0  0  0  # atno 27276 bound_to 17111
  237.2940  349.0260 -115.7646 LP  0  0  0  0  0  0  0  0  0  0  0  0  # atno 27277 bound_to 17155
  235.5837  348.2752 -114.9556 LP  0  0  0  0  0  0  0  0  0  0  0  0  # atno 27278 bound_to 18142
  235.2994  349.6946 -114.0044 LP  0  0  0  0  0  0  0  0  0  0  0  0  # atno 27279 bound_to 18142
  231.1937  348.9250 -116.7434 LP  0  0  0  0  0  0  0  0  0  0  0  0  # atno 27280 bound_to 18249
  229.8791  348.6381 -118.7434 LP  0  0  0  0  0  0  0  0  0  0  0  0  # atno 27281 bound_to 18252
  229.1509  349.6077 -119.9802 LP  0  0  0  0  0  0  0  0  0  0  0  0  # atno 27282 bound_to 18252
  229.9464  351.6132 -118.1785 LP  0  0  0  0  0  0  0  0  0  0  0  0  # atno 27283 bound_to 18297
  229.3080  355.2233 -119.2879 LP  0  0  0  0  0  0  0  0  0  0  0  0  # atno 27284 bound_to 18300
  229.4723  353.8419 -118.2560 LP  0  0  0  0  0  0  0  0  0  0  0  0  # atno 27285 bound_to 18300
  229.6771  353.1836 -122.0751 LP  0  0  0  0  0  0  0  0  0  0  0  0  # atno 27286 bound_to 18389
  227.7973  356.3995 -122.8668 LP  0  0  0  0  0  0  0  0  0  0  0  0  # atno 27287 bound_to 18392
  227.3873  355.8014 -121.2938 LP  0  0  0  0  0  0  0  0  0  0  0  0  # atno 27288 bound_to 18392
  236.7652  353.6164 -123.4836 LP  0  0  0  0  0  0  0  0  0  0  0  0  # atno 27289 bound_to 18400
  236.4921  352.9475 -122.0192 LP  0  0  0  0  0  0  0  0  0  0  0  0  # atno 27290 bound_to 18400
  229.7349  357.2279 -120.1573 LP  0  0  0  0  0  0  0  0  0  0  0  0  # atno 27291 bound_to 18465
  231.6275  358.0961 -122.6213 LP  0  0  0  0  0  0  0  0  0  0  0  0  # atno 27292 bound_to 18468
  231.7971  359.7684 -123.0392 LP  0  0  0  0  0  0  0  0  0  0  0  0  # atno 27293 bound_to 18468
  232.7775  361.2131 -122.1792 LP  0  0  0  0  0  0  0  0  0  0  0  0  # atno 27294 bound_to 18619
  227.4298  359.1406 -112.1726 LP  0  0  0  0  0  0  0  0  0  0  0  0  # atno 27303 bound_to 7437
  232.2798  348.1193 -113.3505 LP  0  0  0  0  0  0  0  0  0  0  0  0  # atno 27304 bound_to 18209
  230.3845  347.6798 -114.2063 LP  0  0  0  0  0  0  0  0  0  0  0  0  # atno 27305 bound_to 18212
  229.6572  349.2515 -114.2294 LP  0  0  0  0  0  0  0  0  0  0  0  0  # atno 27306 bound_to 18212
  229.5450  359.5655 -112.5903 LP  0  0  0  0  0  0  0  0  0  0  0  0  # atno 27307 bound_to 7379
  231.0395  350.9392 -124.0718 LP  0  0  0  0  0  0  0  0  0  0  0  0  # atno 27308 bound_to 16952
  230.8993  349.7169 -122.8527 LP  0  0  0  0  0  0  0  0  0  0  0  0  # atno 27309 bound_to 16952
  228.4931  360.0618 -123.6099 LP  0  0  0  0  0  0  0  0  0  0  0  0  # atno 27310 bound_to 18525
  232.6180  345.4452 -116.1519 LP  0  0  0  0  0  0  0  0  0  0  0  0  # atno 27311 bound_to 18214
  231.3427  346.1132 -116.9227 LP  0  0  0  0  0  0  0  0  0  0  0  0  # atno 27312 bound_to 18214
  238.6154  347.7743 -117.0477 LP  0  0  0  0  0  0  0  0  0  0  0  0  # atno 27313 bound_to 17114
  239.3167  349.3076 -116.6515 LP  0  0  0  0  0  0  0  0  0  0  0  0  # atno 27314 bound_to 17114
  238.5411  348.4898 -111.9734 LP  0  0  0  0  0  0  0  0  0  0  0  0  # atno 27315 bound_to 17158
  237.2549  348.5022 -113.1334 LP  0  0  0  0  0  0  0  0  0  0  0  0  # atno 27316 bound_to 17158
  236.2458  346.4047 -112.6728 LP  0  0  0  0  0  0  0  0  0  0  0  0  # atno 27317 bound_to 18139
  239.4783  348.9584 -114.4391 LP  0  0  0  0  0  0  0  0  0  0  0  0  # atno 27318 bound_to 17217
  228.4437  346.5514 -112.9609 LP  0  0  0  0  0  0  0  0  0  0  0  0  # atno 27319 bound_to 10067
  231.6908  346.0478 -113.5196 LP  0  0  0  0  0  0  0  0  0  0  0  0  # atno 27320 bound_to 10070
  232.0823  346.5929 -111.9228 LP  0  0  0  0  0  0  0  0  0  0  0  0  # atno 27321 bound_to 10070
  238.9408  352.2785 -122.0089 LP  0  0  0  0  0  0  0  0  0  0  0  0  # atno 27322 bound_to 16892
  239.0825  353.4217 -123.1664 LP  0  0  0  0  0  0  0  0  0  0  0  0  # atno 27323 bound_to 16892
  241.5698  349.8631 -114.9087 LP  0  0  0  0  0  0  0  0  0  0  0  0  # atno 27326 bound_to 11348
  241.9496  351.5520 -114.9687 LP  0  0  0  0  0  0  0  0  0  0  0  0  # atno 27327 bound_to 11348
  244.5441  351.2211 -118.1881 LP  0  0  0  0  0  0  0  0  0  0  0  0  # atno 27333 bound_to 11350
  245.8034  352.2597 -118.1421 LP  0  0  0  0  0  0  0  0  0  0  0  0  # atno 27334 bound_to 11350
  243.2220  349.4239 -116.7425 LP  0  0  0  0  0  0  0  0  0  0  0  0  # atno 27335 bound_to 11395
  240.1741  360.2605 -109.2102 LP  0  0  0  0  0  0  0  0  0  0  0  0  # atno 27336 bound_to 25995
  240.1537  359.1321 -110.3904 LP  0  0  0  0  0  0  0  0  0  0  0  0  # atno 27337 bound_to 25995
  241.3643  349.9118 -109.9760 LP  0  0  0  0  0  0  0  0  0  0  0  0  # atno 27340 bound_to 17321
  232.9045  360.8211 -112.1180 LP  0  0  0  0  0  0  0  0  0  0  0  0  # atno 27341 bound_to 7254
  232.7979  362.5029 -111.7179 LP  0  0  0  0  0  0  0  0  0  0  0  0  # atno 27342 bound_to 7254
  241.4538  349.6365 -111.6548 LP  0  0  0  0  0  0  0  0  0  0  0  0  # atno 27343 bound_to 17265
  244.3280  350.7836 -108.4067 LP  0  0  0  0  0  0  0  0  0  0  0  0  # atno 27344 bound_to 17268
  244.7233  351.7921 -109.7583 LP  0  0  0  0  0  0  0  0  0  0  0  0  # atno 27345 bound_to 17268
  242.0896  352.8115 -105.3697 LP  0  0  0  0  0  0  0  0  0  0  0  0  # atno 27346 bound_to 25921
  241.2528  353.5965 -106.6672 LP  0  0  0  0  0  0  0  0  0  0  0  0  # atno 27347 bound_to 25921

> <Gold.Score>
     Fitness  S(hb_ext) S(vdw_ext)  S(hb_int)    S(int)      intcor
     24.40       2.19      20.53       0.00      -6.02      -0.76

> <Gold.Goldscore.Fitness>
24.4043

> <Gold.Goldscore.Internal.Vdw>
-5.7616

> <Gold.Goldscore.Internal.Torsion>
-1.0239

> <Gold.Goldscore.External.Vdw>
20.5324

> <Gold.Goldscore.Internal.HBond>
0.0000

> <Gold.Goldscore.External.HBond>
2.1928

> <Gold.Goldscore.Internal.Correction>
-0.7650

> <Gold.Goldscore.Hbonds>
donor molecule, donor type, donor heavy atom, donor atom, acceptor molecule, acceptor atom, score
      P1  H 17155 17169       L1    17  0.04
      L1  H     8    22       P1 17111  0.35

> <Gold.Goldscore.Internal.Vdw.Weighted>
-5.7616

> <Gold.Goldscore.Internal.Torsion.Weighted>
-1.0239

> <Gold.Goldscore.External.Vdw.Weighted>
28.2320

> <Gold.Goldscore.Internal.HBond.Weighted>
0.0000

> <Gold.Goldscore.External.HBond.Weighted>
2.1928

> <Gold.Goldscore.Internal.Correction.Weighted>
-0.7650

> <Gold.Rescore>
     Score     S(PLP)   S(hbond)     S(cho)   S(metal)  DE(clash)   DE(tors)     intcor
     -2.87      -0.21       0.00       0.00       0.00       1.57       0.76       ----

> <Gold.PLP.Fitness>
-2.8677

> <Gold.PLP.PLP>
-0.2150

> <Gold.PLP.part.hbond>
-1.0000

> <Gold.PLP.part.metal>
0.0000

> <Gold.PLP.part.buried>
22.8329

> <Gold.PLP.part.nonpolar>
-27.3217

> <Gold.PLP.part.repulsive>
7.2250

> <Gold.PLP.ligand.clash>
1.5654

> <Gold.PLP.ligand.torsion>
0.7587

> <Gold.PLP.Chemscore.Hbond>
0.0000

> <Gold.PLP.Chemscore.CHOScore>
0.0000

> <Gold.PLP.Chemscore.Metal>
0.0000

> <Gold.PLP.Chemscore.Internal.Correction>
   9.000000E+99

