#       Name:                CT1002167954
#       Creating user name   hitesit
#       Creation time:       Sun Apr 16 02:22:11 2023


#       File generated by GOLD software.
#

@<TRIPOS>MOLECULE
CT1002167954|ligand_prepared|mol2|1|dock9
    29    30     1
SMALL
NO_CHARGES


@<TRIPOS>ATOM
      1 C1         -43.1416  24.9565   2.5960 C.3            1 RES1               0.0000
      2 C2         -42.9763  24.7206   4.1112 C.ar           1 RES1               0.0000
      3 C3         -42.9114  23.6059   1.9245 C.2            1 RES1               0.0000
      4 C4         -44.5465  25.5163   2.4022 C.2            1 RES1               0.0000
      5 C5         -42.1365  25.9747   2.0090 C.3            1 RES1               0.0000
      6 C6         -41.7169  24.5005   4.6609 C.ar           1 RES1               0.0000
      7 C7         -44.0716  24.7227   4.9708 C.ar           1 RES1               0.0000
      8 N8         -44.0015  22.9518   1.4308 N.am           1 RES1               0.0000
      9 O9         -41.7957  23.1042   1.8641 O.2            1 RES1               0.0000
     10 N10        -45.4521  24.7535   1.7125 N.am           1 RES1               0.0000
     11 O11        -44.8823  26.6038   2.8550 O.2            1 RES1               0.0000
     12 C12        -42.4227  26.3560   0.5651 C.3            1 RES1               0.0000
     13 C13        -41.5577  24.2930   6.0210 C.ar           1 RES1               0.0000
     14 C14        -43.9102  24.5148   6.3307 C.ar           1 RES1               0.0000
     15 C15        -45.2523  23.4833   1.2445 C.2            1 RES1               0.0000
     16 C16        -42.6540  24.3005   6.8568 C.ar           1 RES1               0.0000
     17 O17        -46.1334  22.8402   0.6813 O.2            1 RES1               0.0000
     18 H18        -42.1538  26.8828   2.6241 H              1 RES1               0.0000
     19 H19        -41.1272  25.5488   2.0682 H              1 RES1               0.0000
     20 H20        -40.8427  24.4887   4.0184 H              1 RES1               0.0000
     21 H21        -45.0694  24.8882   4.5790 H              1 RES1               0.0000
     22 H22        -43.8751  21.9772   1.1768 H              1 RES1               0.0000
     23 H23        -46.3592  25.1713   1.5309 H              1 RES1               0.0000
     24 H24        -41.6884  27.0722   0.2024 H              1 RES1               0.0000
     25 H25        -42.3886  25.4800  -0.0793 H              1 RES1               0.0000
     26 H26        -43.4091  26.8060   0.4733 H              1 RES1               0.0000
     27 H27        -40.5671  24.1234   6.4299 H              1 RES1               0.0000
     28 H28        -44.7759  24.5209   6.9847 H              1 RES1               0.0000
     29 H29        -42.5290  24.1383   7.9223 H              1 RES1               0.0000
@<TRIPOS>BOND
    1    1    2 1     
    2    1    3 1     
    3    1    4 1     
    4    1    5 1     
    5    2    6 ar    
    6    2    7 ar    
    7    3    8 1     
    8    3    9 2     
    9    4   10 1     
   10    4   11 2     
   11    5   12 1     
   12    5   18 1     
   13    5   19 1     
   14    6   13 ar    
   15    6   20 1     
   16    7   14 ar    
   17    7   21 1     
   18    8   15 1     
   19    8   22 1     
   20   10   15 1     
   21   10   23 1     
   22   12   24 1     
   23   12   25 1     
   24   12   26 1     
   25   13   16 ar    
   26   13   27 1     
   27   14   16 ar    
   28   14   28 1     
   29   15   17 2     
   30   16   29 1     
@<TRIPOS>SUBSTRUCTURE
      1 RES1           1
@<TRIPOS>SET
DONOR_HYDROGENS      STATIC     ATOMS    <user>   **** ""
2 22 23
ATOM$RED        STATIC     ATOMS    COLORGROUP SYSTEM
2 22 23
@<TRIPOS>COMMENT
> <Gold.Version>
2022.3.0

> <Gold.Id.Protein>
unknown|7ta6_clean|pdb

> <Gold.Protein.RotatedTorsions>
[ 12165 12063 12062 12060 ] final  -83.56 input   59.99 | X-H torsion
[ 2816 2645 2646 2647 ] final  -58.25 input  110.81 | X-H torsion
[ 17517 17490 17491 17492 ] final  100.94 input  128.41 | X-H torsion
[ 17444 17358 17359 17360 ] final  171.05 input   71.00 | X-H torsion
[ 16061 15941 15940 15938 ] final -142.20 input   60.02 | X-H torsion
[ 20694 2648 2647 2646 ] final  -40.55 input    0.00 | X-H torsion
[ 20709 17361 17360 17359 ] final  -42.00 input    0.00 | X-H torsion
[ 20712 20041 20040 20039 ] final   90.07 input    0.00 | X-H torsion

> <Gold.Protein.ActiveResidues>
 TRP28   LEU57   ILE58   TYR59   SER60   LEU94   TYR119  LEU120  GLY121  GLY122 
 VAL123  PHE124  TYR151  XCP1    LEU2    GLY3    TRP4    ILE6    ILE24   LEU25  

> <Gold.Protein.RotatedAtoms>
  -38.6160   29.8183   11.2115 H   0  0  0  0  0  0  0  0  0  0  0  0  # atno 2816 bound_to 2645
  -40.4087   22.1751    7.9280 H   0  0  0  0  0  0  0  0  0  0  0  0  # atno 12165 bound_to 12063
  -34.5313   20.5480    9.9371 H   0  0  0  0  0  0  0  0  0  0  0  0  # atno 16061 bound_to 15941
  -34.2931   27.7889    6.9906 H   0  0  0  0  0  0  0  0  0  0  0  0  # atno 17444 bound_to 17358
  -33.6448   24.6127    7.3366 H   0  0  0  0  0  0  0  0  0  0  0  0  # atno 17517 bound_to 17490
  -40.1343   30.3165    7.6545 LP  0  0  0  0  0  0  0  0  0  0  0  0  # atno 20694 bound_to 2648
  -41.4746   31.3888    7.8872 LP  0  0  0  0  0  0  0  0  0  0  0  0  # atno 20695 bound_to 2648
  -39.9280   23.6084    7.3259 LP  0  0  0  0  0  0  0  0  0  0  0  0  # atno 20700 bound_to 12063
  -39.3773   23.1034    8.7779 LP  0  0  0  0  0  0  0  0  0  0  0  0  # atno 20701 bound_to 12063
  -39.8492   29.0063   12.1514 LP  0  0  0  0  0  0  0  0  0  0  0  0  # atno 20708 bound_to 2645
  -34.6854   25.6158   10.8095 LP  0  0  0  0  0  0  0  0  0  0  0  0  # atno 20709 bound_to 17361
  -35.2796   24.0369   10.4170 LP  0  0  0  0  0  0  0  0  0  0  0  0  # atno 20710 bound_to 17361
  -34.8745   24.7315    8.5740 LP  0  0  0  0  0  0  0  0  0  0  0  0  # atno 20711 bound_to 17490
  -41.1469   26.9014   12.7567 LP  0  0  0  0  0  0  0  0  0  0  0  0  # atno 20712 bound_to 20041
  -40.1429   28.2590   13.1425 LP  0  0  0  0  0  0  0  0  0  0  0  0  # atno 20713 bound_to 20041
  -33.0008   26.5969    7.3901 LP  0  0  0  0  0  0  0  0  0  0  0  0  # atno 20714 bound_to 17358

> <Gold.Score>
     Fitness  S(hb_ext) S(vdw_ext)  S(hb_int)    S(int)      intcor
     24.30       0.00      18.73       0.00      -1.46      -0.76

> <Gold.Goldscore.Fitness>
24.2951

> <Gold.Goldscore.Internal.Vdw>
-1.7503

> <Gold.Goldscore.Internal.Torsion>
-0.4705

> <Gold.Goldscore.External.Vdw>
18.7327

> <Gold.Goldscore.Internal.HBond>
0.0000

> <Gold.Goldscore.External.HBond>
0.0000

> <Gold.Goldscore.Internal.Correction>
-0.7585

> <Gold.Goldscore.Internal.Vdw.Weighted>
-1.7503

> <Gold.Goldscore.Internal.Torsion.Weighted>
-0.4705

> <Gold.Goldscore.External.Vdw.Weighted>
25.7574

> <Gold.Goldscore.Internal.HBond.Weighted>
0.0000

> <Gold.Goldscore.External.HBond.Weighted>
0.0000

> <Gold.Goldscore.Internal.Correction.Weighted>
-0.7585

> <Gold.Rescore>
     Score     S(PLP)   S(hbond)     S(cho)   S(metal)  DE(clash)   DE(tors)     intcor
     21.43     -23.04       0.00       0.00       0.00       1.42       0.10       ----

> <Gold.PLP.Fitness>
21.4272

> <Gold.PLP.PLP>
-23.0384

> <Gold.PLP.part.hbond>
0.0000

> <Gold.PLP.part.metal>
0.0000

> <Gold.PLP.part.buried>
-1.9658

> <Gold.PLP.part.nonpolar>
-22.4455

> <Gold.PLP.part.repulsive>
0.0898

> <Gold.PLP.ligand.clash>
1.4209

> <Gold.PLP.ligand.torsion>
0.0952

> <Gold.PLP.Chemscore.Hbond>
0.0000

> <Gold.PLP.Chemscore.CHOScore>
0.0000

> <Gold.PLP.Chemscore.Metal>
0.0000

> <Gold.PLP.Chemscore.Internal.Correction>
   9.000000E+99

