#       Name:                CT1002167954
#       Creating user name   hitesit
#       Creation time:       Sun Apr 16 02:22:09 2023


#       File generated by GOLD software.
#

@<TRIPOS>MOLECULE
CT1002167954|ligand_prepared|mol2|1|dock6
    29    30     1
SMALL
NO_CHARGES


@<TRIPOS>ATOM
      1 C1         -44.8959  25.5000   3.1469 C.3            1 RES1               0.0000
      2 C2         -43.8211  25.1715   4.2031 C.ar           1 RES1               0.0000
      3 C3         -44.5453  26.8779   2.5931 C.2            1 RES1               0.0000
      4 C4         -44.8350  24.3804   2.1137 C.2            1 RES1               0.0000
      5 C5         -46.3340  25.5497   3.7133 C.3            1 RES1               0.0000
      6 C6         -42.4684  25.2507   3.8860 C.ar           1 RES1               0.0000
      7 C7         -44.1662  24.7912   5.4973 C.ar           1 RES1               0.0000
      8 N8         -44.0139  26.9382   1.3385 N.am           1 RES1               0.0000
      9 O9         -44.6960  27.8928   3.2621 O.2            1 RES1               0.0000
     10 N10        -44.4329  24.7001   0.8433 N.am           1 RES1               0.0000
     11 O11        -45.1155  23.2212   2.3926 O.2            1 RES1               0.0000
     12 C12        -47.3774  25.9917   2.6994 C.3            1 RES1               0.0000
     13 C13        -41.4958  24.9630   4.8292 C.ar           1 RES1               0.0000
     14 C14        -43.1920  24.5036   6.4389 C.ar           1 RES1               0.0000
     15 C15        -43.9902  25.9225   0.4168 C.2            1 RES1               0.0000
     16 C16        -41.8569  24.5897   6.1063 C.ar           1 RES1               0.0000
     17 O17        -43.5932  26.1191  -0.7281 O.2            1 RES1               0.0000
     18 H18        -46.6021  24.5527   4.0841 H              1 RES1               0.0000
     19 H19        -46.3544  26.2408   4.5650 H              1 RES1               0.0000
     20 H20        -42.1652  25.5404   2.8854 H              1 RES1               0.0000
     21 H21        -45.2104  24.7157   5.7811 H              1 RES1               0.0000
     22 H22        -43.5953  27.8199   1.0599 H              1 RES1               0.0000
     23 H23        -44.4670  23.9581   0.1515 H              1 RES1               0.0000
     24 H24        -48.3683  26.0092   3.1483 H              1 RES1               0.0000
     25 H25        -47.1559  26.9901   2.3282 H              1 RES1               0.0000
     26 H26        -47.4021  25.3120   1.8501 H              1 RES1               0.0000
     27 H27        -40.4464  25.0309   4.5620 H              1 RES1               0.0000
     28 H28        -43.4808  24.2096   7.4426 H              1 RES1               0.0000
     29 H29        -41.0948  24.3647   6.8451 H              1 RES1               0.0000
@<TRIPOS>BOND
    1    1    2 1     
    2    1    3 1     
    3    1    4 1     
    4    1    5 1     
    5    2    6 ar    
    6    2    7 ar    
    7    3    8 1     
    8    3    9 2     
    9    4   10 1     
   10    4   11 2     
   11    5   12 1     
   12    5   18 1     
   13    5   19 1     
   14    6   13 ar    
   15    6   20 1     
   16    7   14 ar    
   17    7   21 1     
   18    8   15 1     
   19    8   22 1     
   20   10   15 1     
   21   10   23 1     
   22   12   24 1     
   23   12   25 1     
   24   12   26 1     
   25   13   16 ar    
   26   13   27 1     
   27   14   16 ar    
   28   14   28 1     
   29   15   17 2     
   30   16   29 1     
@<TRIPOS>SUBSTRUCTURE
      1 RES1           1
@<TRIPOS>SET
DONOR_HYDROGENS      STATIC     ATOMS    <user>   **** ""
2 22 23
ATOM$RED        STATIC     ATOMS    COLORGROUP SYSTEM
2 22 23
@<TRIPOS>COMMENT
> <Gold.Version>
2022.3.0

> <Gold.Id.Protein>
unknown|7ta6_clean|pdb

> <Gold.Protein.RotatedTorsions>
[ 12165 12063 12062 12060 ] final -102.56 input   59.99 | X-H torsion
[ 2816 2645 2646 2647 ] final -114.59 input  110.81 | X-H torsion
[ 17517 17490 17491 17492 ] final  -36.37 input  128.41 | X-H torsion
[ 17444 17358 17359 17360 ] final  -16.40 input   71.00 | X-H torsion
[ 16061 15941 15940 15938 ] final   67.00 input   60.02 | X-H torsion
[ 20694 2648 2647 2646 ] final   28.70 input    0.00 | X-H torsion
[ 20709 17361 17360 17359 ] final   18.32 input    0.00 | X-H torsion
[ 20712 20041 20040 20039 ] final   11.43 input    0.00 | X-H torsion

> <Gold.Protein.ActiveResidues>
 TRP28   LEU57   ILE58   TYR59   SER60   LEU94   TYR119  LEU120  GLY121  GLY122 
 VAL123  PHE124  TYR151  XCP1    LEU2    GLY3    TRP4    ILE6    ILE24   LEU25  

> <Gold.Protein.RotatedAtoms>
  -38.5936   28.9803   11.2549 H   0  0  0  0  0  0  0  0  0  0  0  0  # atno 2816 bound_to 2645
  -40.4840   22.3121    7.6615 H   0  0  0  0  0  0  0  0  0  0  0  0  # atno 12165 bound_to 12063
  -35.9553   21.3488   10.7211 H   0  0  0  0  0  0  0  0  0  0  0  0  # atno 16061 bound_to 15941
  -33.1007   26.4372    7.7252 H   0  0  0  0  0  0  0  0  0  0  0  0  # atno 17444 bound_to 17358
  -34.3220   24.9501    8.8036 H   0  0  0  0  0  0  0  0  0  0  0  0  # atno 17517 bound_to 17490
  -41.0756   30.0331    7.7014 LP  0  0  0  0  0  0  0  0  0  0  0  0  # atno 20694 bound_to 2648
  -40.5333   31.6722    7.8403 LP  0  0  0  0  0  0  0  0  0  0  0  0  # atno 20695 bound_to 2648
  -39.7320   23.7484    7.5228 LP  0  0  0  0  0  0  0  0  0  0  0  0  # atno 20700 bound_to 12063
  -39.4974   22.8254    8.8493 LP  0  0  0  0  0  0  0  0  0  0  0  0  # atno 20701 bound_to 12063
  -39.8709   29.8179   12.1094 LP  0  0  0  0  0  0  0  0  0  0  0  0  # atno 20708 bound_to 2645
  -35.5292   25.4977   10.6323 LP  0  0  0  0  0  0  0  0  0  0  0  0  # atno 20709 bound_to 17361
  -34.4358   24.1549   10.5941 LP  0  0  0  0  0  0  0  0  0  0  0  0  # atno 20710 bound_to 17361
  -34.2154   24.4031    7.1463 LP  0  0  0  0  0  0  0  0  0  0  0  0  # atno 20711 bound_to 17490
  -40.1076   26.9199   13.1088 LP  0  0  0  0  0  0  0  0  0  0  0  0  # atno 20712 bound_to 20041
  -41.1823   28.2404   12.7904 LP  0  0  0  0  0  0  0  0  0  0  0  0  # atno 20713 bound_to 20041
  -33.9774   27.7038    6.7884 LP  0  0  0  0  0  0  0  0  0  0  0  0  # atno 20714 bound_to 17358

> <Gold.Score>
     Fitness  S(hb_ext) S(vdw_ext)  S(hb_int)    S(int)      intcor
     25.10       0.00      18.30       0.00      -0.06      -0.76

> <Gold.Goldscore.Fitness>
25.0963

> <Gold.Goldscore.Internal.Vdw>
-0.4101

> <Gold.Goldscore.Internal.Torsion>
-0.4097

> <Gold.Goldscore.External.Vdw>
18.2964

> <Gold.Goldscore.Internal.HBond>
0.0000

> <Gold.Goldscore.External.HBond>
0.0000

> <Gold.Goldscore.Internal.Correction>
-0.7585

> <Gold.Goldscore.Internal.Vdw.Weighted>
-0.4101

> <Gold.Goldscore.Internal.Torsion.Weighted>
-0.4097

> <Gold.Goldscore.External.Vdw.Weighted>
25.1575

> <Gold.Goldscore.Internal.HBond.Weighted>
0.0000

> <Gold.Goldscore.External.HBond.Weighted>
0.0000

> <Gold.Goldscore.Internal.Correction.Weighted>
-0.7585

> <Gold.Rescore>
     Score     S(PLP)   S(hbond)     S(cho)   S(metal)  DE(clash)   DE(tors)     intcor
     25.03     -25.24       0.00       0.00       0.00       0.00       0.11       ----

> <Gold.PLP.Fitness>
25.0280

> <Gold.PLP.PLP>
-25.2433

> <Gold.PLP.part.hbond>
0.0000

> <Gold.PLP.part.metal>
0.0000

> <Gold.PLP.part.buried>
-2.7072

> <Gold.PLP.part.nonpolar>
-23.8683

> <Gold.PLP.part.repulsive>
0.0933

> <Gold.PLP.ligand.clash>
0.0000

> <Gold.PLP.ligand.torsion>
0.1076

> <Gold.PLP.Chemscore.Hbond>
0.0000

> <Gold.PLP.Chemscore.CHOScore>
0.0000

> <Gold.PLP.Chemscore.Metal>
0.0000

> <Gold.PLP.Chemscore.Internal.Correction>
   9.000000E+99

