#       Name:                CT1002167954
#       Creating user name   hitesit
#       Creation time:       Sun Apr 16 02:22:06 2023


#       File generated by GOLD software.
#

@<TRIPOS>MOLECULE
CT1002167954|ligand_prepared|mol2|1|dock2
    29    30     1
SMALL
NO_CHARGES


@<TRIPOS>ATOM
      1 C1         -41.0537  25.2211   3.1342 C.3            1 RES1               0.0000
      2 C2         -42.0483  25.0106   4.2940 C.ar           1 RES1               0.0000
      3 C3         -39.9880  26.1822   3.6527 C.2            1 RES1               0.0000
      4 C4         -40.5217  23.8388   2.7723 C.2            1 RES1               0.0000
      5 C5         -41.6929  25.8339   1.8663 C.3            1 RES1               0.0000
      6 C6         -41.5941  24.8898   5.6039 C.ar           1 RES1               0.0000
      7 C7         -43.4207  24.9381   4.0704 C.ar           1 RES1               0.0000
      8 N8         -38.7600  25.6660   3.9451 N.am           1 RES1               0.0000
      9 O9         -40.2332  27.3676   3.8398 O.2            1 RES1               0.0000
     10 N10        -39.1930  23.5847   2.9907 N.am           1 RES1               0.0000
     11 O11        -41.2447  22.9619   2.3155 O.2            1 RES1               0.0000
     12 C12        -40.6828  26.2319   0.8016 C.3            1 RES1               0.0000
     13 C13        -42.4799  24.7060   6.6527 C.ar           1 RES1               0.0000
     14 C14        -44.3048  24.7541   5.1207 C.ar           1 RES1               0.0000
     15 C15        -38.2947  24.4256   3.5893 C.2            1 RES1               0.0000
     16 C16        -43.8357  24.6385   6.4119 C.ar           1 RES1               0.0000
     17 O17        -37.1286  24.1050   3.8007 O.2            1 RES1               0.0000
     18 H18        -42.3914  25.1059   1.4358 H              1 RES1               0.0000
     19 H19        -42.2694  26.7214   2.1553 H              1 RES1               0.0000
     20 H20        -40.5305  24.9379   5.8124 H              1 RES1               0.0000
     21 H21        -43.8123  25.0254   3.0626 H              1 RES1               0.0000
     22 H22        -38.1294  26.2568   4.4775 H              1 RES1               0.0000
     23 H23        -38.8409  22.6855   2.6780 H              1 RES1               0.0000
     24 H24        -41.1838  26.6561  -0.0660 H              1 RES1               0.0000
     25 H25        -39.9874  26.9741   1.1879 H              1 RES1               0.0000
     26 H26        -40.1086  25.3682   0.4727 H              1 RES1               0.0000
     27 H27        -42.1056  24.6143   7.6669 H              1 RES1               0.0000
     28 H28        -45.3709  24.7009   4.9264 H              1 RES1               0.0000
     29 H29        -44.5294  24.4950   7.2337 H              1 RES1               0.0000
@<TRIPOS>BOND
    1    1    2 1     
    2    1    3 1     
    3    1    4 1     
    4    1    5 1     
    5    2    6 ar    
    6    2    7 ar    
    7    3    8 1     
    8    3    9 2     
    9    4   10 1     
   10    4   11 2     
   11    5   12 1     
   12    5   18 1     
   13    5   19 1     
   14    6   13 ar    
   15    6   20 1     
   16    7   14 ar    
   17    7   21 1     
   18    8   15 1     
   19    8   22 1     
   20   10   15 1     
   21   10   23 1     
   22   12   24 1     
   23   12   25 1     
   24   12   26 1     
   25   13   16 ar    
   26   13   27 1     
   27   14   16 ar    
   28   14   28 1     
   29   15   17 2     
   30   16   29 1     
@<TRIPOS>SUBSTRUCTURE
      1 RES1           1
@<TRIPOS>SET
DONOR_HYDROGENS      STATIC     ATOMS    <user>   **** ""
2 22 23
ATOM$RED        STATIC     ATOMS    COLORGROUP SYSTEM
2 22 23
@<TRIPOS>COMMENT
> <Gold.Version>
2022.3.0

> <Gold.Id.Protein>
unknown|7ta6_clean|pdb

> <Gold.Protein.RotatedTorsions>
[ 12165 12063 12062 12060 ] final  -94.23 input   59.99 | X-H torsion
[ 2816 2645 2646 2647 ] final  172.20 input  110.81 | X-H torsion
[ 17517 17490 17491 17492 ] final -131.30 input  128.41 | X-H torsion
[ 17444 17358 17359 17360 ] final  -50.45 input   71.00 | X-H torsion
[ 16061 15941 15940 15938 ] final  134.50 input   60.02 | X-H torsion
[ 20694 2648 2647 2646 ] final    5.36 input    0.00 | X-H torsion
[ 20709 17361 17360 17359 ] final  -64.29 input    0.00 | X-H torsion
[ 20712 20041 20040 20039 ] final -141.70 input    0.00 | X-H torsion

> <Gold.Protein.ActiveResidues>
 TRP28   LEU57   ILE58   TYR59   SER60   LEU94   TYR119  LEU120  GLY121  GLY122 
 VAL123  PHE124  TYR151  XCP1    LEU2    GLY3    TRP4    ILE6    ILE24   LEU25  

> <Gold.Protein.RotatedAtoms>
  -39.3683   28.5366   11.8270 H   0  0  0  0  0  0  0  0  0  0  0  0  # atno 2816 bound_to 2645
  -40.4584   22.2423    7.7753 H   0  0  0  0  0  0  0  0  0  0  0  0  # atno 12165 bound_to 12063
  -34.9216   21.3177   10.8338 H   0  0  0  0  0  0  0  0  0  0  0  0  # atno 16061 bound_to 15941
  -33.0803   26.9155    8.0364 H   0  0  0  0  0  0  0  0  0  0  0  0  # atno 17444 bound_to 17358
  -35.1152   24.4184    7.9128 H   0  0  0  0  0  0  0  0  0  0  0  0  # atno 17517 bound_to 17490
  -40.7288   29.9961    7.6682 LP  0  0  0  0  0  0  0  0  0  0  0  0  # atno 20694 bound_to 2648
  -40.8801   31.7092    7.8734 LP  0  0  0  0  0  0  0  0  0  0  0  0  # atno 20695 bound_to 2648
  -39.8168   23.6969    7.4285 LP  0  0  0  0  0  0  0  0  0  0  0  0  # atno 20700 bound_to 12063
  -39.4383   22.9473    8.8290 LP  0  0  0  0  0  0  0  0  0  0  0  0  # atno 20701 bound_to 12063
  -39.1206   30.2478   11.5552 LP  0  0  0  0  0  0  0  0  0  0  0  0  # atno 20708 bound_to 2645
  -34.4047   25.4343   10.8289 LP  0  0  0  0  0  0  0  0  0  0  0  0  # atno 20709 bound_to 17361
  -35.5603   24.2183   10.3976 LP  0  0  0  0  0  0  0  0  0  0  0  0  # atno 20710 bound_to 17361
  -33.4434   24.9206    8.0132 LP  0  0  0  0  0  0  0  0  0  0  0  0  # atno 20711 bound_to 17490
  -40.8440   28.4221   12.9110 LP  0  0  0  0  0  0  0  0  0  0  0  0  # atno 20712 bound_to 20041
  -40.4458   26.7382   12.9882 LP  0  0  0  0  0  0  0  0  0  0  0  0  # atno 20713 bound_to 20041
  -33.9940   27.3121    6.5336 LP  0  0  0  0  0  0  0  0  0  0  0  0  # atno 20714 bound_to 17358

> <Gold.Score>
     Fitness  S(hb_ext) S(vdw_ext)  S(hb_int)    S(int)      intcor
     27.47       0.00      20.15       0.00      -0.24      -0.79

> <Gold.Goldscore.Fitness>
27.4696

> <Gold.Goldscore.Internal.Vdw>
-0.5427

> <Gold.Goldscore.Internal.Torsion>
-0.4868

> <Gold.Goldscore.External.Vdw>
20.1540

> <Gold.Goldscore.Internal.HBond>
0.0000

> <Gold.Goldscore.External.HBond>
0.0000

> <Gold.Goldscore.Internal.Correction>
-0.7872

> <Gold.Goldscore.Internal.Vdw.Weighted>
-0.5427

> <Gold.Goldscore.Internal.Torsion.Weighted>
-0.4868

> <Gold.Goldscore.External.Vdw.Weighted>
27.7117

> <Gold.Goldscore.Internal.HBond.Weighted>
0.0000

> <Gold.Goldscore.External.HBond.Weighted>
0.0000

> <Gold.Goldscore.Internal.Correction.Weighted>
-0.7872

> <Gold.Rescore>
     Score     S(PLP)   S(hbond)     S(cho)   S(metal)  DE(clash)   DE(tors)     intcor
     26.48     -26.55       0.00       0.00       0.00       0.00       0.03       ----

> <Gold.PLP.Fitness>
26.4838

> <Gold.PLP.PLP>
-26.5477

> <Gold.PLP.part.hbond>
0.0000

> <Gold.PLP.part.metal>
0.0000

> <Gold.PLP.part.buried>
-3.2860

> <Gold.PLP.part.nonpolar>
-24.4906

> <Gold.PLP.part.repulsive>
0.0874

> <Gold.PLP.ligand.clash>
0.0000

> <Gold.PLP.ligand.torsion>
0.0320

> <Gold.PLP.Chemscore.Hbond>
0.0000

> <Gold.PLP.Chemscore.CHOScore>
0.0000

> <Gold.PLP.Chemscore.Metal>
0.0000

> <Gold.PLP.Chemscore.Internal.Correction>
   9.000000E+99

