#       Name:                CT1002167954
#       Creating user name   hitesit
#       Creation time:       Sun Apr 16 02:22:10 2023


#       File generated by GOLD software.
#

@<TRIPOS>MOLECULE
CT1002167954|ligand_prepared|mol2|1|dock7
    29    30     1
SMALL
NO_CHARGES


@<TRIPOS>ATOM
      1 C1         -43.9171  26.1902   2.9849 C.3            1 RES1               0.0000
      2 C2         -43.5164  25.4254   4.2629 C.ar           1 RES1               0.0000
      3 C3         -43.7312  27.6723   3.2964 C.2            1 RES1               0.0000
      4 C4         -43.0114  25.6695   1.8744 C.2            1 RES1               0.0000
      5 C5         -45.3839  25.9594   2.5527 C.3            1 RES1               0.0000
      6 C6         -42.1758  25.2182   4.5736 C.ar           1 RES1               0.0000
      7 C7         -44.4741  24.9244   5.1405 C.ar           1 RES1               0.0000
      8 N8         -42.6622  28.3066   2.7354 N.am           1 RES1               0.0000
      9 O9         -44.4884  28.2658   4.0545 O.2            1 RES1               0.0000
     10 N10        -42.1108  26.5403   1.3190 N.am           1 RES1               0.0000
     11 O11        -43.0580  24.5085   1.4868 O.2            1 RES1               0.0000
     12 C12        -45.6935  26.4501   1.1472 C.3            1 RES1               0.0000
     13 C13        -41.8059  24.5374   5.7217 C.ar           1 RES1               0.0000
     14 C14        -44.1021  24.2436   6.2880 C.ar           1 RES1               0.0000
     15 C15        -41.8741  27.8268   1.7203 C.2            1 RES1               0.0000
     16 C16        -42.7686  24.0501   6.5798 C.ar           1 RES1               0.0000
     17 O17        -41.0089  28.5306   1.2072 O.2            1 RES1               0.0000
     18 H18        -45.6037  24.8861   2.6084 H              1 RES1               0.0000
     19 H19        -46.0457  26.4742   3.2601 H              1 RES1               0.0000
     20 H20        -41.4041  25.5923   3.9091 H              1 RES1               0.0000
     21 H21        -45.5292  25.0639   4.9307 H              1 RES1               0.0000
     22 H22        -42.4270  29.2223   3.1047 H              1 RES1               0.0000
     23 H23        -41.5666  26.1978   0.5336 H              1 RES1               0.0000
     24 H24        -46.7352  26.2640   0.8943 H              1 RES1               0.0000
     25 H25        -45.5100  27.5192   1.0627 H              1 RES1               0.0000
     26 H26        -45.0707  25.9405   0.4148 H              1 RES1               0.0000
     27 H27        -40.7551  24.3865   5.9461 H              1 RES1               0.0000
     28 H28        -44.8632  23.8613   6.9601 H              1 RES1               0.0000
     29 H29        -42.4786  23.5171   7.4793 H              1 RES1               0.0000
@<TRIPOS>BOND
    1    1    2 1     
    2    1    3 1     
    3    1    4 1     
    4    1    5 1     
    5    2    6 ar    
    6    2    7 ar    
    7    3    8 1     
    8    3    9 2     
    9    4   10 1     
   10    4   11 2     
   11    5   12 1     
   12    5   18 1     
   13    5   19 1     
   14    6   13 ar    
   15    6   20 1     
   16    7   14 ar    
   17    7   21 1     
   18    8   15 1     
   19    8   22 1     
   20   10   15 1     
   21   10   23 1     
   22   12   24 1     
   23   12   25 1     
   24   12   26 1     
   25   13   16 ar    
   26   13   27 1     
   27   14   16 ar    
   28   14   28 1     
   29   15   17 2     
   30   16   29 1     
@<TRIPOS>SUBSTRUCTURE
      1 RES1           1
@<TRIPOS>SET
DONOR_HYDROGENS      STATIC     ATOMS    <user>   **** ""
2 22 23
ATOM$RED        STATIC     ATOMS    COLORGROUP SYSTEM
2 22 23
@<TRIPOS>COMMENT
> <Gold.Version>
2022.3.0

> <Gold.Id.Protein>
unknown|7ta6_clean|pdb

> <Gold.Protein.RotatedTorsions>
[ 12165 12063 12062 12060 ] final   92.03 input   59.99 | X-H torsion
[ 2816 2645 2646 2647 ] final  165.25 input  110.81 | X-H torsion
[ 17517 17490 17491 17492 ] final  132.78 input  128.41 | X-H torsion
[ 17444 17358 17359 17360 ] final -176.77 input   71.00 | X-H torsion
[ 16061 15941 15940 15938 ] final  139.93 input   60.02 | X-H torsion
[ 20694 2648 2647 2646 ] final    1.90 input    0.00 | X-H torsion
[ 20709 17361 17360 17359 ] final -179.27 input    0.00 | X-H torsion
[ 20712 20041 20040 20039 ] final  146.22 input    0.00 | X-H torsion

> <Gold.Protein.ActiveResidues>
 TRP28   LEU57   ILE58   TYR59   SER60   LEU94   TYR119  LEU120  GLY121  GLY122 
 VAL123  PHE124  TYR151  XCP1    LEU2    GLY3    TRP4    ILE6    ILE24   LEU25  

> <Gold.Protein.RotatedAtoms>
  -39.4544   28.5649   11.8851 H   0  0  0  0  0  0  0  0  0  0  0  0  # atno 2816 bound_to 2645
  -39.3782   23.7198    8.1553 H   0  0  0  0  0  0  0  0  0  0  0  0  # atno 12165 bound_to 12063
  -34.8472   21.2822   10.8008 H   0  0  0  0  0  0  0  0  0  0  0  0  # atno 16061 bound_to 15941
  -34.2164   27.8934    7.1519 H   0  0  0  0  0  0  0  0  0  0  0  0  # atno 17444 bound_to 17358
  -34.0506   24.4324    7.1390 H   0  0  0  0  0  0  0  0  0  0  0  0  # atno 17517 bound_to 17490
  -40.6770   30.0027    7.6646 LP  0  0  0  0  0  0  0  0  0  0  0  0  # atno 20694 bound_to 2648
  -40.9319   31.7026    7.8770 LP  0  0  0  0  0  0  0  0  0  0  0  0  # atno 20695 bound_to 2648
  -39.9309   22.2735    8.6558 LP  0  0  0  0  0  0  0  0  0  0  0  0  # atno 20700 bound_to 12063
  -40.4124   22.8822    7.2190 LP  0  0  0  0  0  0  0  0  0  0  0  0  # atno 20701 bound_to 12063
  -39.0371   30.2203   11.4989 LP  0  0  0  0  0  0  0  0  0  0  0  0  # atno 20708 bound_to 2645
  -34.6589   24.0274   10.5300 LP  0  0  0  0  0  0  0  0  0  0  0  0  # atno 20709 bound_to 17361
  -35.3061   25.6253   10.6964 LP  0  0  0  0  0  0  0  0  0  0  0  0  # atno 20710 bound_to 17361
  -34.4795   24.9070    8.7663 LP  0  0  0  0  0  0  0  0  0  0  0  0  # atno 20711 bound_to 17490
  -41.4635   27.6481   12.6751 LP  0  0  0  0  0  0  0  0  0  0  0  0  # atno 20712 bound_to 20041
  -39.8263   27.5123   13.2241 LP  0  0  0  0  0  0  0  0  0  0  0  0  # atno 20713 bound_to 20041
  -33.0636   26.5112    7.2580 LP  0  0  0  0  0  0  0  0  0  0  0  0  # atno 20714 bound_to 17358

> <Gold.Score>
     Fitness  S(hb_ext) S(vdw_ext)  S(hb_int)    S(int)      intcor
     24.82       0.00      18.23       0.00      -0.24      -0.76

> <Gold.Goldscore.Fitness>
24.8246

> <Gold.Goldscore.Internal.Vdw>
-0.3765

> <Gold.Goldscore.Internal.Torsion>
-0.6221

> <Gold.Goldscore.External.Vdw>
18.2288

> <Gold.Goldscore.Internal.HBond>
0.0000

> <Gold.Goldscore.External.HBond>
0.0000

> <Gold.Goldscore.Internal.Correction>
-0.7585

> <Gold.Goldscore.Internal.Vdw.Weighted>
-0.3765

> <Gold.Goldscore.Internal.Torsion.Weighted>
-0.6221

> <Gold.Goldscore.External.Vdw.Weighted>
25.0646

> <Gold.Goldscore.Internal.HBond.Weighted>
0.0000

> <Gold.Goldscore.External.HBond.Weighted>
0.0000

> <Gold.Goldscore.Internal.Correction.Weighted>
-0.7585

> <Gold.Rescore>
     Score     S(PLP)   S(hbond)     S(cho)   S(metal)  DE(clash)   DE(tors)     intcor
     19.76     -22.53       0.00       0.00       0.00       0.00       1.39       ----

> <Gold.PLP.Fitness>
19.7602

> <Gold.PLP.PLP>
-22.5326

> <Gold.PLP.part.hbond>
0.0000

> <Gold.PLP.part.metal>
0.0000

> <Gold.PLP.part.buried>
-1.8496

> <Gold.PLP.part.nonpolar>
-21.6972

> <Gold.PLP.part.repulsive>
0.0825

> <Gold.PLP.ligand.clash>
0.0000

> <Gold.PLP.ligand.torsion>
1.3862

> <Gold.PLP.Chemscore.Hbond>
0.0000

> <Gold.PLP.Chemscore.CHOScore>
0.0000

> <Gold.PLP.Chemscore.Metal>
0.0000

> <Gold.PLP.Chemscore.Internal.Correction>
   9.000000E+99

