#       Name:                CT1002167954
#       Creating user name   hitesit
#       Creation time:       Sun Apr 16 02:22:08 2023


#       File generated by GOLD software.
#

@<TRIPOS>MOLECULE
CT1002167954|ligand_prepared|mol2|1|dock4
    29    30     1
SMALL
NO_CHARGES


@<TRIPOS>ATOM
      1 C1         -44.7487  25.5357   2.9526 C.3            1 RES1               0.0000
      2 C2         -43.8184  25.1759   4.1291 C.ar           1 RES1               0.0000
      3 C3         -45.1771  24.2125   2.3250 C.2            1 RES1               0.0000
      4 C4         -45.8972  26.3425   3.5483 C.2            1 RES1               0.0000
      5 C5         -44.0724  26.4000   1.8630 C.3            1 RES1               0.0000
      6 C6         -42.4357  25.2248   3.9796 C.ar           1 RES1               0.0000
      7 C7         -44.3273  24.7966   5.3683 C.ar           1 RES1               0.0000
      8 N8         -46.4548  23.7914   2.5489 N.am           1 RES1               0.0000
      9 O9         -44.3939  23.5297   1.6766 O.2            1 RES1               0.0000
     10 N10        -47.1530  25.7954   3.5114 N.am           1 RES1               0.0000
     11 O11        -45.7233  27.4397   4.0641 O.2            1 RES1               0.0000
     12 C12        -45.0433  26.9642   0.8378 C.3            1 RES1               0.0000
     13 C13        -41.5922  24.9088   5.0317 C.ar           1 RES1               0.0000
     14 C14        -43.4820  24.4808   6.4191 C.ar           1 RES1               0.0000
     15 C15        -47.4789  24.5433   3.0663 C.2            1 RES1               0.0000
     16 C16        -42.1146  24.5371   6.2521 C.ar           1 RES1               0.0000
     17 O17        -48.6231  24.1012   3.1158 O.2            1 RES1               0.0000
     18 H18        -43.5476  27.2324   2.3479 H              1 RES1               0.0000
     19 H19        -43.3242  25.7898   1.3423 H              1 RES1               0.0000
     20 H20        -42.0062  25.5128   3.0258 H              1 RES1               0.0000
     21 H21        -45.3998  24.7443   5.5223 H              1 RES1               0.0000
     22 H22        -46.6686  22.8285   2.3095 H              1 RES1               0.0000
     23 H23        -47.9156  26.3755   3.8466 H              1 RES1               0.0000
     24 H24        -44.5172  27.5623   0.0966 H              1 RES1               0.0000
     25 H25        -45.5647  26.1628   0.3184 H              1 RES1               0.0000
     26 H26        -45.7868  27.5969   1.3180 H              1 RES1               0.0000
     27 H27        -40.5168  24.9533   4.8948 H              1 RES1               0.0000
     28 H28        -43.8976  24.1881   7.3777 H              1 RES1               0.0000
     29 H29        -41.4536  24.2899   7.0763 H              1 RES1               0.0000
@<TRIPOS>BOND
    1    1    2 1     
    2    1    3 1     
    3    1    4 1     
    4    1    5 1     
    5    2    6 ar    
    6    2    7 ar    
    7    3    8 1     
    8    3    9 2     
    9    4   10 1     
   10    4   11 2     
   11    5   12 1     
   12    5   18 1     
   13    5   19 1     
   14    6   13 ar    
   15    6   20 1     
   16    7   14 ar    
   17    7   21 1     
   18    8   15 1     
   19    8   22 1     
   20   10   15 1     
   21   10   23 1     
   22   12   24 1     
   23   12   25 1     
   24   12   26 1     
   25   13   16 ar    
   26   13   27 1     
   27   14   16 ar    
   28   14   28 1     
   29   15   17 2     
   30   16   29 1     
@<TRIPOS>SUBSTRUCTURE
      1 RES1           1
@<TRIPOS>SET
DONOR_HYDROGENS      STATIC     ATOMS    <user>   **** ""
2 22 23
ATOM$RED        STATIC     ATOMS    COLORGROUP SYSTEM
2 22 23
@<TRIPOS>COMMENT
> <Gold.Version>
2022.3.0

> <Gold.Id.Protein>
unknown|7ta6_clean|pdb

> <Gold.Protein.RotatedTorsions>
[ 12165 12063 12062 12060 ] final  -37.50 input   59.99 | X-H torsion
[ 2816 2645 2646 2647 ] final -178.30 input  110.81 | X-H torsion
[ 17517 17490 17491 17492 ] final  -31.94 input  128.41 | X-H torsion
[ 17444 17358 17359 17360 ] final  -65.19 input   71.00 | X-H torsion
[ 16061 15941 15940 15938 ] final -148.02 input   60.02 | X-H torsion
[ 20694 2648 2647 2646 ] final -117.67 input    0.00 | X-H torsion
[ 20709 17361 17360 17359 ] final   15.34 input    0.00 | X-H torsion
[ 20712 20041 20040 20039 ] final  157.53 input    0.00 | X-H torsion

> <Gold.Protein.ActiveResidues>
 TRP28   LEU57   ILE58   TYR59   SER60   LEU94   TYR119  LEU120  GLY121  GLY122 
 VAL123  PHE124  TYR151  XCP1    LEU2    GLY3    TRP4    ILE6    ILE24   LEU25  

> <Gold.Protein.RotatedAtoms>
  -39.2479   28.5185   11.7442 H   0  0  0  0  0  0  0  0  0  0  0  0  # atno 2816 bound_to 2645
  -40.0271   22.2069    8.5524 H   0  0  0  0  0  0  0  0  0  0  0  0  # atno 12165 bound_to 12063
  -34.4983   20.6016   10.0083 H   0  0  0  0  0  0  0  0  0  0  0  0  # atno 16061 bound_to 15941
  -33.1414   27.1505    8.0976 H   0  0  0  0  0  0  0  0  0  0  0  0  # atno 17444 bound_to 17358
  -34.2557   24.9666    8.7996 H   0  0  0  0  0  0  0  0  0  0  0  0  # atno 17517 bound_to 17490
  -40.1249   31.3895    7.7743 LP  0  0  0  0  0  0  0  0  0  0  0  0  # atno 20694 bound_to 2648
  -41.4840   30.3158    7.7674 LP  0  0  0  0  0  0  0  0  0  0  0  0  # atno 20695 bound_to 2648
  -40.3524   23.0222    7.1823 LP  0  0  0  0  0  0  0  0  0  0  0  0  # atno 20700 bound_to 12063
  -39.3373   23.6575    8.2925 LP  0  0  0  0  0  0  0  0  0  0  0  0  # atno 20701 bound_to 12063
  -39.2372   30.2653   11.6354 LP  0  0  0  0  0  0  0  0  0  0  0  0  # atno 20708 bound_to 2645
  -35.4944   25.5242   10.6435 LP  0  0  0  0  0  0  0  0  0  0  0  0  # atno 20709 bound_to 17361
  -34.4706   24.1284   10.5829 LP  0  0  0  0  0  0  0  0  0  0  0  0  # atno 20710 bound_to 17361
  -34.2799   24.3870    7.1501 LP  0  0  0  0  0  0  0  0  0  0  0  0  # atno 20711 bound_to 17490
  -41.4367   27.8160   12.6899 LP  0  0  0  0  0  0  0  0  0  0  0  0  # atno 20712 bound_to 20041
  -39.8531   27.3443   13.2093 LP  0  0  0  0  0  0  0  0  0  0  0  0  # atno 20713 bound_to 20041
  -33.9441   27.1197    6.4835 LP  0  0  0  0  0  0  0  0  0  0  0  0  # atno 20714 bound_to 17358

> <Gold.Score>
     Fitness  S(hb_ext) S(vdw_ext)  S(hb_int)    S(int)      intcor
     28.11       0.03      20.81       0.00      -0.53      -0.78

> <Gold.Goldscore.Fitness>
28.1145

> <Gold.Goldscore.Internal.Vdw>
-0.7739

> <Gold.Goldscore.Internal.Torsion>
-0.5356

> <Gold.Goldscore.External.Vdw>
20.8076

> <Gold.Goldscore.Internal.HBond>
0.0000

> <Gold.Goldscore.External.HBond>
0.0297

> <Gold.Goldscore.Internal.Correction>
-0.7838

> <Gold.Goldscore.Hbonds>
donor molecule, donor type, donor heavy atom, donor atom, acceptor molecule, acceptor atom, score
      P1  H 12484 12549       L1    17  0.01

> <Gold.Goldscore.Internal.Vdw.Weighted>
-0.7739

> <Gold.Goldscore.Internal.Torsion.Weighted>
-0.5356

> <Gold.Goldscore.External.Vdw.Weighted>
28.6105

> <Gold.Goldscore.Internal.HBond.Weighted>
0.0000

> <Gold.Goldscore.External.HBond.Weighted>
0.0297

> <Gold.Goldscore.Internal.Correction.Weighted>
-0.7838

> <Gold.Rescore>
     Score     S(PLP)   S(hbond)     S(cho)   S(metal)  DE(clash)   DE(tors)     intcor
     27.42     -26.51       0.85       0.00       0.00       0.00       0.82       ----

> <Gold.PLP.Fitness>
27.4214

> <Gold.PLP.PLP>
-26.5052

> <Gold.PLP.part.hbond>
-1.0000

> <Gold.PLP.part.metal>
0.0000

> <Gold.PLP.part.buried>
-3.9851

> <Gold.PLP.part.nonpolar>
-22.9843

> <Gold.PLP.part.repulsive>
0.3105

> <Gold.PLP.ligand.clash>
0.0000

> <Gold.PLP.ligand.torsion>
0.8169

> <Gold.PLP.Chemscore.Hbond>
0.8500

> <Gold.PLP.Chemscore.CHOScore>
0.0000

> <Gold.PLP.Chemscore.Metal>
0.0000

> <Gold.Chemscore.Hbonds>
donor molecule, donor type, donor heavy atom, donor atom, acceptor molecule, acceptor atom, score
      P1  H 12484 12549       L1    17  0.25

> <Gold.PLP.Chemscore.Internal.Correction>
   9.000000E+99

