#       Name:                CT1002167954
#       Creating user name   hitesit
#       Creation time:       Sun Apr 16 02:22:12 2023


#       File generated by GOLD software.
#

@<TRIPOS>MOLECULE
CT1002167954|ligand_prepared|mol2|1|dock10
    29    30     1
SMALL
NO_CHARGES


@<TRIPOS>ATOM
      1 C1         -41.7288  24.2641   2.5371 C.3            1 RES1               0.0000
      2 C2         -42.4610  24.3769   3.8898 C.ar           1 RES1               0.0000
      3 C3         -40.2396  24.1891   2.8609 C.2            1 RES1               0.0000
      4 C4         -42.2809  23.0168   1.8558 C.2            1 RES1               0.0000
      5 C5         -41.9668  25.4677   1.5956 C.3            1 RES1               0.0000
      6 C6         -41.7730  24.1929   5.0855 C.ar           1 RES1               0.0000
      7 C7         -43.8212  24.6665   3.9581 C.ar           1 RES1               0.0000
      8 N8         -39.6232  22.9804   2.7233 N.am           1 RES1               0.0000
      9 O9         -39.6243  25.1666   3.2687 O.2            1 RES1               0.0000
     10 N10        -41.4275  21.9636   1.6554 N.am           1 RES1               0.0000
     11 O11        -43.4515  22.9302   1.5058 O.2            1 RES1               0.0000
     12 C12        -41.1153  25.4386   0.3361 C.3            1 RES1               0.0000
     13 C13        -42.4206  24.2975   6.3053 C.ar           1 RES1               0.0000
     14 C14        -44.4669  24.7704   5.1791 C.ar           1 RES1               0.0000
     15 C15        -40.1315  21.8773   2.0859 C.2            1 RES1               0.0000
     16 C16        -43.7677  24.5867   6.3530 C.ar           1 RES1               0.0000
     17 O17        -39.4438  20.8747   1.9154 O.2            1 RES1               0.0000
     18 H18        -43.0247  25.4859   1.3062 H              1 RES1               0.0000
     19 H19        -41.7534  26.3931   2.1447 H              1 RES1               0.0000
     20 H20        -40.7130  23.9622   5.0677 H              1 RES1               0.0000
     21 H21        -44.3916  24.8139   3.0474 H              1 RES1               0.0000
     22 H22        -38.6987  22.8882   3.1323 H              1 RES1               0.0000
     23 H23        -41.7919  21.1706   1.1371 H              1 RES1               0.0000
     24 H24        -41.3214  26.3050  -0.2889 H              1 RES1               0.0000
     25 H25        -40.0564  25.4452   0.5861 H              1 RES1               0.0000
     26 H26        -41.3202  24.5434  -0.2474 H              1 RES1               0.0000
     27 H27        -41.8661  24.1507   7.2263 H              1 RES1               0.0000
     28 H28        -45.5273  24.9976   5.2118 H              1 RES1               0.0000
     29 H29        -44.2746  24.6690   7.3087 H              1 RES1               0.0000
@<TRIPOS>BOND
    1    1    2 1     
    2    1    3 1     
    3    1    4 1     
    4    1    5 1     
    5    2    6 ar    
    6    2    7 ar    
    7    3    8 1     
    8    3    9 2     
    9    4   10 1     
   10    4   11 2     
   11    5   12 1     
   12    5   18 1     
   13    5   19 1     
   14    6   13 ar    
   15    6   20 1     
   16    7   14 ar    
   17    7   21 1     
   18    8   15 1     
   19    8   22 1     
   20   10   15 1     
   21   10   23 1     
   22   12   24 1     
   23   12   25 1     
   24   12   26 1     
   25   13   16 ar    
   26   13   27 1     
   27   14   16 ar    
   28   14   28 1     
   29   15   17 2     
   30   16   29 1     
@<TRIPOS>SUBSTRUCTURE
      1 RES1           1
@<TRIPOS>SET
DONOR_HYDROGENS      STATIC     ATOMS    <user>   **** ""
2 22 23
ATOM$RED        STATIC     ATOMS    COLORGROUP SYSTEM
2 22 23
@<TRIPOS>COMMENT
> <Gold.Version>
2022.3.0

> <Gold.Id.Protein>
unknown|7ta6_clean|pdb

> <Gold.Protein.RotatedTorsions>
[ 12165 12063 12062 12060 ] final -101.18 input   59.99 | X-H torsion
[ 2816 2645 2646 2647 ] final   78.45 input  110.81 | X-H torsion
[ 17517 17490 17491 17492 ] final -131.23 input  128.41 | X-H torsion
[ 17444 17358 17359 17360 ] final  -21.37 input   71.00 | X-H torsion
[ 16061 15941 15940 15938 ] final  140.51 input   60.02 | X-H torsion
[ 20694 2648 2647 2646 ] final   33.85 input    0.00 | X-H torsion
[ 20709 17361 17360 17359 ] final   18.82 input    0.00 | X-H torsion
[ 20712 20041 20040 20039 ] final  100.10 input    0.00 | X-H torsion

> <Gold.Protein.ActiveResidues>
 TRP28   LEU57   ILE58   TYR59   SER60   LEU94   TYR119  LEU120  GLY121  GLY122 
 VAL123  PHE124  TYR151  XCP1    LEU2    GLY3    TRP4    ILE6    ILE24   LEU25  

> <Gold.Protein.RotatedAtoms>
  -39.9576   29.6436   12.1606 H   0  0  0  0  0  0  0  0  0  0  0  0  # atno 2816 bound_to 2645
  -40.4806   22.2995    7.6799 H   0  0  0  0  0  0  0  0  0  0  0  0  # atno 12165 bound_to 12063
  -34.8395   21.2782   10.7969 H   0  0  0  0  0  0  0  0  0  0  0  0  # atno 16061 bound_to 15941
  -33.0836   26.4967    7.7828 H   0  0  0  0  0  0  0  0  0  0  0  0  # atno 17444 bound_to 17358
  -35.1154   24.4187    7.9139 H   0  0  0  0  0  0  0  0  0  0  0  0  # atno 17517 bound_to 17490
  -41.1480   30.0600    7.7105 LP  0  0  0  0  0  0  0  0  0  0  0  0  # atno 20694 bound_to 2648
  -40.4609   31.6453    7.8312 LP  0  0  0  0  0  0  0  0  0  0  0  0  # atno 20695 bound_to 2648
  -39.7459   23.7410    7.5064 LP  0  0  0  0  0  0  0  0  0  0  0  0  # atno 20700 bound_to 12063
  -39.4870   22.8455    8.8472 LP  0  0  0  0  0  0  0  0  0  0  0  0  # atno 20701 bound_to 12063
  -38.5497   29.1754   11.2321 LP  0  0  0  0  0  0  0  0  0  0  0  0  # atno 20708 bound_to 2645
  -35.5349   25.4931   10.6304 LP  0  0  0  0  0  0  0  0  0  0  0  0  # atno 20709 bound_to 17361
  -34.4301   24.1596   10.5960 LP  0  0  0  0  0  0  0  0  0  0  0  0  # atno 20710 bound_to 17361
  -33.4433   24.9203    8.0122 LP  0  0  0  0  0  0  0  0  0  0  0  0  # atno 20711 bound_to 17490
  -41.2522   27.0053   12.7246 LP  0  0  0  0  0  0  0  0  0  0  0  0  # atno 20712 bound_to 20041
  -40.0376   28.1551   13.1746 LP  0  0  0  0  0  0  0  0  0  0  0  0  # atno 20713 bound_to 20041
  -33.9914   27.6551    6.7413 LP  0  0  0  0  0  0  0  0  0  0  0  0  # atno 20714 bound_to 17358

> <Gold.Score>
     Fitness  S(hb_ext) S(vdw_ext)  S(hb_int)    S(int)      intcor
     26.84       0.00      21.11       0.00      -2.19      -0.76

> <Gold.Goldscore.Fitness>
26.8445

> <Gold.Goldscore.Internal.Vdw>
-2.4970

> <Gold.Goldscore.Internal.Torsion>
-0.4484

> <Gold.Goldscore.External.Vdw>
21.1137

> <Gold.Goldscore.Internal.HBond>
0.0000

> <Gold.Goldscore.External.HBond>
0.0000

> <Gold.Goldscore.Internal.Correction>
-0.7585

> <Gold.Goldscore.Internal.Vdw.Weighted>
-2.4970

> <Gold.Goldscore.Internal.Torsion.Weighted>
-0.4484

> <Gold.Goldscore.External.Vdw.Weighted>
29.0314

> <Gold.Goldscore.Internal.HBond.Weighted>
0.0000

> <Gold.Goldscore.External.HBond.Weighted>
0.0000

> <Gold.Goldscore.Internal.Correction.Weighted>
-0.7585

> <Gold.Rescore>
     Score     S(PLP)   S(hbond)     S(cho)   S(metal)  DE(clash)   DE(tors)     intcor
     20.10     -22.31       0.00       0.00       0.00       2.03       0.09       ----

> <Gold.PLP.Fitness>
20.0969

> <Gold.PLP.PLP>
-22.3068

> <Gold.PLP.part.hbond>
0.0000

> <Gold.PLP.part.metal>
0.0000

> <Gold.PLP.part.buried>
-1.8690

> <Gold.PLP.part.nonpolar>
-20.8210

> <Gold.PLP.part.repulsive>
0.2694

> <Gold.PLP.ligand.clash>
2.0264

> <Gold.PLP.ligand.torsion>
0.0917

> <Gold.PLP.Chemscore.Hbond>
0.0000

> <Gold.PLP.Chemscore.CHOScore>
0.0000

> <Gold.PLP.Chemscore.Metal>
0.0000

> <Gold.PLP.Chemscore.Internal.Correction>
   9.000000E+99

