#       Name:                CT1002167954
#       Creating user name   hitesit
#       Creation time:       Sun Apr 16 02:22:07 2023


#       File generated by GOLD software.
#

@<TRIPOS>MOLECULE
CT1002167954|ligand_prepared|mol2|1|dock3
    29    30     1
SMALL
NO_CHARGES


@<TRIPOS>ATOM
      1 C1         -41.2239  25.3611   3.1966 C.3            1 RES1               0.0000
      2 C2         -42.2720  25.0407   4.2817 C.ar           1 RES1               0.0000
      3 C3         -40.9288  26.8536   3.3133 C.2            1 RES1               0.0000
      4 C4         -40.0242  24.4653   3.4846 C.2            1 RES1               0.0000
      5 C5         -41.7052  25.0667   1.7567 C.3            1 RES1               0.0000
      6 C6         -43.6284  25.2304   4.0347 C.ar           1 RES1               0.0000
      7 C7         -41.8988  24.5532   5.5313 C.ar           1 RES1               0.0000
      8 N8         -39.7353  27.2207   3.8616 N.am           1 RES1               0.0000
      9 O9         -41.7475  27.6959   2.9661 O.2            1 RES1               0.0000
     10 N10        -38.8506  25.0650   3.8600 N.am           1 RES1               0.0000
     11 O11        -40.0891  23.2448   3.4059 O.2            1 RES1               0.0000
     12 C12        -40.5876  25.0622   0.7256 C.3            1 RES1               0.0000
     13 C13        -44.5775  24.9404   5.0008 C.ar           1 RES1               0.0000
     14 C14        -42.8495  24.2640   6.4962 C.ar           1 RES1               0.0000
     15 C15        -38.6603  26.4001   4.0913 C.2            1 RES1               0.0000
     16 C16        -44.1888  24.4566   6.2319 C.ar           1 RES1               0.0000
     17 O17        -37.5895  26.8575   4.4801 O.2            1 RES1               0.0000
     18 H18        -42.2019  24.0887   1.7434 H              1 RES1               0.0000
     19 H19        -42.4464  25.8231   1.4706 H              1 RES1               0.0000
     20 H20        -43.9530  25.6125   3.0726 H              1 RES1               0.0000
     21 H21        -40.8507  24.3948   5.7618 H              1 RES1               0.0000
     22 H22        -39.6325  28.1955   4.1252 H              1 RES1               0.0000
     23 H23        -38.0441  24.4600   3.9778 H              1 RES1               0.0000
     24 H24        -40.9796  24.8508  -0.2671 H              1 RES1               0.0000
     25 H25        -40.0880  26.0282   0.6940 H              1 RES1               0.0000
     26 H26        -39.8448  24.3041   0.9652 H              1 RES1               0.0000
     27 H27        -45.6302  25.0950   4.7884 H              1 RES1               0.0000
     28 H28        -42.5390  23.8841   7.4639 H              1 RES1               0.0000
     29 H29        -44.9326  24.2292   6.9885 H              1 RES1               0.0000
@<TRIPOS>BOND
    1    1    2 1     
    2    1    3 1     
    3    1    4 1     
    4    1    5 1     
    5    2    6 ar    
    6    2    7 ar    
    7    3    8 1     
    8    3    9 2     
    9    4   10 1     
   10    4   11 2     
   11    5   12 1     
   12    5   18 1     
   13    5   19 1     
   14    6   13 ar    
   15    6   20 1     
   16    7   14 ar    
   17    7   21 1     
   18    8   15 1     
   19    8   22 1     
   20   10   15 1     
   21   10   23 1     
   22   12   24 1     
   23   12   25 1     
   24   12   26 1     
   25   13   16 ar    
   26   13   27 1     
   27   14   16 ar    
   28   14   28 1     
   29   15   17 2     
   30   16   29 1     
@<TRIPOS>SUBSTRUCTURE
      1 RES1           1
@<TRIPOS>SET
DONOR_HYDROGENS      STATIC     ATOMS    <user>   **** ""
2 22 23
ATOM$RED        STATIC     ATOMS    COLORGROUP SYSTEM
2 22 23
@<TRIPOS>COMMENT
> <Gold.Version>
2022.3.0

> <Gold.Id.Protein>
unknown|7ta6_clean|pdb

> <Gold.Protein.RotatedTorsions>
[ 12165 12063 12062 12060 ] final   70.21 input   59.99 | X-H torsion
[ 2816 2645 2646 2647 ] final  124.87 input  110.81 | X-H torsion
[ 17517 17490 17491 17492 ] final -171.77 input  128.41 | X-H torsion
[ 17444 17358 17359 17360 ] final  -85.00 input   71.00 | X-H torsion
[ 16061 15941 15940 15938 ] final   83.38 input   60.02 | X-H torsion
[ 20694 2648 2647 2646 ] final   42.77 input    0.00 | X-H torsion
[ 20709 17361 17360 17359 ] final   21.09 input    0.00 | X-H torsion
[ 20712 20041 20040 20039 ] final  112.34 input    0.00 | X-H torsion

> <Gold.Protein.ActiveResidues>
 TRP28   LEU57   ILE58   TYR59   SER60   LEU94   TYR119  LEU120  GLY121  GLY122 
 VAL123  PHE124  TYR151  XCP1    LEU2    GLY3    TRP4    ILE6    ILE24   LEU25  

> <Gold.Protein.RotatedAtoms>
  -39.8583   28.9501   12.1401 H   0  0  0  0  0  0  0  0  0  0  0  0  # atno 2816 bound_to 2645
  -39.3134   23.5357    8.4510 H   0  0  0  0  0  0  0  0  0  0  0  0  # atno 12165 bound_to 12063
  -35.7237   21.4143   10.8361 H   0  0  0  0  0  0  0  0  0  0  0  0  # atno 16061 bound_to 15941
  -33.2816   27.4553    8.0981 H   0  0  0  0  0  0  0  0  0  0  0  0  # atno 17444 bound_to 17358
  -34.8284   24.3078    7.3825 H   0  0  0  0  0  0  0  0  0  0  0  0  # atno 17517 bound_to 17490
  -41.2667   30.1216    7.7274 LP  0  0  0  0  0  0  0  0  0  0  0  0  # atno 20694 bound_to 2648
  -40.3422   31.5837    7.8143 LP  0  0  0  0  0  0  0  0  0  0  0  0  # atno 20695 bound_to 2648
  -40.1516   22.1416    8.4082 LP  0  0  0  0  0  0  0  0  0  0  0  0  # atno 20700 bound_to 12063
  -40.2571   23.1996    7.1687 LP  0  0  0  0  0  0  0  0  0  0  0  0  # atno 20701 bound_to 12063
  -38.6459   29.8472   11.2520 LP  0  0  0  0  0  0  0  0  0  0  0  0  # atno 20708 bound_to 2645
  -35.5601   25.4715   10.6219 LP  0  0  0  0  0  0  0  0  0  0  0  0  # atno 20709 bound_to 17361
  -34.4049   24.1811   10.6045 LP  0  0  0  0  0  0  0  0  0  0  0  0  # atno 20710 bound_to 17361
  -33.7226   25.0282    8.5294 LP  0  0  0  0  0  0  0  0  0  0  0  0  # atno 20711 bound_to 17490
  -41.3553   27.1554   12.6948 LP  0  0  0  0  0  0  0  0  0  0  0  0  # atno 20712 bound_to 20041
  -39.9345   28.0049   13.2044 LP  0  0  0  0  0  0  0  0  0  0  0  0  # atno 20713 bound_to 20041
  -33.8292   26.8700    6.4831 LP  0  0  0  0  0  0  0  0  0  0  0  0  # atno 20714 bound_to 17358

> <Gold.Score>
     Fitness  S(hb_ext) S(vdw_ext)  S(hb_int)    S(int)      intcor
     26.89       0.00      20.11       0.00      -0.76      -0.79

> <Gold.Goldscore.Fitness>
26.8908

> <Gold.Goldscore.Internal.Vdw>
-0.8933

> <Gold.Goldscore.Internal.Torsion>
-0.6539

> <Gold.Goldscore.External.Vdw>
20.1106

> <Gold.Goldscore.Internal.HBond>
0.0000

> <Gold.Goldscore.External.HBond>
0.0000

> <Gold.Goldscore.Internal.Correction>
-0.7859

> <Gold.Goldscore.Internal.Vdw.Weighted>
-0.8933

> <Gold.Goldscore.Internal.Torsion.Weighted>
-0.6539

> <Gold.Goldscore.External.Vdw.Weighted>
27.6521

> <Gold.Goldscore.Internal.HBond.Weighted>
0.0000

> <Gold.Goldscore.External.HBond.Weighted>
0.0000

> <Gold.Goldscore.Internal.Correction.Weighted>
-0.7859

> <Gold.Rescore>
     Score     S(PLP)   S(hbond)     S(cho)   S(metal)  DE(clash)   DE(tors)     intcor
     22.99     -25.10       0.00       0.00       0.00       0.00       1.06       ----

> <Gold.PLP.Fitness>
22.9864

> <Gold.PLP.PLP>
-25.0985

> <Gold.PLP.part.hbond>
0.0000

> <Gold.PLP.part.metal>
0.0000

> <Gold.PLP.part.buried>
-3.2191

> <Gold.PLP.part.nonpolar>
-23.0572

> <Gold.PLP.part.repulsive>
0.0652

> <Gold.PLP.ligand.clash>
0.0000

> <Gold.PLP.ligand.torsion>
1.0561

> <Gold.PLP.Chemscore.Hbond>
0.0000

> <Gold.PLP.Chemscore.CHOScore>
0.0000

> <Gold.PLP.Chemscore.Metal>
0.0000

> <Gold.PLP.Chemscore.Internal.Correction>
   9.000000E+99

