#       Name:                CT1002167954
#       Creating user name   hitesit
#       Creation time:       Sun Apr 16 02:22:11 2023


#       File generated by GOLD software.
#

@<TRIPOS>MOLECULE
CT1002167954|ligand_prepared|mol2|1|dock8
    29    30     1
SMALL
NO_CHARGES


@<TRIPOS>ATOM
      1 C1         -43.2968  24.7999   2.5307 C.3            1 RES1               0.0000
      2 C2         -43.1003  24.6814   4.0559 C.ar           1 RES1               0.0000
      3 C3         -43.1172  23.3942   1.9651 C.2            1 RES1               0.0000
      4 C4         -44.6916  25.3802   2.3241 C.2            1 RES1               0.0000
      5 C5         -42.2812  25.7404   1.8411 C.3            1 RES1               0.0000
      6 C6         -44.1949  24.7004   4.9150 C.ar           1 RES1               0.0000
      7 C7         -41.8330  24.5501   4.6173 C.ar           1 RES1               0.0000
      8 N8         -44.2352  22.7324   1.5504 N.am           1 RES1               0.0000
      9 O9         -42.0163  22.8593   1.9202 O.2            1 RES1               0.0000
     10 N10        -45.6327  24.5894   1.7186 N.am           1 RES1               0.0000
     11 O11        -44.9887  26.5090   2.6953 O.2            1 RES1               0.0000
     12 C12        -42.6289  26.0650   0.3968 C.3            1 RES1               0.0000
     13 C13        -44.0290  24.5891   6.2855 C.ar           1 RES1               0.0000
     14 C14        -41.6692  24.4392   5.9882 C.ar           1 RES1               0.0000
     15 C15        -45.4765  23.2810   1.3501 C.2            1 RES1               0.0000
     16 C16        -42.7663  24.4580   6.8230 C.ar           1 RES1               0.0000
     17 O17        -46.3870  22.6189   0.8605 O.2            1 RES1               0.0000
     18 H18        -42.2245  26.6768   2.4097 H              1 RES1               0.0000
     19 H19        -41.2901  25.2709   1.8686 H              1 RES1               0.0000
     20 H20        -45.1961  24.8052   4.5105 H              1 RES1               0.0000
     21 H21        -40.9554  24.5339   3.9800 H              1 RES1               0.0000
     22 H22        -44.1396  21.7376   1.3728 H              1 RES1               0.0000
     23 H23        -46.5332  25.0157   1.5244 H              1 RES1               0.0000
     24 H24        -41.8845  26.7277  -0.0395 H              1 RES1               0.0000
     25 H25        -42.6690  25.1585  -0.2034 H              1 RES1               0.0000
     26 H26        -43.5979  26.5560   0.3344 H              1 RES1               0.0000
     27 H27        -44.8955  24.6058   6.9383 H              1 RES1               0.0000
     28 H28        -40.6735  24.3368   6.4069 H              1 RES1               0.0000
     29 H29        -42.6365  24.3704   7.8967 H              1 RES1               0.0000
@<TRIPOS>BOND
    1    1    2 1     
    2    1    3 1     
    3    1    4 1     
    4    1    5 1     
    5    2    6 ar    
    6    2    7 ar    
    7    3    8 1     
    8    3    9 2     
    9    4   10 1     
   10    4   11 2     
   11    5   12 1     
   12    5   18 1     
   13    5   19 1     
   14    6   13 ar    
   15    6   20 1     
   16    7   14 ar    
   17    7   21 1     
   18    8   15 1     
   19    8   22 1     
   20   10   15 1     
   21   10   23 1     
   22   12   24 1     
   23   12   25 1     
   24   12   26 1     
   25   13   16 ar    
   26   13   27 1     
   27   14   16 ar    
   28   14   28 1     
   29   15   17 2     
   30   16   29 1     
@<TRIPOS>SUBSTRUCTURE
      1 RES1           1
@<TRIPOS>SET
DONOR_HYDROGENS      STATIC     ATOMS    <user>   **** ""
2 22 23
ATOM$RED        STATIC     ATOMS    COLORGROUP SYSTEM
2 22 23
@<TRIPOS>COMMENT
> <Gold.Version>
2022.3.0

> <Gold.Id.Protein>
unknown|7ta6_clean|pdb

> <Gold.Protein.RotatedTorsions>
[ 12165 12063 12062 12060 ] final  -87.00 input   59.99 | X-H torsion
[ 2816 2645 2646 2647 ] final   40.29 input  110.81 | X-H torsion
[ 17517 17490 17491 17492 ] final  129.78 input  128.41 | X-H torsion
[ 17444 17358 17359 17360 ] final  106.38 input   71.00 | X-H torsion
[ 16061 15941 15940 15938 ] final  142.83 input   60.02 | X-H torsion
[ 20694 2648 2647 2646 ] final   65.17 input    0.00 | X-H torsion
[ 20709 17361 17360 17359 ] final   49.69 input    0.00 | X-H torsion
[ 20712 20041 20040 20039 ] final -141.56 input    0.00 | X-H torsion

> <Gold.Protein.ActiveResidues>
 TRP28   LEU57   ILE58   TYR59   SER60   LEU94   TYR119  LEU120  GLY121  GLY122 
 VAL123  PHE124  TYR151  XCP1    LEU2    GLY3    TRP4    ILE6    ILE24   LEU25  

> <Gold.Protein.RotatedAtoms>
  -39.7025   30.1209   11.9488 H   0  0  0  0  0  0  0  0  0  0  0  0  # atno 2816 bound_to 2645
  -40.4267   22.1939    7.8782 H   0  0  0  0  0  0  0  0  0  0  0  0  # atno 12165 bound_to 12063
  -34.8094   21.2617   10.7808 H   0  0  0  0  0  0  0  0  0  0  0  0  # atno 16061 bound_to 15941
  -34.2345   26.8625    6.5144 H   0  0  0  0  0  0  0  0  0  0  0  0  # atno 17444 bound_to 17358
  -34.0074   24.4471    7.1474 H   0  0  0  0  0  0  0  0  0  0  0  0  # atno 17517 bound_to 17490
  -41.5095   30.3497    7.7733 LP  0  0  0  0  0  0  0  0  0  0  0  0  # atno 20694 bound_to 2648
  -40.0994   31.3556    7.7684 LP  0  0  0  0  0  0  0  0  0  0  0  0  # atno 20695 bound_to 2648
  -39.8920   23.6395    7.3565 LP  0  0  0  0  0  0  0  0  0  0  0  0  # atno 20700 bound_to 12063
  -39.3951   23.0533    8.7974 LP  0  0  0  0  0  0  0  0  0  0  0  0  # atno 20701 bound_to 12063
  -38.7968   28.7132   11.4373 LP  0  0  0  0  0  0  0  0  0  0  0  0  # atno 20708 bound_to 2645
  -35.7895   25.1258   10.5176 LP  0  0  0  0  0  0  0  0  0  0  0  0  # atno 20709 bound_to 17361
  -34.1756   24.5268   10.7088 LP  0  0  0  0  0  0  0  0  0  0  0  0  # atno 20710 bound_to 17361
  -34.5216   24.8927    8.7581 LP  0  0  0  0  0  0  0  0  0  0  0  0  # atno 20711 bound_to 17490
  -40.8422   28.4226   12.9117 LP  0  0  0  0  0  0  0  0  0  0  0  0  # atno 20712 bound_to 20041
  -40.4476   26.7378   12.9875 LP  0  0  0  0  0  0  0  0  0  0  0  0  # atno 20713 bound_to 20041
  -33.0488   27.3556    7.7800 LP  0  0  0  0  0  0  0  0  0  0  0  0  # atno 20714 bound_to 17358

> <Gold.Score>
     Fitness  S(hb_ext) S(vdw_ext)  S(hb_int)    S(int)      intcor
     24.63       0.00      19.01       0.00      -1.52      -0.76

> <Gold.Goldscore.Fitness>
24.6276

> <Gold.Goldscore.Internal.Vdw>
-1.7217

> <Gold.Goldscore.Internal.Torsion>
-0.5519

> <Gold.Goldscore.External.Vdw>
19.0129

> <Gold.Goldscore.Internal.HBond>
0.0000

> <Gold.Goldscore.External.HBond>
0.0000

> <Gold.Goldscore.Internal.Correction>
-0.7585

> <Gold.Goldscore.Internal.Vdw.Weighted>
-1.7217

> <Gold.Goldscore.Internal.Torsion.Weighted>
-0.5519

> <Gold.Goldscore.External.Vdw.Weighted>
26.1427

> <Gold.Goldscore.Internal.HBond.Weighted>
0.0000

> <Gold.Goldscore.External.HBond.Weighted>
0.0000

> <Gold.Goldscore.Internal.Correction.Weighted>
-0.7585

> <Gold.Rescore>
     Score     S(PLP)   S(hbond)     S(cho)   S(metal)  DE(clash)   DE(tors)     intcor
     16.19     -18.75       0.00       0.00       0.00       0.72       0.92       ----

> <Gold.PLP.Fitness>
16.1883

> <Gold.PLP.PLP>
-18.7508

> <Gold.PLP.part.hbond>
-0.4179

> <Gold.PLP.part.metal>
0.0000

> <Gold.PLP.part.buried>
-1.4721

> <Gold.PLP.part.nonpolar>
-17.6443

> <Gold.PLP.part.repulsive>
0.1179

> <Gold.PLP.ligand.clash>
0.7245

> <Gold.PLP.ligand.torsion>
0.9190

> <Gold.PLP.Chemscore.Hbond>
0.0000

> <Gold.PLP.Chemscore.CHOScore>
0.0000

> <Gold.PLP.Chemscore.Metal>
0.0000

> <Gold.PLP.Chemscore.Internal.Correction>
   9.000000E+99

