#       Name:                CT1002167954
#       Creating user name   hitesit
#       Creation time:       Sun Apr 16 20:34:42 2023


#       File generated by GOLD software.
#

@<TRIPOS>MOLECULE
CT1002167954|ligand_prepared|mol2|1|dock6
    29    30     1
SMALL
NO_CHARGES


@<TRIPOS>ATOM
      1 C1         246.3844  -6.5706  43.2995 C.3            1 RES1               0.0000
      2 C2         246.0346  -7.8862  44.0243 C.ar           1 RES1               0.0000
      3 C3         245.3345  -5.5511  43.7316 C.2            1 RES1               0.0000
      4 C4         247.8062  -6.2162  43.7211 C.2            1 RES1               0.0000
      5 C5         246.3569  -6.6805  41.7572 C.3            1 RES1               0.0000
      6 C6         246.3811  -9.1146  43.4696 C.ar           1 RES1               0.0000
      7 C7         245.3693  -7.8875  45.2474 C.ar           1 RES1               0.0000
      8 N8         245.7193  -4.5814  44.6099 N.am           1 RES1               0.0000
      9 O9         244.1766  -5.6206  43.3383 O.2            1 RES1               0.0000
     10 N10        247.9906  -5.0823  44.4682 N.am           1 RES1               0.0000
     11 O11        248.7664  -6.9175  43.4273 O.2            1 RES1               0.0000
     12 C12        246.3845  -5.3367  41.0461 C.3            1 RES1               0.0000
     13 C13        246.0761 -10.3013  44.1155 C.ar           1 RES1               0.0000
     14 C14        245.0651  -9.0754  45.8916 C.ar           1 RES1               0.0000
     15 C15        247.0080  -4.2655  44.9577 C.2            1 RES1               0.0000
     16 C16        245.4184 -10.2825  45.3270 C.ar           1 RES1               0.0000
     17 O17        247.2493  -3.2941  45.6685 O.2            1 RES1               0.0000
     18 H18        247.2214  -7.2711  41.4298 H              1 RES1               0.0000
     19 H19        245.4497  -7.2197  41.4578 H              1 RES1               0.0000
     20 H20        246.8969  -9.1493  42.5158 H              1 RES1               0.0000
     21 H21        245.0806  -6.9497  45.7098 H              1 RES1               0.0000
     22 H22        244.9804  -4.0413  45.0489 H              1 RES1               0.0000
     23 H23        248.9491  -4.8231  44.6788 H              1 RES1               0.0000
     24 H24        246.3636  -5.4710  39.9667 H              1 RES1               0.0000
     25 H25        245.5250  -4.7327  41.3292 H              1 RES1               0.0000
     26 H26        247.2862  -4.7837  41.3014 H              1 RES1               0.0000
     27 H27        246.3552 -11.2487  43.6664 H              1 RES1               0.0000
     28 H28        244.5467  -9.0558  46.8446 H              1 RES1               0.0000
     29 H29        245.1800 -11.2122  45.8330 H              1 RES1               0.0000
@<TRIPOS>BOND
    1    1    2 1     
    2    1    3 1     
    3    1    4 1     
    4    1    5 1     
    5    2    6 ar    
    6    2    7 ar    
    7    3    8 1     
    8    3    9 2     
    9    4   10 1     
   10    4   11 2     
   11    5   12 1     
   12    5   18 1     
   13    5   19 1     
   14    6   13 ar    
   15    6   20 1     
   16    7   14 ar    
   17    7   21 1     
   18    8   15 1     
   19    8   22 1     
   20   10   15 1     
   21   10   23 1     
   22   12   24 1     
   23   12   25 1     
   24   12   26 1     
   25   13   16 ar    
   26   13   27 1     
   27   14   16 ar    
   28   14   28 1     
   29   15   17 2     
   30   16   29 1     
@<TRIPOS>SUBSTRUCTURE
      1 RES1           1
@<TRIPOS>SET
DONOR_HYDROGENS      STATIC     ATOMS    <user>   **** ""
2 22 23
ATOM$RED        STATIC     ATOMS    COLORGROUP SYSTEM
2 22 23
@<TRIPOS>COMMENT
> <Gold.Version>
2022.3.0

> <Gold.Id.Protein>
unknown|4d1n_clean|pdb

> <Gold.Protein.RotatedTorsions>
[ 6614 6573 6574 6575 ] final  175.11 input  116.02 | X-H torsion
[ 6700 6661 6662 6663 ] final  119.00 input  125.25 | X-H torsion
[ 8066 8025 8026 8027 ] final -120.93 input   31.90 | X-H torsion
[ 8137 8104 8105 8106 ] final  -46.75 input   91.64 | X-H torsion
[ 8200 8166 8167 8168 ] final   -1.92 input   70.29 | X-H torsion
[ 8280 8242 8243 8244 ] final  129.67 input   89.64 | X-H torsion
[ 8333 8313 8314 8315 ] final -178.46 input   85.58 | X-H torsion
[ 9580 9544 9543 9541 ] final   69.39 input   60.01 | X-H torsion
[ 10226 10185 10186 10187 ] final  119.49 input   40.00 | X-H torsion
[ 7988 7940 7941 7942 ] final  -19.61 input   82.26 | X-H torsion
[ 7908 7887 7888 7889 ] final   74.85 input   90.27 | X-H torsion
[ 7912 7892 7891 7888 ] final  137.10 input   59.97 | X-H torsion
[ 6852 6804 6805 6806 ] final -116.24 input  117.17 | X-H torsion
[ 27193 6336 6335 6334 ] final  -38.76 input   -0.00 | X-H torsion
[ 27195 6500 6499 6498 ] final -100.24 input    0.00 | X-H torsion
[ 27198 6576 6575 6574 ] final -142.85 input   -0.00 | X-H torsion
[ 27201 7890 7889 7888 ] final   94.41 input    0.00 | X-H torsion
[ 27204 8028 8027 8026 ] final   80.86 input   -0.00 | X-H torsion
[ 27207 8107 8106 8105 ] final   95.18 input    0.00 | X-H torsion
[ 27210 8169 8168 8167 ] final -105.95 input    0.00 | X-H torsion
[ 27213 10098 10097 10096 ] final  171.90 input    0.00 | X-H torsion
[ 27215 10188 10187 10186 ] final  175.29 input   -0.00 | X-H torsion
[ 27217 8245 8244 8243 ] final  166.07 input   -0.00 | X-H torsion
[ 27224 7943 7942 7941 ] final   86.72 input    0.00 | X-H torsion
[ 27226 7818 7817 7816 ] final -108.83 input    0.00 | X-H torsion

> <Gold.Protein.ActiveResidues>
 ASP403  THR404  LEU406  ILE407  TYR408  ALA410  LYS411  TRP414  TRP426  SER427 
 LYS428  LEU429  GLN430  VAL431  PHE432  ASP433  TYR453  SER462  ALA463  ILE464 
 ILE466 

> <Gold.Protein.RotatedAtoms>
  242.4011   -1.6875   50.2911 H   0  0  0  0  0  0  0  0  0  0  0  0  # atno 6614 bound_to 6573
  239.5103   -2.1857   48.7001 H   0  0  0  0  0  0  0  0  0  0  0  0  # atno 6700 bound_to 6661
  241.5858    2.3849   44.6632 H   0  0  0  0  0  0  0  0  0  0  0  0  # atno 6852 bound_to 6804
  240.3535   -1.0777   36.6739 H   0  0  0  0  0  0  0  0  0  0  0  0  # atno 7908 bound_to 7887
  239.3791   -4.6654   37.1447 H   0  0  0  0  0  0  0  0  0  0  0  0  # atno 7912 bound_to 7892
  242.4636   -1.6439   38.3579 H   0  0  0  0  0  0  0  0  0  0  0  0  # atno 7988 bound_to 7940
  245.3596   -2.0892   38.6393 H   0  0  0  0  0  0  0  0  0  0  0  0  # atno 8066 bound_to 8025
  246.8607   -1.1040   41.9215 H   0  0  0  0  0  0  0  0  0  0  0  0  # atno 8137 bound_to 8104
  248.7855   -2.3533   45.1131 H   0  0  0  0  0  0  0  0  0  0  0  0  # atno 8200 bound_to 8166
  250.1621    0.1093   46.7080 H   0  0  0  0  0  0  0  0  0  0  0  0  # atno 8280 bound_to 8242
  249.4288   -1.0104   50.1867 H   0  0  0  0  0  0  0  0  0  0  0  0  # atno 8333 bound_to 8313
  251.4658   -4.8362   40.5992 H   0  0  0  0  0  0  0  0  0  0  0  0  # atno 9580 bound_to 9544
  248.6801    2.3306   43.3615 H   0  0  0  0  0  0  0  0  0  0  0  0  # atno 10226 bound_to 10185
  242.5554   -2.6062   51.7752 LP  0  0  0  0  0  0  0  0  0  0  0  0  # atno 27193 bound_to 6336
  242.1731   -3.9298   50.7255 LP  0  0  0  0  0  0  0  0  0  0  0  0  # atno 27194 bound_to 6336
  240.9296    1.0914   48.6917 LP  0  0  0  0  0  0  0  0  0  0  0  0  # atno 27195 bound_to 6500
  242.5531    1.3548   49.2349 LP  0  0  0  0  0  0  0  0  0  0  0  0  # atno 27196 bound_to 6500
  240.9080   -0.8720   49.8890 LP  0  0  0  0  0  0  0  0  0  0  0  0  # atno 27197 bound_to 6573
  240.1727    0.2137   46.2208 LP  0  0  0  0  0  0  0  0  0  0  0  0  # atno 27198 bound_to 6576
  241.6348   -0.6106   45.7934 LP  0  0  0  0  0  0  0  0  0  0  0  0  # atno 27199 bound_to 6576
  240.4085   -1.3996   47.4195 LP  0  0  0  0  0  0  0  0  0  0  0  0  # atno 27200 bound_to 6661
  241.9404   -4.5563   39.3130 LP  0  0  0  0  0  0  0  0  0  0  0  0  # atno 27201 bound_to 7890
  242.4400   -3.2853   40.3784 LP  0  0  0  0  0  0  0  0  0  0  0  0  # atno 27202 bound_to 7890
  244.3747   -2.5707   40.0036 LP  0  0  0  0  0  0  0  0  0  0  0  0  # atno 27203 bound_to 8025
  245.5428   -3.3265   42.1697 LP  0  0  0  0  0  0  0  0  0  0  0  0  # atno 27204 bound_to 8028
  245.4921   -2.0072   43.2908 LP  0  0  0  0  0  0  0  0  0  0  0  0  # atno 27205 bound_to 8028
  248.1280   -1.5199   40.7937 LP  0  0  0  0  0  0  0  0  0  0  0  0  # atno 27206 bound_to 8104
  248.2423    0.6927   43.6760 LP  0  0  0  0  0  0  0  0  0  0  0  0  # atno 27207 bound_to 8107
  249.8679    0.1603   43.9479 LP  0  0  0  0  0  0  0  0  0  0  0  0  # atno 27208 bound_to 8107
  247.4132   -1.6079   44.3287 LP  0  0  0  0  0  0  0  0  0  0  0  0  # atno 27209 bound_to 8166
  248.5175   -2.3342   48.8026 LP  0  0  0  0  0  0  0  0  0  0  0  0  # atno 27210 bound_to 8169
  249.1125   -3.0786   47.3563 LP  0  0  0  0  0  0  0  0  0  0  0  0  # atno 27211 bound_to 8169
  248.8628   -0.5166   47.6916 LP  0  0  0  0  0  0  0  0  0  0  0  0  # atno 27212 bound_to 8242
  249.9404   -0.3537   40.7227 LP  0  0  0  0  0  0  0  0  0  0  0  0  # atno 27213 bound_to 10098
  249.4397   -0.7925   39.1238 LP  0  0  0  0  0  0  0  0  0  0  0  0  # atno 27214 bound_to 10098
  250.3074    1.8438   47.1210 LP  0  0  0  0  0  0  0  0  0  0  0  0  # atno 27215 bound_to 10188
  249.3455    1.5495   45.7109 LP  0  0  0  0  0  0  0  0  0  0  0  0  # atno 27216 bound_to 10188
  249.2777    1.6461   50.7061 LP  0  0  0  0  0  0  0  0  0  0  0  0  # atno 27217 bound_to 8245
  250.1449    1.9252   49.2330 LP  0  0  0  0  0  0  0  0  0  0  0  0  # atno 27218 bound_to 8245
  251.0259   -0.7232   50.8381 LP  0  0  0  0  0  0  0  0  0  0  0  0  # atno 27219 bound_to 8313
  252.2442   -4.9571   39.1749 LP  0  0  0  0  0  0  0  0  0  0  0  0  # atno 27220 bound_to 9544
  251.3657   -3.6239   39.5178 LP  0  0  0  0  0  0  0  0  0  0  0  0  # atno 27221 bound_to 9544
  250.4076    2.4850   43.5733 LP  0  0  0  0  0  0  0  0  0  0  0  0  # atno 27222 bound_to 10185
  241.9830   -2.7171   37.0615 LP  0  0  0  0  0  0  0  0  0  0  0  0  # atno 27223 bound_to 7940
  245.0155   -0.0766   37.4961 LP  0  0  0  0  0  0  0  0  0  0  0  0  # atno 27224 bound_to 7943
  246.4216   -1.0607   37.2633 LP  0  0  0  0  0  0  0  0  0  0  0  0  # atno 27225 bound_to 7943
  242.0088    0.2191   39.5737 LP  0  0  0  0  0  0  0  0  0  0  0  0  # atno 27226 bound_to 7818
  240.4749    0.9455   39.9195 LP  0  0  0  0  0  0  0  0  0  0  0  0  # atno 27227 bound_to 7818
  240.4240    0.0181   38.0288 LP  0  0  0  0  0  0  0  0  0  0  0  0  # atno 27228 bound_to 7887
  240.5004   -3.5393   36.7934 LP  0  0  0  0  0  0  0  0  0  0  0  0  # atno 27229 bound_to 7892
  238.9385   -3.2958   36.3839 LP  0  0  0  0  0  0  0  0  0  0  0  0  # atno 27230 bound_to 7892

> <Gold.Score>
     Fitness  S(hb_ext) S(vdw_ext)  S(hb_int)    S(int)      intcor
     29.14      12.16      12.97       0.00      -0.85      -0.76

> <Gold.Goldscore.Fitness>
29.1424

> <Gold.Goldscore.Internal.Vdw>
-0.9578

> <Gold.Goldscore.Internal.Torsion>
-0.6456

> <Gold.Goldscore.External.Vdw>
12.9672

> <Gold.Goldscore.Internal.HBond>
0.0000

> <Gold.Goldscore.External.HBond>
12.1602

> <Gold.Goldscore.Internal.Correction>
-0.7558

> <Gold.Goldscore.Hbonds>
donor molecule, donor type, donor heavy atom, donor atom, acceptor molecule, acceptor atom, score
      P1  H  6812  6863       L1     9  1.00
      P1  H  8111  8143       L1    11  0.09
      L1  H    10    23       P1  8112  1.00

> <Gold.Goldscore.Internal.Vdw.Weighted>
-0.9578

> <Gold.Goldscore.Internal.Torsion.Weighted>
-0.6456

> <Gold.Goldscore.External.Vdw.Weighted>
17.8299

> <Gold.Goldscore.Internal.HBond.Weighted>
0.0000

> <Gold.Goldscore.External.HBond.Weighted>
12.1602

> <Gold.Goldscore.Internal.Correction.Weighted>
-0.7558

> <Gold.Rescore>
     Score     S(PLP)   S(hbond)     S(cho)   S(metal)  DE(clash)   DE(tors)     intcor
     17.02     -17.19       0.00       0.00       0.00       0.00       0.08       ----

> <Gold.PLP.Fitness>
17.0204

> <Gold.PLP.PLP>
-17.1857

> <Gold.PLP.part.hbond>
-1.0895

> <Gold.PLP.part.metal>
0.0000

> <Gold.PLP.part.buried>
-1.3628

> <Gold.PLP.part.nonpolar>
-17.5496

> <Gold.PLP.part.repulsive>
2.3279

> <Gold.PLP.ligand.clash>
0.0000

> <Gold.PLP.ligand.torsion>
0.0827

> <Gold.PLP.Chemscore.Hbond>
0.0000

> <Gold.PLP.Chemscore.CHOScore>
0.0000

> <Gold.PLP.Chemscore.Metal>
0.0000

> <Gold.Chemscore.Hbonds>
donor molecule, donor type, donor heavy atom, donor atom, acceptor molecule, acceptor atom, score
      P1  H  6812  6863       L1     9  1.00
      P1  H  8111  8143       L1    11  0.19

> <Gold.PLP.Chemscore.Internal.Correction>
   9.000000E+99

