#       Name:                CT1002167954
#       Creating user name   hitesit
#       Creation time:       Sun Apr 16 20:34:44 2023


#       File generated by GOLD software.
#

@<TRIPOS>MOLECULE
CT1002167954|ligand_prepared|mol2|1|dock10
    29    30     1
SMALL
NO_CHARGES


@<TRIPOS>ATOM
      1 C1         248.0228  -5.8638  38.6829 C.3            1 RES1               0.0000
      2 C2         248.7859  -7.0818  39.2422 C.ar           1 RES1               0.0000
      3 C3         246.7382  -6.4093  38.0662 C.2            1 RES1               0.0000
      4 C4         247.7967  -4.9238  39.8619 C.2            1 RES1               0.0000
      5 C5         248.7988  -5.0864  37.5942 C.3            1 RES1               0.0000
      6 C6         248.1116  -8.2589  39.5528 C.ar           1 RES1               0.0000
      7 C7         250.1621  -7.0444  39.4502 C.ar           1 RES1               0.0000
      8 N8         245.5726  -6.1944  38.7409 N.am           1 RES1               0.0000
      9 O9         246.7527  -7.0524  37.0239 O.2            1 RES1               0.0000
     10 N10        246.5075  -4.7092  40.2738 N.am           1 RES1               0.0000
     11 O11        248.7244  -4.3802  40.4485 O.2            1 RES1               0.0000
     12 C12        247.9717  -4.0179  36.8968 C.3            1 RES1               0.0000
     13 C13        248.7889  -9.3598  40.0504 C.ar           1 RES1               0.0000
     14 C14        250.8375  -8.1464  39.9482 C.ar           1 RES1               0.0000
     15 C15        245.3875  -5.3259  39.7863 C.2            1 RES1               0.0000
     16 C16        250.1522  -9.3045  40.2480 C.ar           1 RES1               0.0000
     17 O17        244.2674  -5.1212  40.2454 O.2            1 RES1               0.0000
     18 H18        249.6733  -4.6111  38.0553 H              1 RES1               0.0000
     19 H19        249.1615  -5.7985  36.8427 H              1 RES1               0.0000
     20 H20        247.0384  -8.3203  39.4062 H              1 RES1               0.0000
     21 H21        250.7217  -6.1435  39.2224 H              1 RES1               0.0000
     22 H22        244.7638  -6.7291  38.4404 H              1 RES1               0.0000
     23 H23        246.3699  -4.0264  41.0122 H              1 RES1               0.0000
     24 H24        248.5635  -3.5030  36.1429 H              1 RES1               0.0000
     25 H25        247.1068  -4.4589  36.4057 H              1 RES1               0.0000
     26 H26        247.6155  -3.2785  37.6112 H              1 RES1               0.0000
     27 H27        248.2448 -10.2684  40.2861 H              1 RES1               0.0000
     28 H28        251.9104  -8.0981  40.1027 H              1 RES1               0.0000
     29 H29        250.6826 -10.1671  40.6375 H              1 RES1               0.0000
@<TRIPOS>BOND
    1    1    2 1     
    2    1    3 1     
    3    1    4 1     
    4    1    5 1     
    5    2    6 ar    
    6    2    7 ar    
    7    3    8 1     
    8    3    9 2     
    9    4   10 1     
   10    4   11 2     
   11    5   12 1     
   12    5   18 1     
   13    5   19 1     
   14    6   13 ar    
   15    6   20 1     
   16    7   14 ar    
   17    7   21 1     
   18    8   15 1     
   19    8   22 1     
   20   10   15 1     
   21   10   23 1     
   22   12   24 1     
   23   12   25 1     
   24   12   26 1     
   25   13   16 ar    
   26   13   27 1     
   27   14   16 ar    
   28   14   28 1     
   29   15   17 2     
   30   16   29 1     
@<TRIPOS>SUBSTRUCTURE
      1 RES1           1
@<TRIPOS>SET
DONOR_HYDROGENS      STATIC     ATOMS    <user>   **** ""
2 22 23
ATOM$RED        STATIC     ATOMS    COLORGROUP SYSTEM
2 22 23
@<TRIPOS>COMMENT
> <Gold.Version>
2022.3.0

> <Gold.Id.Protein>
unknown|4d1n_clean|pdb

> <Gold.Protein.RotatedTorsions>
[ 6614 6573 6574 6575 ] final  100.39 input  116.02 | X-H torsion
[ 6700 6661 6662 6663 ] final  168.69 input  125.25 | X-H torsion
[ 8066 8025 8026 8027 ] final   30.60 input   31.90 | X-H torsion
[ 8137 8104 8105 8106 ] final   54.89 input   91.64 | X-H torsion
[ 8200 8166 8167 8168 ] final  -86.33 input   70.29 | X-H torsion
[ 8280 8242 8243 8244 ] final  121.70 input   89.64 | X-H torsion
[ 8333 8313 8314 8315 ] final  -53.67 input   85.58 | X-H torsion
[ 9580 9544 9543 9541 ] final  176.02 input   60.01 | X-H torsion
[ 10226 10185 10186 10187 ] final  131.48 input   40.00 | X-H torsion
[ 7988 7940 7941 7942 ] final  128.80 input   82.26 | X-H torsion
[ 7908 7887 7888 7889 ] final  127.43 input   90.27 | X-H torsion
[ 7912 7892 7891 7888 ] final   -9.55 input   59.97 | X-H torsion
[ 6852 6804 6805 6806 ] final  -39.67 input  117.17 | X-H torsion
[ 27193 6336 6335 6334 ] final   -7.16 input   -0.00 | X-H torsion
[ 27195 6500 6499 6498 ] final  -10.86 input    0.00 | X-H torsion
[ 27198 6576 6575 6574 ] final  -83.57 input   -0.00 | X-H torsion
[ 27201 7890 7889 7888 ] final  -40.31 input    0.00 | X-H torsion
[ 27204 8028 8027 8026 ] final  -89.28 input   -0.00 | X-H torsion
[ 27207 8107 8106 8105 ] final   11.65 input    0.00 | X-H torsion
[ 27210 8169 8168 8167 ] final  -84.52 input    0.00 | X-H torsion
[ 27213 10098 10097 10096 ] final -171.60 input    0.00 | X-H torsion
[ 27215 10188 10187 10186 ] final  117.80 input   -0.00 | X-H torsion
[ 27217 8245 8244 8243 ] final  -83.13 input   -0.00 | X-H torsion
[ 27224 7943 7942 7941 ] final  144.95 input    0.00 | X-H torsion
[ 27226 7818 7817 7816 ] final  -51.66 input    0.00 | X-H torsion

> <Gold.Protein.ActiveResidues>
 ASP403  THR404  LEU406  ILE407  TYR408  ALA410  LYS411  TRP414  TRP426  SER427 
 LYS428  LEU429  GLN430  VAL431  PHE432  ASP433  TYR453  SER462  ALA463  ILE464 
 ILE466 

> <Gold.Protein.RotatedAtoms>
  241.4178   -2.1170   50.2369 H   0  0  0  0  0  0  0  0  0  0  0  0  # atno 6614 bound_to 6573
  239.6473   -2.6151   48.1030 H   0  0  0  0  0  0  0  0  0  0  0  0  # atno 6700 bound_to 6661
  240.6320    2.9002   44.8379 H   0  0  0  0  0  0  0  0  0  0  0  0  # atno 6852 bound_to 6804
  239.6718   -0.8545   36.9716 H   0  0  0  0  0  0  0  0  0  0  0  0  # atno 7908 bound_to 7887
  240.2865   -3.2179   36.5970 H   0  0  0  0  0  0  0  0  0  0  0  0  # atno 7912 bound_to 7892
  242.1396   -2.3328   36.8252 H   0  0  0  0  0  0  0  0  0  0  0  0  # atno 7988 bound_to 7940
  244.7186   -2.8257   40.0592 H   0  0  0  0  0  0  0  0  0  0  0  0  # atno 8066 bound_to 8025
  248.0257   -0.6067   41.4047 H   0  0  0  0  0  0  0  0  0  0  0  0  # atno 8137 bound_to 8104
  248.6914   -1.4133   44.3940 H   0  0  0  0  0  0  0  0  0  0  0  0  # atno 8200 bound_to 8166
  250.1333    0.2188   46.7547 H   0  0  0  0  0  0  0  0  0  0  0  0  # atno 8280 bound_to 8242
  250.6746   -0.0959   50.4638 H   0  0  0  0  0  0  0  0  0  0  0  0  # atno 8333 bound_to 8313
  251.2745   -3.6360   39.7164 H   0  0  0  0  0  0  0  0  0  0  0  0  # atno 9580 bound_to 9544
  248.7050    2.4544   43.2269 H   0  0  0  0  0  0  0  0  0  0  0  0  # atno 10226 bound_to 10185
  242.9618   -2.8341   51.7027 LP  0  0  0  0  0  0  0  0  0  0  0  0  # atno 27193 bound_to 6336
  241.7666   -3.7018   50.7980 LP  0  0  0  0  0  0  0  0  0  0  0  0  # atno 27194 bound_to 6336
  241.4384    1.7426   49.5865 LP  0  0  0  0  0  0  0  0  0  0  0  0  # atno 27195 bound_to 6500
  242.0442    0.7037   48.3401 LP  0  0  0  0  0  0  0  0  0  0  0  0  # atno 27196 bound_to 6500
  241.8665   -0.4534   49.9418 LP  0  0  0  0  0  0  0  0  0  0  0  0  # atno 27197 bound_to 6573
  240.9213    0.4901   46.5321 LP  0  0  0  0  0  0  0  0  0  0  0  0  # atno 27198 bound_to 6576
  240.8862   -0.8869   45.4820 LP  0  0  0  0  0  0  0  0  0  0  0  0  # atno 27199 bound_to 6576
  240.2761   -0.9848   47.9965 LP  0  0  0  0  0  0  0  0  0  0  0  0  # atno 27200 bound_to 6661
  241.7918   -3.4296   40.4373 LP  0  0  0  0  0  0  0  0  0  0  0  0  # atno 27201 bound_to 7890
  242.5887   -4.4120   39.2541 LP  0  0  0  0  0  0  0  0  0  0  0  0  # atno 27202 bound_to 7890
  244.9958   -1.8572   38.6279 LP  0  0  0  0  0  0  0  0  0  0  0  0  # atno 27203 bound_to 8025
  245.3672   -1.9685   43.2199 LP  0  0  0  0  0  0  0  0  0  0  0  0  # atno 27204 bound_to 8028
  245.6677   -3.3651   42.2406 LP  0  0  0  0  0  0  0  0  0  0  0  0  # atno 27205 bound_to 8028
  246.9868   -2.0071   41.2999 LP  0  0  0  0  0  0  0  0  0  0  0  0  # atno 27206 bound_to 8104
  249.0653    0.3351   42.9508 LP  0  0  0  0  0  0  0  0  0  0  0  0  # atno 27207 bound_to 8107
  249.0450    0.5180   44.6731 LP  0  0  0  0  0  0  0  0  0  0  0  0  # atno 27208 bound_to 8107
  247.5051   -2.5269   45.0317 LP  0  0  0  0  0  0  0  0  0  0  0  0  # atno 27209 bound_to 8166
  248.2412   -2.3982   48.6502 LP  0  0  0  0  0  0  0  0  0  0  0  0  # atno 27210 bound_to 8169
  249.3889   -3.0145   47.5087 LP  0  0  0  0  0  0  0  0  0  0  0  0  # atno 27211 bound_to 8169
  248.8911   -0.6242   47.6457 LP  0  0  0  0  0  0  0  0  0  0  0  0  # atno 27212 bound_to 8242
  249.6950   -0.3301   40.7545 LP  0  0  0  0  0  0  0  0  0  0  0  0  # atno 27213 bound_to 10098
  249.6850   -0.8161   39.0920 LP  0  0  0  0  0  0  0  0  0  0  0  0  # atno 27214 bound_to 10098
  250.6919    1.6696   46.4030 LP  0  0  0  0  0  0  0  0  0  0  0  0  # atno 27215 bound_to 10188
  248.9609    1.7237   46.4289 LP  0  0  0  0  0  0  0  0  0  0  0  0  # atno 27216 bound_to 10188
  250.5317    2.0092   50.1334 LP  0  0  0  0  0  0  0  0  0  0  0  0  # atno 27217 bound_to 8245
  248.8908    1.5621   49.8056 LP  0  0  0  0  0  0  0  0  0  0  0  0  # atno 27218 bound_to 8245
  249.8127   -1.6137   50.5682 LP  0  0  0  0  0  0  0  0  0  0  0  0  # atno 27219 bound_to 8313
  251.5862   -5.0075   40.5355 LP  0  0  0  0  0  0  0  0  0  0  0  0  # atno 27220 bound_to 9544
  252.2162   -4.7818   39.0459 LP  0  0  0  0  0  0  0  0  0  0  0  0  # atno 27221 bound_to 9544
  250.3832    2.3640   43.7050 LP  0  0  0  0  0  0  0  0  0  0  0  0  # atno 27222 bound_to 10185
  242.2967   -2.0502   38.5453 LP  0  0  0  0  0  0  0  0  0  0  0  0  # atno 27223 bound_to 7940
  245.6398   -0.0396   38.0608 LP  0  0  0  0  0  0  0  0  0  0  0  0  # atno 27224 bound_to 7943
  245.7973   -1.0976   36.6986 LP  0  0  0  0  0  0  0  0  0  0  0  0  # atno 27225 bound_to 7943
  241.9218    1.0353   39.4597 LP  0  0  0  0  0  0  0  0  0  0  0  0  # atno 27226 bound_to 7818
  240.5618    0.1293   40.0335 LP  0  0  0  0  0  0  0  0  0  0  0  0  # atno 27227 bound_to 7818
  241.0983   -0.2027   37.7342 LP  0  0  0  0  0  0  0  0  0  0  0  0  # atno 27228 bound_to 7887
  238.7186   -3.6465   36.5166 LP  0  0  0  0  0  0  0  0  0  0  0  0  # atno 27229 bound_to 7892
  239.8065   -4.6462   37.2121 LP  0  0  0  0  0  0  0  0  0  0  0  0  # atno 27230 bound_to 7892

> <Gold.Score>
     Fitness  S(hb_ext) S(vdw_ext)  S(hb_int)    S(int)      intcor
     19.37       2.20      13.25       0.00      -1.06      -0.76

> <Gold.Goldscore.Fitness>
19.3677

> <Gold.Goldscore.Internal.Vdw>
-1.3231

> <Gold.Goldscore.Internal.Torsion>
-0.4895

> <Gold.Goldscore.External.Vdw>
13.2520

> <Gold.Goldscore.Internal.HBond>
0.0000

> <Gold.Goldscore.External.HBond>
2.2030

> <Gold.Goldscore.Internal.Correction>
-0.7558

> <Gold.Goldscore.Hbonds>
donor molecule, donor type, donor heavy atom, donor atom, acceptor molecule, acceptor atom, score
      P1  H  8025  8066       L1    17  0.09
      P1  H  8111  8144       L1    11  0.01
      L1  H    10    23       P1  8028  1.00

> <Gold.Goldscore.Internal.Vdw.Weighted>
-1.3231

> <Gold.Goldscore.Internal.Torsion.Weighted>
-0.4895

> <Gold.Goldscore.External.Vdw.Weighted>
18.2215

> <Gold.Goldscore.Internal.HBond.Weighted>
0.0000

> <Gold.Goldscore.External.HBond.Weighted>
2.2030

> <Gold.Goldscore.Internal.Correction.Weighted>
-0.7558

> <Gold.Rescore>
     Score     S(PLP)   S(hbond)     S(cho)   S(metal)  DE(clash)   DE(tors)     intcor
     20.82     -17.31       1.88       0.00       0.00       0.08       1.02       ----

> <Gold.PLP.Fitness>
20.8242

> <Gold.PLP.PLP>
-17.3081

> <Gold.PLP.part.hbond>
-3.2618

> <Gold.PLP.part.metal>
0.0000

> <Gold.PLP.part.buried>
-3.2246

> <Gold.PLP.part.nonpolar>
-11.7973

> <Gold.PLP.part.repulsive>
0.3460

> <Gold.PLP.ligand.clash>
0.0804

> <Gold.PLP.ligand.torsion>
1.0242

> <Gold.PLP.Chemscore.Hbond>
1.8816

> <Gold.PLP.Chemscore.CHOScore>
0.0000

> <Gold.PLP.Chemscore.Metal>
0.0000

> <Gold.Chemscore.Hbonds>
donor molecule, donor type, donor heavy atom, donor atom, acceptor molecule, acceptor atom, score
      L1  H    10    23       P1  8028  0.10
      P1  H  8025  8066       L1    17  0.16
      P1  H  8111  8144       L1    11  0.39

> <Gold.PLP.Chemscore.Internal.Correction>
   9.000000E+99

