#       Name:                GA Fitting Points
#       Creating user name   hitesit
#       Creation time:       Sun Apr 16 02:21:08 2023


#       Fitting Points Used by GA Software.
#

@<TRIPOS>MOLECULE
GA Fitting Points
 18187    0    0
SMALL
NO_CHARGES


@<TRIPOS>ATOM
      1 ****        -2.5000  30.2500  21.5000 Du        
      2 ****        -2.5000  30.2500  21.7500 Du        
      3 ****        -2.2500  30.7500  21.5000 Du        
      4 ****        -2.2500  30.7500  21.7500 Du        
      5 ****        -2.2500  31.0000  21.7500 Du        
      6 ****        -2.0000  30.2500  15.0000 Du        
      7 ****        -2.0000  30.2500  15.2500 Du        
      8 ****        -2.0000  30.7500  21.5000 Du        
      9 ****        -2.0000  30.7500  21.7500 Du        
     10 ****        -2.0000  31.0000  21.5000 Du        
     11 ****        -2.0000  31.0000  21.7500 Du        
     12 ****        -2.0000  31.2500  21.7500 Du        
     13 ****        -1.7500  30.2500  15.2500 Du        
     14 ****        -1.7500  30.7500  21.5000 Du        
     15 ****        -1.7500  30.7500  21.7500 Du        
     16 ****        -1.7500  31.0000  21.2500 Du        
     17 ****        -1.7500  31.0000  21.5000 Du        
     18 ****        -1.7500  31.0000  21.7500 Du        
     19 ****        -1.7500  31.2500  21.5000 Du        
     20 ****        -1.7500  31.2500  21.7500 Du        
     21 ****        -1.5000  30.2500  15.0000 Du        
     22 ****        -1.5000  30.2500  15.2500 Du        
     23 ****        -1.5000  30.5000  15.0000 Du        
     24 ****        -1.5000  30.5000  15.2500 Du        
     25 ****        -1.5000  30.5000  15.5000 Du        
     26 ****        -1.5000  30.5000  21.5000 Du        
     27 ****        -1.5000  30.7500  14.7500 Du        
     28 ****        -1.5000  30.7500  15.0000 Du        
     29 ****        -1.5000  30.7500  15.2500 Du        
     30 ****        -1.5000  30.7500  15.5000 Du        
     31 ****        -1.5000  30.7500  15.7500 Du        
     32 ****        -1.5000  30.7500  21.2500 Du        
     33 ****        -1.5000  30.7500  21.5000 Du        
     34 ****        -1.5000  30.7500  21.7500 Du        
     35 ****        -1.5000  31.0000  21.0000 Du        
     36 ****        -1.5000  31.0000  21.2500 Du        
     37 ****        -1.5000  31.0000  21.5000 Du        
     38 ****        -1.5000  31.0000  21.7500 Du        
     39 ****        -1.5000  31.0000  22.0000 Du        
     40 ****        -1.5000  31.2500  21.0000 Du        
     41 ****        -1.5000  31.2500  21.2500 Du        
     42 ****        -1.5000  31.2500  21.5000 Du        
     43 ****        -1.5000  31.2500  21.7500 Du        
     44 ****        -1.5000  31.2500  22.0000 Du        
     45 ****        -1.5000  31.5000  21.2500 Du        
     46 ****        -1.5000  31.5000  21.5000 Du        
     47 ****        -1.5000  31.5000  21.7500 Du        
     48 ****        -1.5000  31.7500  21.5000 Du        
     49 ****        -1.5000  31.7500  21.7500 Du        
     50 ****        -1.2500  19.2500  14.7500 Du        
     51 ****        -1.2500  30.2500  15.2500 Du        
     52 ****        -1.2500  30.5000  15.0000 Du        
     53 ****        -1.2500  30.5000  15.2500 Du        
     54 ****        -1.2500  30.5000  15.5000 Du        
     55 ****        -1.2500  30.5000  21.2500 Du        
     56 ****        -1.2500  30.5000  21.5000 Du        
     57 ****        -1.2500  30.5000  21.7500 Du        
     58 ****        -1.2500  30.7500  14.7500 Du        
     59 ****        -1.2500  30.7500  15.0000 Du        
     60 ****        -1.2500  30.7500  15.2500 Du        
     61 ****        -1.2500  30.7500  15.5000 Du        
     62 ****        -1.2500  30.7500  21.2500 Du        
     63 ****        -1.2500  30.7500  21.5000 Du        
     64 ****        -1.2500  30.7500  21.7500 Du        
     65 ****        -1.2500  31.0000  14.7500 Du        
     66 ****        -1.2500  31.0000  15.0000 Du        
     67 ****        -1.2500  31.0000  15.2500 Du        
     68 ****        -1.2500  31.0000  21.0000 Du        
     69 ****        -1.2500  31.0000  21.2500 Du        
     70 ****        -1.2500  31.0000  21.5000 Du        
     71 ****        -1.2500  31.0000  21.7500 Du        
     72 ****        -1.2500  31.2500  20.7500 Du        
     73 ****        -1.2500  31.2500  21.0000 Du        
     74 ****        -1.2500  31.2500  21.2500 Du        
     75 ****        -1.2500  31.2500  21.5000 Du        
     76 ****        -1.2500  31.2500  21.7500 Du        
     77 ****        -1.2500  31.5000  21.0000 Du        
     78 ****        -1.2500  31.5000  21.2500 Du        
     79 ****        -1.2500  31.5000  21.5000 Du        
     80 ****        -1.2500  31.5000  21.7500 Du        
     81 ****        -1.2500  31.7500  21.0000 Du        
     82 ****        -1.2500  31.7500  21.2500 Du        
     83 ****        -1.2500  31.7500  21.5000 Du        
     84 ****        -1.2500  31.7500  21.7500 Du        
     85 ****        -1.2500  32.0000  21.0000 Du        
     86 ****        -1.2500  32.0000  21.2500 Du        
     87 ****        -1.2500  32.0000  21.5000 Du        
     88 ****        -1.2500  32.0000  21.7500 Du        
     89 ****        -1.2500  32.2500  21.5000 Du        
     90 ****        -1.0000  18.2500  15.0000 Du        
     91 ****        -1.0000  18.5000  15.0000 Du        
     92 ****        -1.0000  18.7500  15.0000 Du        
     93 ****        -1.0000  19.0000  14.7500 Du        
     94 ****        -1.0000  19.0000  15.0000 Du        
     95 ****        -1.0000  19.2500  14.5000 Du        
     96 ****        -1.0000  19.2500  14.7500 Du        
     97 ****        -1.0000  19.2500  15.0000 Du        
     98 ****        -1.0000  19.5000  14.5000 Du        
     99 ****        -1.0000  19.5000  14.7500 Du        
    100 ****        -1.0000  19.5000  15.0000 Du        
    101 ****        -1.0000  19.7500  14.2500 Du        
    102 ****        -1.0000  19.7500  14.5000 Du        
    103 ****        -1.0000  19.7500  14.7500 Du        
    104 ****        -1.0000  19.7500  15.0000 Du        
    105 ****        -1.0000  20.0000  14.2500 Du        
    106 ****        -1.0000  20.0000  14.5000 Du        
    107 ****        -1.0000  20.0000  14.7500 Du        
    108 ****        -1.0000  20.0000  15.0000 Du        
    109 ****        -1.0000  20.2500  14.0000 Du        
    110 ****        -1.0000  20.2500  14.2500 Du        
    111 ****        -1.0000  20.5000  14.0000 Du        
    112 ****        -1.0000  20.7500  13.7500 Du        
    113 ****        -1.0000  20.7500  14.0000 Du        
    114 ****        -1.0000  30.2500  21.5000 Du        
    115 ****        -1.0000  30.5000  15.0000 Du        
    116 ****        -1.0000  30.5000  15.2500 Du        
    117 ****        -1.0000  30.5000  21.2500 Du        
    118 ****        -1.0000  30.5000  21.5000 Du        
    119 ****        -1.0000  30.5000  21.7500 Du        
    120 ****        -1.0000  30.7500  14.5000 Du        
    121 ****        -1.0000  30.7500  14.7500 Du        
    122 ****        -1.0000  30.7500  15.0000 Du        
    123 ****        -1.0000  30.7500  15.2500 Du        
    124 ****        -1.0000  30.7500  15.5000 Du        
    125 ****        -1.0000  30.7500  21.0000 Du        
    126 ****        -1.0000  30.7500  21.2500 Du        
    127 ****        -1.0000  30.7500  21.5000 Du        
    128 ****        -1.0000  30.7500  21.7500 Du        
    129 ****        -1.0000  31.0000  14.2500 Du        
    130 ****        -1.0000  31.0000  14.7500 Du        
    131 ****        -1.0000  31.0000  15.0000 Du        
    132 ****        -1.0000  31.0000  15.2500 Du        
    133 ****        -1.0000  31.0000  21.0000 Du        
    134 ****        -1.0000  31.0000  21.2500 Du        
    135 ****        -1.0000  31.0000  21.5000 Du        
    136 ****        -1.0000  31.0000  21.7500 Du        
    137 ****        -1.0000  31.2500  20.7500 Du        
    138 ****        -1.0000  31.2500  21.0000 Du        
    139 ****        -1.0000  31.2500  21.2500 Du        
    140 ****        -1.0000  31.2500  21.5000 Du        
    141 ****        -1.0000  31.2500  21.7500 Du        
    142 ****        -1.0000  31.5000  20.7500 Du        
    143 ****        -1.0000  31.5000  21.0000 Du        
    144 ****        -1.0000  31.5000  21.2500 Du        
    145 ****        -1.0000  31.5000  21.5000 Du        
    146 ****        -1.0000  31.5000  21.7500 Du        
    147 ****        -1.0000  31.7500  20.7500 Du        
    148 ****        -1.0000  31.7500  21.0000 Du        
    149 ****        -1.0000  31.7500  21.2500 Du        
    150 ****        -1.0000  31.7500  21.5000 Du        
    151 ****        -1.0000  31.7500  21.7500 Du        
    152 ****        -1.0000  32.0000  20.7500 Du        
    153 ****        -1.0000  32.0000  21.0000 Du        
    154 ****        -1.0000  32.0000  21.2500 Du        
    155 ****        -1.0000  32.0000  21.5000 Du        
    156 ****        -1.0000  32.0000  21.7500 Du        
    157 ****        -1.0000  32.2500  20.7500 Du        
    158 ****        -1.0000  32.2500  21.0000 Du        
    159 ****        -1.0000  32.2500  21.2500 Du        
    160 ****        -1.0000  32.2500  21.5000 Du        
    161 ****        -1.0000  32.2500  21.7500 Du        
    162 ****        -1.0000  32.5000  21.5000 Du        
    163 ****        -1.0000  32.5000  21.7500 Du        
    164 ****        -1.0000  32.7500  21.7500 Du        
    165 ****        -0.7500  18.5000  14.7500 Du        
    166 ****        -0.7500  18.5000  15.0000 Du        
    167 ****        -0.7500  18.7500  14.5000 Du        
    168 ****        -0.7500  18.7500  14.7500 Du        
    169 ****        -0.7500  18.7500  15.0000 Du        
    170 ****        -0.7500  18.7500  15.2500 Du        
    171 ****        -0.7500  19.0000  14.5000 Du        
    172 ****        -0.7500  19.0000  14.7500 Du        
    173 ****        -0.7500  19.0000  15.0000 Du        
    174 ****        -0.7500  19.0000  15.2500 Du        
    175 ****        -0.7500  19.2500  14.5000 Du        
    176 ****        -0.7500  19.2500  14.7500 Du        
    177 ****        -0.7500  19.2500  15.0000 Du        
    178 ****        -0.7500  19.2500  15.2500 Du        
    179 ****        -0.7500  19.5000  14.2500 Du        
    180 ****        -0.7500  19.5000  14.5000 Du        
    181 ****        -0.7500  19.5000  14.7500 Du        
    182 ****        -0.7500  19.5000  15.0000 Du        
    183 ****        -0.7500  19.7500  14.0000 Du        
    184 ****        -0.7500  19.7500  14.2500 Du        
    185 ****        -0.7500  19.7500  14.5000 Du        
    186 ****        -0.7500  19.7500  14.7500 Du        
    187 ****        -0.7500  19.7500  15.0000 Du        
    188 ****        -0.7500  19.7500  15.2500 Du        
    189 ****        -0.7500  20.0000  13.7500 Du        
    190 ****        -0.7500  20.0000  14.0000 Du        
    191 ****        -0.7500  20.0000  14.2500 Du        
    192 ****        -0.7500  20.0000  14.5000 Du        
    193 ****        -0.7500  20.0000  14.7500 Du        
    194 ****        -0.7500  20.0000  15.0000 Du        
    195 ****        -0.7500  20.0000  15.2500 Du        
    196 ****        -0.7500  20.2500  14.0000 Du        
    197 ****        -0.7500  20.2500  14.2500 Du        
    198 ****        -0.7500  20.2500  14.5000 Du        
    199 ****        -0.7500  20.2500  14.7500 Du        
    200 ****        -0.7500  20.2500  15.0000 Du        
    201 ****        -0.7500  20.2500  15.2500 Du        
    202 ****        -0.7500  20.5000  13.7500 Du        
    203 ****        -0.7500  20.5000  14.0000 Du        
    204 ****        -0.7500  20.5000  14.2500 Du        
    205 ****        -0.7500  20.5000  14.5000 Du        
    206 ****        -0.7500  20.5000  14.7500 Du        
    207 ****        -0.7500  20.7500  13.7500 Du        
    208 ****        -0.7500  20.7500  14.0000 Du        
    209 ****        -0.7500  20.7500  14.2500 Du        
    210 ****        -0.7500  20.7500  14.5000 Du        
    211 ****        -0.7500  21.0000  13.7500 Du        
    212 ****        -0.7500  21.0000  14.0000 Du        
    213 ****        -0.7500  21.0000  14.2500 Du        
    214 ****        -0.7500  21.2500  13.7500 Du        
    215 ****        -0.7500  21.2500  14.0000 Du        
    216 ****        -0.7500  21.2500  14.2500 Du        
    217 ****        -0.7500  21.5000  13.7500 Du        
    218 ****        -0.7500  21.5000  14.0000 Du        
    219 ****        -0.7500  21.7500  13.7500 Du        
    220 ****        -0.7500  21.7500  14.0000 Du        
    221 ****        -0.7500  22.0000  13.7500 Du        
    222 ****        -0.7500  22.0000  14.0000 Du        
    223 ****        -0.7500  22.2500  13.7500 Du        
    224 ****        -0.7500  22.2500  14.0000 Du        
    225 ****        -0.7500  22.5000  13.7500 Du        
    226 ****        -0.7500  30.2500  21.5000 Du        
    227 ****        -0.7500  30.2500  21.7500 Du        
    228 ****        -0.7500  30.5000  21.2500 Du        
    229 ****        -0.7500  30.5000  21.5000 Du        
    230 ****        -0.7500  30.5000  21.7500 Du        
    231 ****        -0.7500  30.7500  14.5000 Du        
    232 ****        -0.7500  30.7500  14.7500 Du        
    233 ****        -0.7500  30.7500  15.0000 Du        
    234 ****        -0.7500  30.7500  15.2500 Du        
    235 ****        -0.7500  30.7500  21.0000 Du        
    236 ****        -0.7500  30.7500  21.2500 Du        
    237 ****        -0.7500  30.7500  21.5000 Du        
    238 ****        -0.7500  30.7500  21.7500 Du        
    239 ****        -0.7500  31.0000  14.2500 Du        
    240 ****        -0.7500  31.0000  14.5000 Du        
    241 ****        -0.7500  31.0000  14.7500 Du        
    242 ****        -0.7500  31.0000  15.0000 Du        
    243 ****        -0.7500  31.0000  20.7500 Du        
    244 ****        -0.7500  31.0000  21.0000 Du        
    245 ****        -0.7500  31.0000  21.2500 Du        
    246 ****        -0.7500  31.0000  21.5000 Du        
    247 ****        -0.7500  31.0000  21.7500 Du        
    248 ****        -0.7500  31.2500  14.2500 Du        
    249 ****        -0.7500  31.2500  20.7500 Du        
    250 ****        -0.7500  31.2500  21.0000 Du        
    251 ****        -0.7500  31.2500  21.2500 Du        
    252 ****        -0.7500  31.2500  21.5000 Du        
    253 ****        -0.7500  31.2500  21.7500 Du        
    254 ****        -0.7500  31.5000  20.7500 Du        
    255 ****        -0.7500  31.5000  21.0000 Du        
    256 ****        -0.7500  31.5000  21.2500 Du        
    257 ****        -0.7500  31.5000  21.5000 Du        
    258 ****        -0.7500  31.5000  21.7500 Du        
    259 ****        -0.7500  31.7500  20.5000 Du        
    260 ****        -0.7500  31.7500  20.7500 Du        
    261 ****        -0.7500  31.7500  21.0000 Du        
    262 ****        -0.7500  31.7500  21.2500 Du        
    263 ****        -0.7500  31.7500  21.5000 Du        
    264 ****        -0.7500  31.7500  21.7500 Du        
    265 ****        -0.7500  32.0000  20.5000 Du        
    266 ****        -0.7500  32.0000  20.7500 Du        
    267 ****        -0.7500  32.0000  21.0000 Du        
    268 ****        -0.7500  32.0000  21.2500 Du        
    269 ****        -0.7500  32.0000  21.5000 Du        
    270 ****        -0.7500  32.0000  21.7500 Du        
    271 ****        -0.7500  32.2500  20.5000 Du        
    272 ****        -0.7500  32.2500  20.7500 Du        
    273 ****        -0.7500  32.2500  21.0000 Du        
    274 ****        -0.7500  32.2500  21.2500 Du        
    275 ****        -0.7500  32.2500  21.5000 Du        
    276 ****        -0.7500  32.2500  21.7500 Du        
    277 ****        -0.7500  32.5000  21.0000 Du        
    278 ****        -0.7500  32.5000  21.2500 Du        
    279 ****        -0.7500  32.5000  21.5000 Du        
    280 ****        -0.7500  32.5000  21.7500 Du        
    281 ****        -0.7500  32.7500  21.2500 Du        
    282 ****        -0.7500  32.7500  21.5000 Du        
    283 ****        -0.7500  32.7500  21.7500 Du        
    284 ****        -0.7500  33.0000  21.5000 Du        
    285 ****        -0.5000  18.2500  14.5000 Du        
    286 ****        -0.5000  18.2500  14.7500 Du        
    287 ****        -0.5000  18.2500  15.0000 Du        
    288 ****        -0.5000  18.5000  14.2500 Du        
    289 ****        -0.5000  18.5000  14.5000 Du        
    290 ****        -0.5000  18.5000  14.7500 Du        
    291 ****        -0.5000  18.5000  15.0000 Du        
    292 ****        -0.5000  18.5000  15.2500 Du        
    293 ****        -0.5000  18.7500  14.0000 Du        
    294 ****        -0.5000  18.7500  14.2500 Du        
    295 ****        -0.5000  18.7500  14.5000 Du        
    296 ****        -0.5000  18.7500  14.7500 Du        
    297 ****        -0.5000  18.7500  15.0000 Du        
    298 ****        -0.5000  18.7500  15.2500 Du        
    299 ****        -0.5000  19.0000  13.7500 Du        
    300 ****        -0.5000  19.0000  14.0000 Du        
    301 ****        -0.5000  19.0000  14.2500 Du        
    302 ****        -0.5000  19.0000  14.5000 Du        
    303 ****        -0.5000  19.0000  14.7500 Du        
    304 ****        -0.5000  19.0000  15.0000 Du        
    305 ****        -0.5000  19.0000  15.2500 Du        
    306 ****        -0.5000  19.2500  13.7500 Du        
    307 ****        -0.5000  19.2500  14.0000 Du        
    308 ****        -0.5000  19.2500  14.2500 Du        
    309 ****        -0.5000  19.2500  14.5000 Du        
    310 ****        -0.5000  19.2500  14.7500 Du        
    311 ****        -0.5000  19.2500  15.0000 Du        
    312 ****        -0.5000  19.2500  15.2500 Du        
    313 ****        -0.5000  19.5000  13.7500 Du        
    314 ****        -0.5000  19.5000  14.0000 Du        
    315 ****        -0.5000  19.5000  14.2500 Du        
    316 ****        -0.5000  19.5000  14.5000 Du        
    317 ****        -0.5000  19.5000  14.7500 Du        
    318 ****        -0.5000  19.5000  15.0000 Du        
    319 ****        -0.5000  19.5000  15.2500 Du        
    320 ****        -0.5000  19.7500  13.7500 Du        
    321 ****        -0.5000  19.7500  14.0000 Du        
    322 ****        -0.5000  19.7500  14.2500 Du        
    323 ****        -0.5000  19.7500  14.5000 Du        
    324 ****        -0.5000  19.7500  14.7500 Du        
    325 ****        -0.5000  19.7500  15.0000 Du        
    326 ****        -0.5000  19.7500  15.2500 Du        
    327 ****        -0.5000  19.7500  15.5000 Du        
    328 ****        -0.5000  20.0000  13.7500 Du        
    329 ****        -0.5000  20.0000  14.0000 Du        
    330 ****        -0.5000  20.0000  14.2500 Du        
    331 ****        -0.5000  20.0000  14.5000 Du        
    332 ****        -0.5000  20.0000  14.7500 Du        
    333 ****        -0.5000  20.0000  15.0000 Du        
    334 ****        -0.5000  20.0000  15.2500 Du        
    335 ****        -0.5000  20.0000  15.5000 Du        
    336 ****        -0.5000  20.2500  13.7500 Du        
    337 ****        -0.5000  20.2500  14.0000 Du        
    338 ****        -0.5000  20.2500  14.2500 Du        
    339 ****        -0.5000  20.2500  14.5000 Du        
    340 ****        -0.5000  20.2500  14.7500 Du        
    341 ****        -0.5000  20.2500  15.0000 Du        
    342 ****        -0.5000  20.2500  15.2500 Du        
    343 ****        -0.5000  20.2500  15.5000 Du        
    344 ****        -0.5000  20.5000  13.7500 Du        
    345 ****        -0.5000  20.5000  14.0000 Du        
    346 ****        -0.5000  20.5000  14.2500 Du        
    347 ****        -0.5000  20.5000  14.5000 Du        
    348 ****        -0.5000  20.5000  14.7500 Du        
    349 ****        -0.5000  20.5000  15.0000 Du        
    350 ****        -0.5000  20.5000  15.2500 Du        
    351 ****        -0.5000  20.5000  15.5000 Du        
    352 ****        -0.5000  20.7500  13.7500 Du        
    353 ****        -0.5000  20.7500  14.0000 Du        
    354 ****        -0.5000  20.7500  14.2500 Du        
    355 ****        -0.5000  20.7500  14.5000 Du        
    356 ****        -0.5000  20.7500  14.7500 Du        
    357 ****        -0.5000  20.7500  15.0000 Du        
    358 ****        -0.5000  20.7500  15.2500 Du        
    359 ****        -0.5000  21.0000  13.7500 Du        
    360 ****        -0.5000  21.0000  14.0000 Du        
    361 ****        -0.5000  21.0000  14.2500 Du        
    362 ****        -0.5000  21.0000  14.5000 Du        
    363 ****        -0.5000  21.0000  14.7500 Du        
    364 ****        -0.5000  21.0000  15.0000 Du        
    365 ****        -0.5000  21.2500  13.7500 Du        
    366 ****        -0.5000  21.2500  14.0000 Du        
    367 ****        -0.5000  21.2500  14.2500 Du        
    368 ****        -0.5000  21.2500  14.5000 Du        
    369 ****        -0.5000  21.2500  14.7500 Du        
    370 ****        -0.5000  21.5000  13.7500 Du        
    371 ****        -0.5000  21.5000  14.0000 Du        
    372 ****        -0.5000  21.5000  14.2500 Du        
    373 ****        -0.5000  21.5000  14.5000 Du        
    374 ****        -0.5000  21.7500  13.7500 Du        
    375 ****        -0.5000  21.7500  14.0000 Du        
    376 ****        -0.5000  21.7500  14.2500 Du        
    377 ****        -0.5000  21.7500  14.5000 Du        
    378 ****        -0.5000  22.0000  13.7500 Du        
    379 ****        -0.5000  22.0000  14.0000 Du        
    380 ****        -0.5000  22.0000  14.2500 Du        
    381 ****        -0.5000  22.0000  14.5000 Du        
    382 ****        -0.5000  22.2500  13.7500 Du        
    383 ****        -0.5000  22.2500  14.0000 Du        
    384 ****        -0.5000  22.2500  14.2500 Du        
    385 ****        -0.5000  22.5000  13.7500 Du        
    386 ****        -0.5000  22.5000  14.0000 Du        
    387 ****        -0.5000  22.5000  14.2500 Du        
    388 ****        -0.5000  22.7500  14.0000 Du        
    389 ****        -0.5000  30.2500  21.5000 Du        
    390 ****        -0.5000  30.2500  21.7500 Du        
    391 ****        -0.5000  30.5000  21.2500 Du        
    392 ****        -0.5000  30.5000  21.5000 Du        
    393 ****        -0.5000  30.5000  21.7500 Du        
    394 ****        -0.5000  30.7500  14.5000 Du        
    395 ****        -0.5000  30.7500  14.7500 Du        
    396 ****        -0.5000  30.7500  21.0000 Du        
    397 ****        -0.5000  30.7500  21.2500 Du        
    398 ****        -0.5000  30.7500  21.5000 Du        
    399 ****        -0.5000  30.7500  21.7500 Du        
    400 ****        -0.5000  31.0000  13.5000 Du        
    401 ****        -0.5000  31.0000  13.7500 Du        
    402 ****        -0.5000  31.0000  14.0000 Du        
    403 ****        -0.5000  31.0000  14.2500 Du        
    404 ****        -0.5000  31.0000  14.5000 Du        
    405 ****        -0.5000  31.0000  20.7500 Du        
    406 ****        -0.5000  31.0000  21.0000 Du        
    407 ****        -0.5000  31.0000  21.2500 Du        
    408 ****        -0.5000  31.0000  21.5000 Du        
    409 ****        -0.5000  31.0000  21.7500 Du        
    410 ****        -0.5000  31.2500  13.2500 Du        
    411 ****        -0.5000  31.2500  13.5000 Du        
    412 ****        -0.5000  31.2500  13.7500 Du        
    413 ****        -0.5000  31.2500  14.0000 Du        
    414 ****        -0.5000  31.2500  14.2500 Du        
    415 ****        -0.5000  31.2500  20.5000 Du        
    416 ****        -0.5000  31.2500  20.7500 Du        
    417 ****        -0.5000  31.2500  21.0000 Du        
    418 ****        -0.5000  31.2500  21.2500 Du        
    419 ****        -0.5000  31.2500  21.5000 Du        
    420 ****        -0.5000  31.2500  21.7500 Du        
    421 ****        -0.5000  31.5000  20.5000 Du        
    422 ****        -0.5000  31.5000  20.7500 Du        
    423 ****        -0.5000  31.5000  21.0000 Du        
    424 ****        -0.5000  31.5000  21.2500 Du        
    425 ****        -0.5000  31.5000  21.5000 Du        
    426 ****        -0.5000  31.5000  21.7500 Du        
    427 ****        -0.5000  31.7500  20.2500 Du        
    428 ****        -0.5000  31.7500  20.5000 Du        
    429 ****        -0.5000  31.7500  20.7500 Du        
    430 ****        -0.5000  31.7500  21.0000 Du        
    431 ****        -0.5000  31.7500  21.2500 Du        
    432 ****        -0.5000  31.7500  21.5000 Du        
    433 ****        -0.5000  31.7500  21.7500 Du        
    434 ****        -0.5000  32.0000  20.0000 Du        
    435 ****        -0.5000  32.0000  20.2500 Du        
    436 ****        -0.5000  32.0000  20.5000 Du        
    437 ****        -0.5000  32.0000  20.7500 Du        
    438 ****        -0.5000  32.0000  21.0000 Du        
    439 ****        -0.5000  32.0000  21.2500 Du        
    440 ****        -0.5000  32.0000  21.5000 Du        
    441 ****        -0.5000  32.0000  21.7500 Du        
    442 ****        -0.5000  32.2500  20.0000 Du        
    443 ****        -0.5000  32.2500  20.2500 Du        
    444 ****        -0.5000  32.2500  20.5000 Du        
    445 ****        -0.5000  32.2500  20.7500 Du        
    446 ****        -0.5000  32.2500  21.0000 Du        
    447 ****        -0.5000  32.2500  21.2500 Du        
    448 ****        -0.5000  32.2500  21.5000 Du        
    449 ****        -0.5000  32.2500  21.7500 Du        
    450 ****        -0.5000  32.5000  20.2500 Du        
    451 ****        -0.5000  32.5000  20.5000 Du        
    452 ****        -0.5000  32.5000  20.7500 Du        
    453 ****        -0.5000  32.5000  21.0000 Du        
    454 ****        -0.5000  32.5000  21.2500 Du        
    455 ****        -0.5000  32.5000  21.5000 Du        
    456 ****        -0.5000  32.5000  21.7500 Du        
    457 ****        -0.5000  32.7500  20.7500 Du        
    458 ****        -0.5000  32.7500  21.0000 Du        
    459 ****        -0.5000  32.7500  21.2500 Du        
    460 ****        -0.5000  32.7500  21.5000 Du        
    461 ****        -0.5000  32.7500  21.7500 Du        
    462 ****        -0.5000  33.0000  21.0000 Du        
    463 ****        -0.5000  33.0000  21.2500 Du        
    464 ****        -0.5000  33.0000  21.5000 Du        
    465 ****        -0.5000  33.0000  21.7500 Du        
    466 ****        -0.5000  33.2500  21.0000 Du        
    467 ****        -0.5000  33.2500  21.2500 Du        
    468 ****        -0.5000  33.2500  21.5000 Du        
    469 ****        -0.2500  18.2500  14.0000 Du        
    470 ****        -0.2500  18.2500  14.5000 Du        
    471 ****        -0.2500  18.2500  14.7500 Du        
    472 ****        -0.2500  18.2500  15.0000 Du        
    473 ****        -0.2500  18.5000  14.0000 Du        
    474 ****        -0.2500  18.5000  14.2500 Du        
    475 ****        -0.2500  18.5000  14.5000 Du        
    476 ****        -0.2500  18.5000  14.7500 Du        
    477 ****        -0.2500  18.5000  15.0000 Du        
    478 ****        -0.2500  18.5000  15.2500 Du        
    479 ****        -0.2500  18.7500  13.7500 Du        
    480 ****        -0.2500  18.7500  14.0000 Du        
    481 ****        -0.2500  18.7500  14.2500 Du        
    482 ****        -0.2500  18.7500  14.5000 Du        
    483 ****        -0.2500  18.7500  14.7500 Du        
    484 ****        -0.2500  18.7500  15.0000 Du        
    485 ****        -0.2500  18.7500  15.2500 Du        
    486 ****        -0.2500  19.0000  13.7500 Du        
    487 ****        -0.2500  19.0000  14.0000 Du        
    488 ****        -0.2500  19.0000  14.2500 Du        
    489 ****        -0.2500  19.0000  14.5000 Du        
    490 ****        -0.2500  19.0000  14.7500 Du        
    491 ****        -0.2500  19.0000  15.0000 Du        
    492 ****        -0.2500  19.0000  15.2500 Du        
    493 ****        -0.2500  19.0000  15.5000 Du        
    494 ****        -0.2500  19.2500  13.7500 Du        
    495 ****        -0.2500  19.2500  14.0000 Du        
    496 ****        -0.2500  19.2500  14.2500 Du        
    497 ****        -0.2500  19.2500  14.5000 Du        
    498 ****        -0.2500  19.2500  14.7500 Du        
    499 ****        -0.2500  19.2500  15.0000 Du        
    500 ****        -0.2500  19.2500  15.2500 Du        
    501 ****        -0.2500  19.2500  15.5000 Du        
    502 ****        -0.2500  19.5000  13.7500 Du        
    503 ****        -0.2500  19.5000  14.0000 Du        
    504 ****        -0.2500  19.5000  14.2500 Du        
    505 ****        -0.2500  19.5000  14.5000 Du        
    506 ****        -0.2500  19.5000  14.7500 Du        
    507 ****        -0.2500  19.5000  15.0000 Du        
    508 ****        -0.2500  19.5000  15.2500 Du        
    509 ****        -0.2500  19.5000  15.5000 Du        
    510 ****        -0.2500  19.7500  13.7500 Du        
    511 ****        -0.2500  19.7500  14.0000 Du        
    512 ****        -0.2500  19.7500  14.2500 Du        
    513 ****        -0.2500  19.7500  14.5000 Du        
    514 ****        -0.2500  19.7500  14.7500 Du        
    515 ****        -0.2500  19.7500  15.0000 Du        
    516 ****        -0.2500  19.7500  15.2500 Du        
    517 ****        -0.2500  19.7500  15.5000 Du        
    518 ****        -0.2500  20.0000  13.7500 Du        
    519 ****        -0.2500  20.0000  14.0000 Du        
    520 ****        -0.2500  20.0000  14.2500 Du        
    521 ****        -0.2500  20.0000  14.5000 Du        
    522 ****        -0.2500  20.0000  14.7500 Du        
    523 ****        -0.2500  20.0000  15.0000 Du        
    524 ****        -0.2500  20.0000  15.2500 Du        
    525 ****        -0.2500  20.0000  15.5000 Du        
    526 ****        -0.2500  20.0000  15.7500 Du        
    527 ****        -0.2500  20.2500  13.7500 Du        
    528 ****        -0.2500  20.2500  14.0000 Du        
    529 ****        -0.2500  20.2500  14.2500 Du        
    530 ****        -0.2500  20.2500  14.5000 Du        
    531 ****        -0.2500  20.2500  14.7500 Du        
    532 ****        -0.2500  20.2500  15.0000 Du        
    533 ****        -0.2500  20.2500  15.2500 Du        
    534 ****        -0.2500  20.2500  15.5000 Du        
    535 ****        -0.2500  20.2500  15.7500 Du        
    536 ****        -0.2500  20.5000  13.7500 Du        
    537 ****        -0.2500  20.5000  14.0000 Du        
    538 ****        -0.2500  20.5000  14.2500 Du        
    539 ****        -0.2500  20.5000  14.5000 Du        
    540 ****        -0.2500  20.5000  14.7500 Du        
    541 ****        -0.2500  20.5000  15.0000 Du        
    542 ****        -0.2500  20.5000  15.2500 Du        
    543 ****        -0.2500  20.5000  15.5000 Du        
    544 ****        -0.2500  20.5000  15.7500 Du        
    545 ****        -0.2500  20.7500  13.7500 Du        
    546 ****        -0.2500  20.7500  14.0000 Du        
    547 ****        -0.2500  20.7500  14.2500 Du        
    548 ****        -0.2500  20.7500  14.5000 Du        
    549 ****        -0.2500  20.7500  14.7500 Du        
    550 ****        -0.2500  20.7500  15.0000 Du        
    551 ****        -0.2500  20.7500  15.2500 Du        
    552 ****        -0.2500  20.7500  15.5000 Du        
    553 ****        -0.2500  21.0000  13.7500 Du        
    554 ****        -0.2500  21.0000  14.0000 Du        
    555 ****        -0.2500  21.0000  14.2500 Du        
    556 ****        -0.2500  21.0000  14.5000 Du        
    557 ****        -0.2500  21.0000  14.7500 Du        
    558 ****        -0.2500  21.0000  15.0000 Du        
    559 ****        -0.2500  21.0000  15.2500 Du        
    560 ****        -0.2500  21.2500  13.7500 Du        
    561 ****        -0.2500  21.2500  14.0000 Du        
    562 ****        -0.2500  21.2500  14.2500 Du        
    563 ****        -0.2500  21.2500  14.5000 Du        
    564 ****        -0.2500  21.2500  14.7500 Du        
    565 ****        -0.2500  21.2500  15.0000 Du        
    566 ****        -0.2500  21.5000  13.7500 Du        
    567 ****        -0.2500  21.5000  14.0000 Du        
    568 ****        -0.2500  21.5000  14.2500 Du        
    569 ****        -0.2500  21.5000  14.5000 Du        
    570 ****        -0.2500  21.5000  14.7500 Du        
    571 ****        -0.2500  21.7500  13.7500 Du        
    572 ****        -0.2500  21.7500  14.0000 Du        
    573 ****        -0.2500  21.7500  14.2500 Du        
    574 ****        -0.2500  21.7500  14.5000 Du        
    575 ****        -0.2500  21.7500  14.7500 Du        
    576 ****        -0.2500  22.0000  13.7500 Du        
    577 ****        -0.2500  22.0000  14.0000 Du        
    578 ****        -0.2500  22.0000  14.2500 Du        
    579 ****        -0.2500  22.0000  14.5000 Du        
    580 ****        -0.2500  22.2500  13.7500 Du        
    581 ****        -0.2500  22.2500  14.0000 Du        
    582 ****        -0.2500  22.2500  14.2500 Du        
    583 ****        -0.2500  22.5000  14.0000 Du        
    584 ****        -0.2500  22.5000  14.2500 Du        
    585 ****        -0.2500  26.5000   7.5000 Du        
    586 ****        -0.2500  30.0000  21.5000 Du        
    587 ****        -0.2500  30.0000  21.7500 Du        
    588 ****        -0.2500  30.2500  21.5000 Du        
    589 ****        -0.2500  30.2500  21.7500 Du        
    590 ****        -0.2500  30.5000  21.2500 Du        
    591 ****        -0.2500  30.5000  21.5000 Du        
    592 ****        -0.2500  30.5000  21.7500 Du        
    593 ****        -0.2500  30.7500  21.0000 Du        
    594 ****        -0.2500  30.7500  21.2500 Du        
    595 ****        -0.2500  30.7500  21.5000 Du        
    596 ****        -0.2500  30.7500  21.7500 Du        
    597 ****        -0.2500  31.0000  13.7500 Du        
    598 ****        -0.2500  31.0000  14.0000 Du        
    599 ****        -0.2500  31.0000  20.7500 Du        
    600 ****        -0.2500  31.0000  21.0000 Du        
    601 ****        -0.2500  31.0000  21.2500 Du        
    602 ****        -0.2500  31.0000  21.5000 Du        
    603 ****        -0.2500  31.0000  21.7500 Du        
    604 ****        -0.2500  31.2500  13.0000 Du        
    605 ****        -0.2500  31.2500  13.2500 Du        
    606 ****        -0.2500  31.2500  13.5000 Du        
    607 ****        -0.2500  31.2500  13.7500 Du        
    608 ****        -0.2500  31.2500  14.0000 Du        
    609 ****        -0.2500  31.2500  20.5000 Du        
    610 ****        -0.2500  31.2500  20.7500 Du        
    611 ****        -0.2500  31.2500  21.0000 Du        
    612 ****        -0.2500  31.2500  21.2500 Du        
    613 ****        -0.2500  31.2500  21.5000 Du        
    614 ****        -0.2500  31.2500  21.7500 Du        
    615 ****        -0.2500  31.5000  20.5000 Du        
    616 ****        -0.2500  31.5000  20.7500 Du        
    617 ****        -0.2500  31.5000  21.0000 Du        
    618 ****        -0.2500  31.5000  21.2500 Du        
    619 ****        -0.2500  31.5000  21.5000 Du        
    620 ****        -0.2500  31.5000  21.7500 Du        
    621 ****        -0.2500  31.7500  20.0000 Du        
    622 ****        -0.2500  31.7500  20.2500 Du        
    623 ****        -0.2500  31.7500  20.5000 Du        
    624 ****        -0.2500  31.7500  20.7500 Du        
    625 ****        -0.2500  31.7500  21.0000 Du        
    626 ****        -0.2500  31.7500  21.2500 Du        
    627 ****        -0.2500  31.7500  21.5000 Du        
    628 ****        -0.2500  31.7500  21.7500 Du        
    629 ****        -0.2500  32.0000  20.0000 Du        
    630 ****        -0.2500  32.0000  20.2500 Du        
    631 ****        -0.2500  32.0000  20.5000 Du        
    632 ****        -0.2500  32.0000  20.7500 Du        
    633 ****        -0.2500  32.0000  21.0000 Du        
    634 ****        -0.2500  32.0000  21.2500 Du        
    635 ****        -0.2500  32.0000  21.5000 Du        
    636 ****        -0.2500  32.0000  21.7500 Du        
    637 ****        -0.2500  32.2500  19.7500 Du        
    638 ****        -0.2500  32.2500  20.0000 Du        
    639 ****        -0.2500  32.2500  20.2500 Du        
    640 ****        -0.2500  32.2500  20.5000 Du        
    641 ****        -0.2500  32.2500  20.7500 Du        
    642 ****        -0.2500  32.2500  21.0000 Du        
    643 ****        -0.2500  32.2500  21.2500 Du        
    644 ****        -0.2500  32.2500  21.5000 Du        
    645 ****        -0.2500  32.2500  21.7500 Du        
    646 ****        -0.2500  32.5000  19.7500 Du        
    647 ****        -0.2500  32.5000  20.0000 Du        
    648 ****        -0.2500  32.5000  20.2500 Du        
    649 ****        -0.2500  32.5000  20.5000 Du        
    650 ****        -0.2500  32.5000  20.7500 Du        
    651 ****        -0.2500  32.5000  21.0000 Du        
    652 ****        -0.2500  32.5000  21.2500 Du        
    653 ****        -0.2500  32.5000  21.5000 Du        
    654 ****        -0.2500  32.5000  21.7500 Du        
    655 ****        -0.2500  32.7500  19.7500 Du        
    656 ****        -0.2500  32.7500  20.0000 Du        
    657 ****        -0.2500  32.7500  20.2500 Du        
    658 ****        -0.2500  32.7500  20.5000 Du        
    659 ****        -0.2500  32.7500  20.7500 Du        
    660 ****        -0.2500  32.7500  21.0000 Du        
    661 ****        -0.2500  32.7500  21.2500 Du        
    662 ****        -0.2500  32.7500  21.5000 Du        
    663 ****        -0.2500  32.7500  21.7500 Du        
    664 ****        -0.2500  33.0000  20.0000 Du        
    665 ****        -0.2500  33.0000  20.2500 Du        
    666 ****        -0.2500  33.0000  20.5000 Du        
    667 ****        -0.2500  33.0000  20.7500 Du        
    668 ****        -0.2500  33.0000  21.0000 Du        
    669 ****        -0.2500  33.0000  21.2500 Du        
    670 ****        -0.2500  33.0000  21.5000 Du        
    671 ****        -0.2500  33.0000  21.7500 Du        
    672 ****        -0.2500  33.2500  20.7500 Du        
    673 ****        -0.2500  33.2500  21.0000 Du        
    674 ****        -0.2500  33.2500  21.2500 Du        
    675 ****        -0.2500  33.2500  21.5000 Du        
    676 ****         0.0000  18.2500  13.7500 Du        
    677 ****         0.0000  18.2500  14.0000 Du        
    678 ****         0.0000  18.2500  14.2500 Du        
    679 ****         0.0000  18.2500  14.5000 Du        
    680 ****         0.0000  18.2500  14.7500 Du        
    681 ****         0.0000  18.5000  13.5000 Du        
    682 ****         0.0000  18.5000  13.7500 Du        
    683 ****         0.0000  18.5000  14.0000 Du        
    684 ****         0.0000  18.5000  14.2500 Du        
    685 ****         0.0000  18.5000  14.5000 Du        
    686 ****         0.0000  18.5000  14.7500 Du        
    687 ****         0.0000  18.5000  15.0000 Du        
    688 ****         0.0000  18.5000  15.2500 Du        
    689 ****         0.0000  18.5000  15.5000 Du        
    690 ****         0.0000  18.7500  13.5000 Du        
    691 ****         0.0000  18.7500  13.7500 Du        
    692 ****         0.0000  18.7500  14.0000 Du        
    693 ****         0.0000  18.7500  14.2500 Du        
    694 ****         0.0000  18.7500  14.5000 Du        
    695 ****         0.0000  18.7500  14.7500 Du        
    696 ****         0.0000  18.7500  15.0000 Du        
    697 ****         0.0000  18.7500  15.2500 Du        
    698 ****         0.0000  18.7500  15.5000 Du        
    699 ****         0.0000  19.0000  13.5000 Du        
    700 ****         0.0000  19.0000  13.7500 Du        
    701 ****         0.0000  19.0000  14.0000 Du        
    702 ****         0.0000  19.0000  14.2500 Du        
    703 ****         0.0000  19.0000  14.5000 Du        
    704 ****         0.0000  19.0000  14.7500 Du        
    705 ****         0.0000  19.0000  15.0000 Du        
    706 ****         0.0000  19.0000  15.2500 Du        
    707 ****         0.0000  19.0000  15.5000 Du        
    708 ****         0.0000  19.2500  13.5000 Du        
    709 ****         0.0000  19.2500  13.7500 Du        
    710 ****         0.0000  19.2500  14.0000 Du        
    711 ****         0.0000  19.2500  14.2500 Du        
    712 ****         0.0000  19.2500  14.5000 Du        
    713 ****         0.0000  19.2500  14.7500 Du        
    714 ****         0.0000  19.2500  15.0000 Du        
    715 ****         0.0000  19.2500  15.2500 Du        
    716 ****         0.0000  19.2500  15.5000 Du        
    717 ****         0.0000  19.5000  13.5000 Du        
    718 ****         0.0000  19.5000  13.7500 Du        
    719 ****         0.0000  19.5000  14.0000 Du        
    720 ****         0.0000  19.5000  14.2500 Du        
    721 ****         0.0000  19.5000  14.5000 Du        
    722 ****         0.0000  19.5000  14.7500 Du        
    723 ****         0.0000  19.5000  15.0000 Du        
    724 ****         0.0000  19.5000  15.2500 Du        
    725 ****         0.0000  19.5000  15.5000 Du        
    726 ****         0.0000  19.5000  15.7500 Du        
    727 ****         0.0000  19.7500  13.5000 Du        
    728 ****         0.0000  19.7500  13.7500 Du        
    729 ****         0.0000  19.7500  14.0000 Du        
    730 ****         0.0000  19.7500  14.2500 Du        
    731 ****         0.0000  19.7500  14.5000 Du        
    732 ****         0.0000  19.7500  14.7500 Du        
    733 ****         0.0000  19.7500  15.0000 Du        
    734 ****         0.0000  19.7500  15.2500 Du        
    735 ****         0.0000  19.7500  15.5000 Du        
    736 ****         0.0000  19.7500  15.7500 Du        
    737 ****         0.0000  20.0000  13.5000 Du        
    738 ****         0.0000  20.0000  13.7500 Du        
    739 ****         0.0000  20.0000  14.0000 Du        
    740 ****         0.0000  20.0000  14.2500 Du        
    741 ****         0.0000  20.0000  14.5000 Du        
    742 ****         0.0000  20.0000  14.7500 Du        
    743 ****         0.0000  20.0000  15.0000 Du        
    744 ****         0.0000  20.0000  15.2500 Du        
    745 ****         0.0000  20.0000  15.5000 Du        
    746 ****         0.0000  20.0000  15.7500 Du        
    747 ****         0.0000  20.2500  13.5000 Du        
    748 ****         0.0000  20.2500  13.7500 Du        
    749 ****         0.0000  20.2500  14.0000 Du        
    750 ****         0.0000  20.2500  14.2500 Du        
    751 ****         0.0000  20.2500  14.5000 Du        
    752 ****         0.0000  20.2500  14.7500 Du        
    753 ****         0.0000  20.2500  15.0000 Du        
    754 ****         0.0000  20.2500  15.2500 Du        
    755 ****         0.0000  20.2500  15.5000 Du        
    756 ****         0.0000  20.2500  15.7500 Du        
    757 ****         0.0000  20.2500  16.0000 Du        
    758 ****         0.0000  20.5000  13.7500 Du        
    759 ****         0.0000  20.5000  14.0000 Du        
    760 ****         0.0000  20.5000  14.2500 Du        
    761 ****         0.0000  20.5000  14.5000 Du        
    762 ****         0.0000  20.5000  14.7500 Du        
    763 ****         0.0000  20.5000  15.0000 Du        
    764 ****         0.0000  20.5000  15.2500 Du        
    765 ****         0.0000  20.5000  15.5000 Du        
    766 ****         0.0000  20.5000  15.7500 Du        
    767 ****         0.0000  20.5000  16.0000 Du        
    768 ****         0.0000  20.7500  13.7500 Du        
    769 ****         0.0000  20.7500  14.0000 Du        
    770 ****         0.0000  20.7500  14.2500 Du        
    771 ****         0.0000  20.7500  14.5000 Du        
    772 ****         0.0000  20.7500  14.7500 Du        
    773 ****         0.0000  20.7500  15.0000 Du        
    774 ****         0.0000  20.7500  15.2500 Du        
    775 ****         0.0000  20.7500  15.5000 Du        
    776 ****         0.0000  20.7500  15.7500 Du        
    777 ****         0.0000  20.7500  16.0000 Du        
    778 ****         0.0000  21.0000  13.7500 Du        
    779 ****         0.0000  21.0000  14.0000 Du        
    780 ****         0.0000  21.0000  14.2500 Du        
    781 ****         0.0000  21.0000  14.5000 Du        
    782 ****         0.0000  21.0000  14.7500 Du        
    783 ****         0.0000  21.0000  15.0000 Du        
    784 ****         0.0000  21.0000  15.2500 Du        
    785 ****         0.0000  21.0000  15.5000 Du        
    786 ****         0.0000  21.2500  13.7500 Du        
    787 ****         0.0000  21.2500  14.0000 Du        
    788 ****         0.0000  21.2500  14.2500 Du        
    789 ****         0.0000  21.2500  14.5000 Du        
    790 ****         0.0000  21.2500  14.7500 Du        
    791 ****         0.0000  21.2500  15.0000 Du        
    792 ****         0.0000  21.2500  15.2500 Du        
    793 ****         0.0000  21.5000  13.7500 Du        
    794 ****         0.0000  21.5000  14.0000 Du        
    795 ****         0.0000  21.5000  14.2500 Du        
    796 ****         0.0000  21.5000  14.5000 Du        
    797 ****         0.0000  21.5000  14.7500 Du        
    798 ****         0.0000  21.5000  15.0000 Du        
    799 ****         0.0000  21.7500  13.7500 Du        
    800 ****         0.0000  21.7500  14.0000 Du        
    801 ****         0.0000  21.7500  14.2500 Du        
    802 ****         0.0000  21.7500  14.5000 Du        
    803 ****         0.0000  21.7500  14.7500 Du        
    804 ****         0.0000  22.0000  14.0000 Du        
    805 ****         0.0000  22.0000  14.2500 Du        
    806 ****         0.0000  22.0000  14.5000 Du        
    807 ****         0.0000  26.2500   7.5000 Du        
    808 ****         0.0000  26.2500   7.7500 Du        
    809 ****         0.0000  26.5000   7.2500 Du        
    810 ****         0.0000  26.5000   7.5000 Du        
    811 ****         0.0000  26.5000   7.7500 Du        
    812 ****         0.0000  26.7500   7.2500 Du        
    813 ****         0.0000  26.7500   7.5000 Du        
    814 ****         0.0000  26.7500   7.7500 Du        
    815 ****         0.0000  26.7500   8.0000 Du        
    816 ****         0.0000  27.0000   7.2500 Du        
    817 ****         0.0000  27.0000   7.5000 Du        
    818 ****         0.0000  27.0000   7.7500 Du        
    819 ****         0.0000  27.0000   8.0000 Du        
    820 ****         0.0000  27.2500   7.5000 Du        
    821 ****         0.0000  27.2500   7.7500 Du        
    822 ****         0.0000  27.2500   8.0000 Du        
    823 ****         0.0000  27.7500   7.7500 Du        
    824 ****         0.0000  27.7500   8.0000 Du        
    825 ****         0.0000  28.0000   8.0000 Du        
    826 ****         0.0000  30.0000  21.7500 Du        
    827 ****         0.0000  30.2500  21.5000 Du        
    828 ****         0.0000  30.2500  21.7500 Du        
    829 ****         0.0000  30.5000  21.2500 Du        
    830 ****         0.0000  30.7500  21.0000 Du        
    831 ****         0.0000  30.7500  21.2500 Du        
    832 ****         0.0000  30.7500  21.5000 Du        
    833 ****         0.0000  31.0000  20.7500 Du        
    834 ****         0.0000  31.0000  21.0000 Du        
    835 ****         0.0000  31.0000  21.2500 Du        
    836 ****         0.0000  31.0000  21.5000 Du        
    837 ****         0.0000  31.2500  12.2500 Du        
    838 ****         0.0000  31.2500  12.5000 Du        
    839 ****         0.0000  31.2500  12.7500 Du        
    840 ****         0.0000  31.2500  13.0000 Du        
    841 ****         0.0000  31.2500  13.2500 Du        
    842 ****         0.0000  31.2500  13.5000 Du        
    843 ****         0.0000  31.2500  20.5000 Du        
    844 ****         0.0000  31.2500  20.7500 Du        
    845 ****         0.0000  31.2500  21.0000 Du        
    846 ****         0.0000  31.2500  21.2500 Du        
    847 ****         0.0000  31.2500  21.5000 Du        
    848 ****         0.0000  31.2500  21.7500 Du        
    849 ****         0.0000  31.5000  20.5000 Du        
    850 ****         0.0000  31.5000  20.7500 Du        
    851 ****         0.0000  31.5000  21.0000 Du        
    852 ****         0.0000  31.5000  21.2500 Du        
    853 ****         0.0000  31.5000  21.5000 Du        
    854 ****         0.0000  31.7500  20.0000 Du        
    855 ****         0.0000  31.7500  20.2500 Du        
    856 ****         0.0000  31.7500  20.5000 Du        
    857 ****         0.0000  31.7500  20.7500 Du        
    858 ****         0.0000  31.7500  21.0000 Du        
    859 ****         0.0000  31.7500  21.2500 Du        
    860 ****         0.0000  31.7500  21.5000 Du        
    861 ****         0.0000  31.7500  21.7500 Du        
    862 ****         0.0000  32.0000  19.7500 Du        
    863 ****         0.0000  32.0000  20.0000 Du        
    864 ****         0.0000  32.0000  20.2500 Du        
    865 ****         0.0000  32.0000  20.5000 Du        
    866 ****         0.0000  32.0000  20.7500 Du        
    867 ****         0.0000  32.0000  21.0000 Du        
    868 ****         0.0000  32.0000  21.2500 Du        
    869 ****         0.0000  32.0000  21.5000 Du        
    870 ****         0.0000  32.0000  21.7500 Du        
    871 ****         0.0000  32.2500  19.5000 Du        
    872 ****         0.0000  32.2500  19.7500 Du        
    873 ****         0.0000  32.2500  20.0000 Du        
    874 ****         0.0000  32.2500  20.2500 Du        
    875 ****         0.0000  32.2500  20.5000 Du        
    876 ****         0.0000  32.2500  20.7500 Du        
    877 ****         0.0000  32.2500  21.0000 Du        
    878 ****         0.0000  32.2500  21.2500 Du        
    879 ****         0.0000  32.2500  21.5000 Du        
    880 ****         0.0000  32.2500  21.7500 Du        
    881 ****         0.0000  32.5000  19.5000 Du        
    882 ****         0.0000  32.5000  19.7500 Du        
    883 ****         0.0000  32.5000  20.0000 Du        
    884 ****         0.0000  32.5000  20.2500 Du        
    885 ****         0.0000  32.5000  20.5000 Du        
    886 ****         0.0000  32.5000  20.7500 Du        
    887 ****         0.0000  32.5000  21.0000 Du        
    888 ****         0.0000  32.5000  21.2500 Du        
    889 ****         0.0000  32.5000  21.5000 Du        
    890 ****         0.0000  32.5000  21.7500 Du        
    891 ****         0.0000  32.7500  19.5000 Du        
    892 ****         0.0000  32.7500  19.7500 Du        
    893 ****         0.0000  32.7500  20.0000 Du        
    894 ****         0.0000  32.7500  20.2500 Du        
    895 ****         0.0000  32.7500  20.5000 Du        
    896 ****         0.0000  32.7500  20.7500 Du        
    897 ****         0.0000  32.7500  21.0000 Du        
    898 ****         0.0000  32.7500  21.2500 Du        
    899 ****         0.0000  32.7500  21.5000 Du        
    900 ****         0.0000  32.7500  21.7500 Du        
    901 ****         0.0000  33.0000  19.5000 Du        
    902 ****         0.0000  33.0000  19.7500 Du        
    903 ****         0.0000  33.0000  20.0000 Du        
    904 ****         0.0000  33.0000  20.2500 Du        
    905 ****         0.0000  33.0000  20.5000 Du        
    906 ****         0.0000  33.0000  20.7500 Du        
    907 ****         0.0000  33.0000  21.0000 Du        
    908 ****         0.0000  33.0000  21.2500 Du        
    909 ****         0.0000  33.0000  21.5000 Du        
    910 ****         0.0000  33.0000  21.7500 Du        
    911 ****         0.0000  33.2500  19.7500 Du        
    912 ****         0.0000  33.2500  20.0000 Du        
    913 ****         0.0000  33.2500  20.2500 Du        
    914 ****         0.0000  33.2500  20.5000 Du        
    915 ****         0.0000  33.2500  20.7500 Du        
    916 ****         0.0000  33.2500  21.0000 Du        
    917 ****         0.0000  33.2500  21.2500 Du        
    918 ****         0.0000  33.2500  21.5000 Du        
    919 ****         0.0000  33.2500  21.7500 Du        
    920 ****         0.0000  33.5000  20.0000 Du        
    921 ****         0.0000  33.5000  20.2500 Du        
    922 ****         0.0000  33.5000  20.7500 Du        
    923 ****         0.0000  33.5000  21.0000 Du        
    924 ****         0.0000  33.5000  21.2500 Du        
    925 ****         0.0000  33.7500  20.0000 Du        
    926 ****         0.0000  33.7500  20.2500 Du        
    927 ****         0.0000  33.7500  21.0000 Du        
    928 ****         0.0000  33.7500  21.2500 Du        
    929 ****         0.2500  18.2500  13.5000 Du        
    930 ****         0.2500  18.2500  13.7500 Du        
    931 ****         0.2500  18.2500  14.0000 Du        
    932 ****         0.2500  18.5000  13.5000 Du        
    933 ****         0.2500  18.5000  13.7500 Du        
    934 ****         0.2500  18.5000  14.0000 Du        
    935 ****         0.2500  18.5000  14.2500 Du        
    936 ****         0.2500  18.5000  14.5000 Du        
    937 ****         0.2500  18.5000  14.7500 Du        
    938 ****         0.2500  18.5000  15.0000 Du        
    939 ****         0.2500  18.5000  15.2500 Du        
    940 ****         0.2500  18.5000  15.5000 Du        
    941 ****         0.2500  18.7500  13.2500 Du        
    942 ****         0.2500  18.7500  13.5000 Du        
    943 ****         0.2500  18.7500  13.7500 Du        
    944 ****         0.2500  18.7500  14.0000 Du        
    945 ****         0.2500  18.7500  14.2500 Du        
    946 ****         0.2500  18.7500  14.5000 Du        
    947 ****         0.2500  18.7500  14.7500 Du        
    948 ****         0.2500  18.7500  15.0000 Du        
    949 ****         0.2500  18.7500  15.2500 Du        
    950 ****         0.2500  18.7500  15.5000 Du        
    951 ****         0.2500  18.7500  15.7500 Du        
    952 ****         0.2500  19.0000  13.5000 Du        
    953 ****         0.2500  19.0000  13.7500 Du        
    954 ****         0.2500  19.0000  14.0000 Du        
    955 ****         0.2500  19.0000  14.2500 Du        
    956 ****         0.2500  19.0000  14.5000 Du        
    957 ****         0.2500  19.0000  14.7500 Du        
    958 ****         0.2500  19.0000  15.0000 Du        
    959 ****         0.2500  19.0000  15.2500 Du        
    960 ****         0.2500  19.0000  15.5000 Du        
    961 ****         0.2500  19.0000  15.7500 Du        
    962 ****         0.2500  19.2500  13.5000 Du        
    963 ****         0.2500  19.2500  13.7500 Du        
    964 ****         0.2500  19.2500  14.0000 Du        
    965 ****         0.2500  19.2500  14.2500 Du        
    966 ****         0.2500  19.2500  14.5000 Du        
    967 ****         0.2500  19.2500  14.7500 Du        
    968 ****         0.2500  19.2500  15.0000 Du        
    969 ****         0.2500  19.2500  15.2500 Du        
    970 ****         0.2500  19.2500  15.5000 Du        
    971 ****         0.2500  19.2500  15.7500 Du        
    972 ****         0.2500  19.5000  13.5000 Du        
    973 ****         0.2500  19.5000  13.7500 Du        
    974 ****         0.2500  19.5000  14.0000 Du        
    975 ****         0.2500  19.5000  14.2500 Du        
    976 ****         0.2500  19.5000  14.5000 Du        
    977 ****         0.2500  19.5000  14.7500 Du        
    978 ****         0.2500  19.5000  15.0000 Du        
    979 ****         0.2500  19.5000  15.2500 Du        
    980 ****         0.2500  19.5000  15.5000 Du        
    981 ****         0.2500  19.5000  15.7500 Du        
    982 ****         0.2500  19.7500  13.5000 Du        
    983 ****         0.2500  19.7500  13.7500 Du        
    984 ****         0.2500  19.7500  14.0000 Du        
    985 ****         0.2500  19.7500  14.2500 Du        
    986 ****         0.2500  19.7500  14.5000 Du        
    987 ****         0.2500  19.7500  14.7500 Du        
    988 ****         0.2500  19.7500  15.0000 Du        
    989 ****         0.2500  19.7500  15.2500 Du        
    990 ****         0.2500  19.7500  15.5000 Du        
    991 ****         0.2500  19.7500  15.7500 Du        
    992 ****         0.2500  20.0000  13.5000 Du        
    993 ****         0.2500  20.0000  13.7500 Du        
    994 ****         0.2500  20.0000  14.0000 Du        
    995 ****         0.2500  20.0000  14.2500 Du        
    996 ****         0.2500  20.0000  14.5000 Du        
    997 ****         0.2500  20.0000  14.7500 Du        
    998 ****         0.2500  20.0000  15.0000 Du        
    999 ****         0.2500  20.0000  15.2500 Du        
   1000 ****         0.2500  20.0000  15.5000 Du        
   1001 ****         0.2500  20.0000  15.7500 Du        
   1002 ****         0.2500  20.0000  16.0000 Du        
   1003 ****         0.2500  20.2500  13.5000 Du        
   1004 ****         0.2500  20.2500  13.7500 Du        
   1005 ****         0.2500  20.2500  14.0000 Du        
   1006 ****         0.2500  20.2500  14.2500 Du        
   1007 ****         0.2500  20.2500  14.5000 Du        
   1008 ****         0.2500  20.2500  14.7500 Du        
   1009 ****         0.2500  20.2500  15.0000 Du        
   1010 ****         0.2500  20.2500  15.2500 Du        
   1011 ****         0.2500  20.2500  15.5000 Du        
   1012 ****         0.2500  20.2500  15.7500 Du        
   1013 ****         0.2500  20.2500  16.0000 Du        
   1014 ****         0.2500  20.5000  13.5000 Du        
   1015 ****         0.2500  20.5000  13.7500 Du        
   1016 ****         0.2500  20.5000  14.0000 Du        
   1017 ****         0.2500  20.5000  14.2500 Du        
   1018 ****         0.2500  20.5000  14.5000 Du        
   1019 ****         0.2500  20.5000  14.7500 Du        
   1020 ****         0.2500  20.5000  15.0000 Du        
   1021 ****         0.2500  20.5000  15.2500 Du        
   1022 ****         0.2500  20.5000  15.5000 Du        
   1023 ****         0.2500  20.5000  15.7500 Du        
   1024 ****         0.2500  20.5000  16.0000 Du        
   1025 ****         0.2500  20.7500  13.7500 Du        
   1026 ****         0.2500  20.7500  14.0000 Du        
   1027 ****         0.2500  20.7500  14.2500 Du        
   1028 ****         0.2500  20.7500  14.5000 Du        
   1029 ****         0.2500  20.7500  14.7500 Du        
   1030 ****         0.2500  20.7500  15.0000 Du        
   1031 ****         0.2500  20.7500  15.2500 Du        
   1032 ****         0.2500  20.7500  15.5000 Du        
   1033 ****         0.2500  20.7500  15.7500 Du        
   1034 ****         0.2500  20.7500  16.0000 Du        
   1035 ****         0.2500  21.0000  13.7500 Du        
   1036 ****         0.2500  21.0000  14.0000 Du        
   1037 ****         0.2500  21.0000  14.2500 Du        
   1038 ****         0.2500  21.0000  14.5000 Du        
   1039 ****         0.2500  21.0000  14.7500 Du        
   1040 ****         0.2500  21.0000  15.0000 Du        
   1041 ****         0.2500  21.0000  15.2500 Du        
   1042 ****         0.2500  21.0000  15.5000 Du        
   1043 ****         0.2500  21.0000  15.7500 Du        
   1044 ****         0.2500  21.0000  16.0000 Du        
   1045 ****         0.2500  21.2500  13.7500 Du        
   1046 ****         0.2500  21.2500  14.0000 Du        
   1047 ****         0.2500  21.2500  14.2500 Du        
   1048 ****         0.2500  21.2500  14.5000 Du        
   1049 ****         0.2500  21.2500  14.7500 Du        
   1050 ****         0.2500  21.2500  15.0000 Du        
   1051 ****         0.2500  21.2500  15.2500 Du        
   1052 ****         0.2500  21.2500  15.5000 Du        
   1053 ****         0.2500  21.5000  14.0000 Du        
   1054 ****         0.2500  21.5000  14.2500 Du        
   1055 ****         0.2500  21.5000  14.5000 Du        
   1056 ****         0.2500  21.5000  14.7500 Du        
   1057 ****         0.2500  21.7500  14.0000 Du        
   1058 ****         0.2500  21.7500  14.2500 Du        
   1059 ****         0.2500  26.2500   7.2500 Du        
   1060 ****         0.2500  26.2500   7.5000 Du        
   1061 ****         0.2500  26.2500   7.7500 Du        
   1062 ****         0.2500  26.5000   7.0000 Du        
   1063 ****         0.2500  26.5000   7.2500 Du        
   1064 ****         0.2500  26.5000   7.5000 Du        
   1065 ****         0.2500  26.5000   7.7500 Du        
   1066 ****         0.2500  26.7500   7.0000 Du        
   1067 ****         0.2500  26.7500   7.2500 Du        
   1068 ****         0.2500  26.7500   7.5000 Du        
   1069 ****         0.2500  26.7500   7.7500 Du        
   1070 ****         0.2500  26.7500   8.0000 Du        
   1071 ****         0.2500  27.0000   7.0000 Du        
   1072 ****         0.2500  27.0000   7.2500 Du        
   1073 ****         0.2500  27.0000   7.5000 Du        
   1074 ****         0.2500  27.0000   7.7500 Du        
   1075 ****         0.2500  27.0000   8.0000 Du        
   1076 ****         0.2500  27.0000   8.2500 Du        
   1077 ****         0.2500  27.2500   7.2500 Du        
   1078 ****         0.2500  27.2500   7.5000 Du        
   1079 ****         0.2500  27.2500   7.7500 Du        
   1080 ****         0.2500  27.2500   8.0000 Du        
   1081 ****         0.2500  27.2500   8.2500 Du        
   1082 ****         0.2500  27.5000   7.2500 Du        
   1083 ****         0.2500  27.5000   7.5000 Du        
   1084 ****         0.2500  27.5000   7.7500 Du        
   1085 ****         0.2500  27.5000   8.0000 Du        
   1086 ****         0.2500  27.5000   8.2500 Du        
   1087 ****         0.2500  27.5000   8.5000 Du        
   1088 ****         0.2500  27.7500   7.2500 Du        
   1089 ****         0.2500  27.7500   7.5000 Du        
   1090 ****         0.2500  27.7500   7.7500 Du        
   1091 ****         0.2500  27.7500   8.0000 Du        
   1092 ****         0.2500  27.7500   8.2500 Du        
   1093 ****         0.2500  27.7500   8.5000 Du        
   1094 ****         0.2500  28.0000   7.2500 Du        
   1095 ****         0.2500  28.0000   7.5000 Du        
   1096 ****         0.2500  28.0000   7.7500 Du        
   1097 ****         0.2500  28.0000   8.0000 Du        
   1098 ****         0.2500  28.0000   8.2500 Du        
   1099 ****         0.2500  31.0000  12.2500 Du        
   1100 ****         0.2500  31.0000  12.7500 Du        
   1101 ****         0.2500  31.2500  12.0000 Du        
   1102 ****         0.2500  31.2500  12.2500 Du        
   1103 ****         0.2500  31.2500  12.5000 Du        
   1104 ****         0.2500  31.2500  12.7500 Du        
   1105 ****         0.2500  31.2500  13.0000 Du        
   1106 ****         0.2500  31.7500  20.0000 Du        
   1107 ****         0.2500  31.7500  20.2500 Du        
   1108 ****         0.2500  31.7500  20.5000 Du        
   1109 ****         0.2500  31.7500  20.7500 Du        
   1110 ****         0.2500  31.7500  21.0000 Du        
   1111 ****         0.2500  31.7500  21.2500 Du        
   1112 ****         0.2500  32.0000  19.7500 Du        
   1113 ****         0.2500  32.0000  20.0000 Du        
   1114 ****         0.2500  32.0000  20.2500 Du        
   1115 ****         0.2500  32.0000  20.5000 Du        
   1116 ****         0.2500  32.0000  20.7500 Du        
   1117 ****         0.2500  32.0000  21.0000 Du        
   1118 ****         0.2500  32.0000  21.2500 Du        
   1119 ****         0.2500  32.0000  21.5000 Du        
   1120 ****         0.2500  32.2500  19.7500 Du        
   1121 ****         0.2500  32.2500  20.0000 Du        
   1122 ****         0.2500  32.2500  20.2500 Du        
   1123 ****         0.2500  32.2500  20.5000 Du        
   1124 ****         0.2500  32.2500  20.7500 Du        
   1125 ****         0.2500  32.2500  21.0000 Du        
   1126 ****         0.2500  32.2500  21.2500 Du        
   1127 ****         0.2500  32.2500  21.5000 Du        
   1128 ****         0.2500  32.2500  21.7500 Du        
   1129 ****         0.2500  32.5000  19.5000 Du        
   1130 ****         0.2500  32.5000  19.7500 Du        
   1131 ****         0.2500  32.5000  20.0000 Du        
   1132 ****         0.2500  32.5000  20.2500 Du        
   1133 ****         0.2500  32.5000  20.5000 Du        
   1134 ****         0.2500  32.5000  20.7500 Du        
   1135 ****         0.2500  32.5000  21.0000 Du        
   1136 ****         0.2500  32.5000  21.2500 Du        
   1137 ****         0.2500  32.5000  21.5000 Du        
   1138 ****         0.2500  32.5000  21.7500 Du        
   1139 ****         0.2500  32.7500  19.5000 Du        
   1140 ****         0.2500  32.7500  19.7500 Du        
   1141 ****         0.2500  32.7500  20.0000 Du        
   1142 ****         0.2500  32.7500  20.2500 Du        
   1143 ****         0.2500  32.7500  20.5000 Du        
   1144 ****         0.2500  32.7500  20.7500 Du        
   1145 ****         0.2500  32.7500  21.0000 Du        
   1146 ****         0.2500  32.7500  21.2500 Du        
   1147 ****         0.2500  32.7500  21.5000 Du        
   1148 ****         0.2500  32.7500  21.7500 Du        
   1149 ****         0.2500  33.0000  19.5000 Du        
   1150 ****         0.2500  33.0000  19.7500 Du        
   1151 ****         0.2500  33.0000  20.0000 Du        
   1152 ****         0.2500  33.0000  20.2500 Du        
   1153 ****         0.2500  33.0000  20.5000 Du        
   1154 ****         0.2500  33.0000  20.7500 Du        
   1155 ****         0.2500  33.0000  21.0000 Du        
   1156 ****         0.2500  33.0000  21.2500 Du        
   1157 ****         0.2500  33.0000  21.5000 Du        
   1158 ****         0.2500  33.0000  21.7500 Du        
   1159 ****         0.2500  33.2500  19.5000 Du        
   1160 ****         0.2500  33.2500  19.7500 Du        
   1161 ****         0.2500  33.2500  20.0000 Du        
   1162 ****         0.2500  33.2500  20.2500 Du        
   1163 ****         0.2500  33.2500  20.5000 Du        
   1164 ****         0.2500  33.2500  20.7500 Du        
   1165 ****         0.2500  33.2500  21.0000 Du        
   1166 ****         0.2500  33.2500  21.2500 Du        
   1167 ****         0.2500  33.2500  21.5000 Du        
   1168 ****         0.2500  33.2500  21.7500 Du        
   1169 ****         0.2500  33.5000  19.5000 Du        
   1170 ****         0.2500  33.5000  19.7500 Du        
   1171 ****         0.2500  33.5000  20.0000 Du        
   1172 ****         0.2500  33.5000  20.2500 Du        
   1173 ****         0.2500  33.5000  20.5000 Du        
   1174 ****         0.2500  33.5000  20.7500 Du        
   1175 ****         0.2500  33.5000  21.0000 Du        
   1176 ****         0.2500  33.5000  21.2500 Du        
   1177 ****         0.2500  33.5000  21.5000 Du        
   1178 ****         0.2500  33.7500  19.7500 Du        
   1179 ****         0.2500  33.7500  20.0000 Du        
   1180 ****         0.2500  33.7500  20.2500 Du        
   1181 ****         0.2500  33.7500  20.5000 Du        
   1182 ****         0.2500  33.7500  20.7500 Du        
   1183 ****         0.2500  33.7500  21.0000 Du        
   1184 ****         0.2500  33.7500  21.2500 Du        
   1185 ****         0.2500  34.0000  19.7500 Du        
   1186 ****         0.2500  34.0000  20.0000 Du        
   1187 ****         0.2500  34.0000  20.2500 Du        
   1188 ****         0.2500  34.0000  20.7500 Du        
   1189 ****         0.2500  34.0000  21.0000 Du        
   1190 ****         0.2500  34.0000  21.2500 Du        
   1191 ****         0.2500  34.2500  20.2500 Du        
   1192 ****         0.5000  18.2500  13.5000 Du        
   1193 ****         0.5000  18.2500  13.7500 Du        
   1194 ****         0.5000  18.2500  14.0000 Du        
   1195 ****         0.5000  18.5000  13.0000 Du        
   1196 ****         0.5000  18.5000  13.2500 Du        
   1197 ****         0.5000  18.5000  13.5000 Du        
   1198 ****         0.5000  18.5000  13.7500 Du        
   1199 ****         0.5000  18.5000  14.0000 Du        
   1200 ****         0.5000  18.5000  14.2500 Du        
   1201 ****         0.5000  18.5000  14.5000 Du        
   1202 ****         0.5000  18.5000  14.7500 Du        
   1203 ****         0.5000  18.5000  15.0000 Du        
   1204 ****         0.5000  18.5000  15.2500 Du        
   1205 ****         0.5000  18.5000  15.5000 Du        
   1206 ****         0.5000  18.5000  15.7500 Du        
   1207 ****         0.5000  18.7500  13.0000 Du        
   1208 ****         0.5000  18.7500  13.2500 Du        
   1209 ****         0.5000  18.7500  13.5000 Du        
   1210 ****         0.5000  18.7500  13.7500 Du        
   1211 ****         0.5000  18.7500  14.0000 Du        
   1212 ****         0.5000  18.7500  14.2500 Du        
   1213 ****         0.5000  18.7500  14.5000 Du        
   1214 ****         0.5000  18.7500  14.7500 Du        
   1215 ****         0.5000  18.7500  15.0000 Du        
   1216 ****         0.5000  18.7500  15.2500 Du        
   1217 ****         0.5000  18.7500  15.5000 Du        
   1218 ****         0.5000  18.7500  15.7500 Du        
   1219 ****         0.5000  19.0000  13.2500 Du        
   1220 ****         0.5000  19.0000  13.5000 Du        
   1221 ****         0.5000  19.0000  13.7500 Du        
   1222 ****         0.5000  19.0000  14.0000 Du        
   1223 ****         0.5000  19.0000  14.2500 Du        
   1224 ****         0.5000  19.0000  14.5000 Du        
   1225 ****         0.5000  19.0000  14.7500 Du        
   1226 ****         0.5000  19.0000  15.0000 Du        
   1227 ****         0.5000  19.0000  15.2500 Du        
   1228 ****         0.5000  19.0000  15.5000 Du        
   1229 ****         0.5000  19.0000  15.7500 Du        
   1230 ****         0.5000  19.2500  13.2500 Du        
   1231 ****         0.5000  19.2500  13.5000 Du        
   1232 ****         0.5000  19.2500  13.7500 Du        
   1233 ****         0.5000  19.2500  14.0000 Du        
   1234 ****         0.5000  19.2500  14.2500 Du        
   1235 ****         0.5000  19.2500  14.5000 Du        
   1236 ****         0.5000  19.2500  14.7500 Du        
   1237 ****         0.5000  19.2500  15.0000 Du        
   1238 ****         0.5000  19.2500  15.2500 Du        
   1239 ****         0.5000  19.2500  15.5000 Du        
   1240 ****         0.5000  19.2500  15.7500 Du        
   1241 ****         0.5000  19.5000  13.2500 Du        
   1242 ****         0.5000  19.5000  13.5000 Du        
   1243 ****         0.5000  19.5000  13.7500 Du        
   1244 ****         0.5000  19.5000  14.0000 Du        
   1245 ****         0.5000  19.5000  14.2500 Du        
   1246 ****         0.5000  19.5000  14.5000 Du        
   1247 ****         0.5000  19.5000  14.7500 Du        
   1248 ****         0.5000  19.5000  15.0000 Du        
   1249 ****         0.5000  19.5000  15.2500 Du        
   1250 ****         0.5000  19.5000  15.5000 Du        
   1251 ****         0.5000  19.5000  15.7500 Du        
   1252 ****         0.5000  19.5000  16.0000 Du        
   1253 ****         0.5000  19.7500  13.5000 Du        
   1254 ****         0.5000  19.7500  13.7500 Du        
   1255 ****         0.5000  19.7500  14.0000 Du        
   1256 ****         0.5000  19.7500  14.2500 Du        
   1257 ****         0.5000  19.7500  14.5000 Du        
   1258 ****         0.5000  19.7500  14.7500 Du        
   1259 ****         0.5000  19.7500  15.0000 Du        
   1260 ****         0.5000  19.7500  15.2500 Du        
   1261 ****         0.5000  19.7500  15.5000 Du        
   1262 ****         0.5000  19.7500  15.7500 Du        
   1263 ****         0.5000  19.7500  16.0000 Du        
   1264 ****         0.5000  20.0000  13.5000 Du        
   1265 ****         0.5000  20.0000  13.7500 Du        
   1266 ****         0.5000  20.0000  14.0000 Du        
   1267 ****         0.5000  20.0000  14.2500 Du        
   1268 ****         0.5000  20.0000  14.5000 Du        
   1269 ****         0.5000  20.0000  14.7500 Du        
   1270 ****         0.5000  20.0000  15.0000 Du        
   1271 ****         0.5000  20.0000  15.2500 Du        
   1272 ****         0.5000  20.0000  15.5000 Du        
   1273 ****         0.5000  20.0000  15.7500 Du        
   1274 ****         0.5000  20.0000  16.0000 Du        
   1275 ****         0.5000  20.2500  13.5000 Du        
   1276 ****         0.5000  20.2500  13.7500 Du        
   1277 ****         0.5000  20.2500  14.0000 Du        
   1278 ****         0.5000  20.2500  14.2500 Du        
   1279 ****         0.5000  20.2500  14.5000 Du        
   1280 ****         0.5000  20.2500  14.7500 Du        
   1281 ****         0.5000  20.2500  15.0000 Du        
   1282 ****         0.5000  20.2500  15.2500 Du        
   1283 ****         0.5000  20.2500  15.5000 Du        
   1284 ****         0.5000  20.2500  15.7500 Du        
   1285 ****         0.5000  20.2500  16.0000 Du        
   1286 ****         0.5000  20.2500  16.2500 Du        
   1287 ****         0.5000  20.5000  13.5000 Du        
   1288 ****         0.5000  20.5000  13.7500 Du        
   1289 ****         0.5000  20.5000  14.0000 Du        
   1290 ****         0.5000  20.5000  14.2500 Du        
   1291 ****         0.5000  20.5000  14.5000 Du        
   1292 ****         0.5000  20.5000  14.7500 Du        
   1293 ****         0.5000  20.5000  15.0000 Du        
   1294 ****         0.5000  20.5000  15.2500 Du        
   1295 ****         0.5000  20.5000  15.5000 Du        
   1296 ****         0.5000  20.5000  15.7500 Du        
   1297 ****         0.5000  20.5000  16.0000 Du        
   1298 ****         0.5000  20.5000  16.2500 Du        
   1299 ****         0.5000  20.7500  13.7500 Du        
   1300 ****         0.5000  20.7500  14.0000 Du        
   1301 ****         0.5000  20.7500  14.2500 Du        
   1302 ****         0.5000  20.7500  14.5000 Du        
   1303 ****         0.5000  20.7500  14.7500 Du        
   1304 ****         0.5000  20.7500  15.0000 Du        
   1305 ****         0.5000  20.7500  15.2500 Du        
   1306 ****         0.5000  20.7500  15.5000 Du        
   1307 ****         0.5000  20.7500  15.7500 Du        
   1308 ****         0.5000  20.7500  16.0000 Du        
   1309 ****         0.5000  20.7500  16.2500 Du        
   1310 ****         0.5000  21.0000  13.7500 Du        
   1311 ****         0.5000  21.0000  14.0000 Du        
   1312 ****         0.5000  21.0000  14.2500 Du        
   1313 ****         0.5000  21.0000  14.5000 Du        
   1314 ****         0.5000  21.0000  14.7500 Du        
   1315 ****         0.5000  21.0000  15.0000 Du        
   1316 ****         0.5000  21.0000  15.2500 Du        
   1317 ****         0.5000  21.0000  15.5000 Du        
   1318 ****         0.5000  21.0000  15.7500 Du        
   1319 ****         0.5000  21.0000  16.0000 Du        
   1320 ****         0.5000  21.0000  16.2500 Du        
   1321 ****         0.5000  21.2500  13.7500 Du        
   1322 ****         0.5000  21.2500  14.0000 Du        
   1323 ****         0.5000  21.2500  14.2500 Du        
   1324 ****         0.5000  21.2500  14.5000 Du        
   1325 ****         0.5000  21.2500  14.7500 Du        
   1326 ****         0.5000  21.2500  15.0000 Du        
   1327 ****         0.5000  21.2500  15.2500 Du        
   1328 ****         0.5000  21.2500  15.5000 Du        
   1329 ****         0.5000  21.5000  14.0000 Du        
   1330 ****         0.5000  21.5000  14.2500 Du        
   1331 ****         0.5000  26.0000   7.0000 Du        
   1332 ****         0.5000  26.2500   7.0000 Du        
   1333 ****         0.5000  26.2500   7.2500 Du        
   1334 ****         0.5000  26.2500   7.5000 Du        
   1335 ****         0.5000  26.5000   6.7500 Du        
   1336 ****         0.5000  26.5000   7.0000 Du        
   1337 ****         0.5000  26.5000   7.2500 Du        
   1338 ****         0.5000  26.5000   7.5000 Du        
   1339 ****         0.5000  26.5000   7.7500 Du        
   1340 ****         0.5000  26.7500   6.7500 Du        
   1341 ****         0.5000  26.7500   7.0000 Du        
   1342 ****         0.5000  26.7500   7.2500 Du        
   1343 ****         0.5000  26.7500   7.5000 Du        
   1344 ****         0.5000  26.7500   7.7500 Du        
   1345 ****         0.5000  26.7500   8.0000 Du        
   1346 ****         0.5000  27.0000   7.0000 Du        
   1347 ****         0.5000  27.0000   7.2500 Du        
   1348 ****         0.5000  27.0000   7.5000 Du        
   1349 ****         0.5000  27.0000   7.7500 Du        
   1350 ****         0.5000  27.0000   8.0000 Du        
   1351 ****         0.5000  27.0000   8.2500 Du        
   1352 ****         0.5000  27.2500   7.0000 Du        
   1353 ****         0.5000  27.2500   7.2500 Du        
   1354 ****         0.5000  27.2500   7.5000 Du        
   1355 ****         0.5000  27.2500   7.7500 Du        
   1356 ****         0.5000  27.2500   8.0000 Du        
   1357 ****         0.5000  27.2500   8.2500 Du        
   1358 ****         0.5000  27.2500   8.5000 Du        
   1359 ****         0.5000  27.5000   7.0000 Du        
   1360 ****         0.5000  27.5000   7.2500 Du        
   1361 ****         0.5000  27.5000   7.5000 Du        
   1362 ****         0.5000  27.5000   7.7500 Du        
   1363 ****         0.5000  27.5000   8.0000 Du        
   1364 ****         0.5000  27.5000   8.2500 Du        
   1365 ****         0.5000  27.5000   8.5000 Du        
   1366 ****         0.5000  27.7500   7.0000 Du        
   1367 ****         0.5000  27.7500   7.2500 Du        
   1368 ****         0.5000  27.7500   7.5000 Du        
   1369 ****         0.5000  27.7500   7.7500 Du        
   1370 ****         0.5000  27.7500   8.0000 Du        
   1371 ****         0.5000  27.7500   8.2500 Du        
   1372 ****         0.5000  27.7500   8.5000 Du        
   1373 ****         0.5000  28.0000   7.0000 Du        
   1374 ****         0.5000  28.0000   7.2500 Du        
   1375 ****         0.5000  28.0000   7.5000 Du        
   1376 ****         0.5000  28.0000   7.7500 Du        
   1377 ****         0.5000  28.0000   8.0000 Du        
   1378 ****         0.5000  28.0000   8.2500 Du        
   1379 ****         0.5000  28.2500   7.0000 Du        
   1380 ****         0.5000  28.2500   7.2500 Du        
   1381 ****         0.5000  28.2500   7.5000 Du        
   1382 ****         0.5000  28.2500   7.7500 Du        
   1383 ****         0.5000  28.2500   8.0000 Du        
   1384 ****         0.5000  28.5000   7.2500 Du        
   1385 ****         0.5000  28.5000   7.5000 Du        
   1386 ****         0.5000  28.5000   7.7500 Du        
   1387 ****         0.5000  31.0000  12.2500 Du        
   1388 ****         0.5000  31.0000  12.5000 Du        
   1389 ****         0.5000  31.0000  12.7500 Du        
   1390 ****         0.5000  31.2500  12.0000 Du        
   1391 ****         0.5000  31.2500  12.2500 Du        
   1392 ****         0.5000  31.2500  12.5000 Du        
   1393 ****         0.5000  31.2500  12.7500 Du        
   1394 ****         0.5000  31.5000  12.2500 Du        
   1395 ****         0.5000  31.5000  12.5000 Du        
   1396 ****         0.5000  31.7500  12.2500 Du        
   1397 ****         0.5000  31.7500  12.5000 Du        
   1398 ****         0.5000  32.0000  12.2500 Du        
   1399 ****         0.5000  32.0000  12.5000 Du        
   1400 ****         0.5000  32.0000  19.7500 Du        
   1401 ****         0.5000  32.0000  20.0000 Du        
   1402 ****         0.5000  32.0000  20.2500 Du        
   1403 ****         0.5000  32.0000  20.5000 Du        
   1404 ****         0.5000  32.0000  20.7500 Du        
   1405 ****         0.5000  32.0000  21.0000 Du        
   1406 ****         0.5000  32.2500  19.5000 Du        
   1407 ****         0.5000  32.2500  19.7500 Du        
   1408 ****         0.5000  32.2500  20.0000 Du        
   1409 ****         0.5000  32.2500  20.2500 Du        
   1410 ****         0.5000  32.2500  20.5000 Du        
   1411 ****         0.5000  32.2500  20.7500 Du        
   1412 ****         0.5000  32.2500  21.0000 Du        
   1413 ****         0.5000  32.2500  21.2500 Du        
   1414 ****         0.5000  32.2500  21.5000 Du        
   1415 ****         0.5000  32.5000  19.5000 Du        
   1416 ****         0.5000  32.5000  19.7500 Du        
   1417 ****         0.5000  32.5000  20.0000 Du        
   1418 ****         0.5000  32.5000  20.2500 Du        
   1419 ****         0.5000  32.5000  20.5000 Du        
   1420 ****         0.5000  32.5000  20.7500 Du        
   1421 ****         0.5000  32.5000  21.0000 Du        
   1422 ****         0.5000  32.5000  21.2500 Du        
   1423 ****         0.5000  32.5000  21.5000 Du        
   1424 ****         0.5000  32.7500  19.2500 Du        
   1425 ****         0.5000  32.7500  19.5000 Du        
   1426 ****         0.5000  32.7500  19.7500 Du        
   1427 ****         0.5000  32.7500  20.0000 Du        
   1428 ****         0.5000  32.7500  20.2500 Du        
   1429 ****         0.5000  32.7500  20.5000 Du        
   1430 ****         0.5000  32.7500  20.7500 Du        
   1431 ****         0.5000  32.7500  21.0000 Du        
   1432 ****         0.5000  32.7500  21.2500 Du        
   1433 ****         0.5000  32.7500  21.5000 Du        
   1434 ****         0.5000  32.7500  21.7500 Du        
   1435 ****         0.5000  33.0000  19.2500 Du        
   1436 ****         0.5000  33.0000  19.5000 Du        
   1437 ****         0.5000  33.0000  19.7500 Du        
   1438 ****         0.5000  33.0000  20.0000 Du        
   1439 ****         0.5000  33.0000  20.2500 Du        
   1440 ****         0.5000  33.0000  20.5000 Du        
   1441 ****         0.5000  33.0000  20.7500 Du        
   1442 ****         0.5000  33.0000  21.0000 Du        
   1443 ****         0.5000  33.0000  21.2500 Du        
   1444 ****         0.5000  33.0000  21.5000 Du        
   1445 ****         0.5000  33.0000  21.7500 Du        
   1446 ****         0.5000  33.2500  19.0000 Du        
   1447 ****         0.5000  33.2500  19.2500 Du        
   1448 ****         0.5000  33.2500  19.5000 Du        
   1449 ****         0.5000  33.2500  19.7500 Du        
   1450 ****         0.5000  33.2500  20.0000 Du        
   1451 ****         0.5000  33.2500  20.2500 Du        
   1452 ****         0.5000  33.2500  20.5000 Du        
   1453 ****         0.5000  33.2500  20.7500 Du        
   1454 ****         0.5000  33.2500  21.0000 Du        
   1455 ****         0.5000  33.2500  21.2500 Du        
   1456 ****         0.5000  33.2500  21.5000 Du        
   1457 ****         0.5000  33.5000  19.5000 Du        
   1458 ****         0.5000  33.5000  19.7500 Du        
   1459 ****         0.5000  33.5000  20.0000 Du        
   1460 ****         0.5000  33.5000  20.2500 Du        
   1461 ****         0.5000  33.5000  20.5000 Du        
   1462 ****         0.5000  33.5000  20.7500 Du        
   1463 ****         0.5000  33.5000  21.0000 Du        
   1464 ****         0.5000  33.5000  21.2500 Du        
   1465 ****         0.5000  33.5000  21.5000 Du        
   1466 ****         0.5000  33.7500  19.5000 Du        
   1467 ****         0.5000  33.7500  19.7500 Du        
   1468 ****         0.5000  33.7500  20.0000 Du        
   1469 ****         0.5000  33.7500  20.2500 Du        
   1470 ****         0.5000  33.7500  20.5000 Du        
   1471 ****         0.5000  33.7500  20.7500 Du        
   1472 ****         0.5000  33.7500  21.0000 Du        
   1473 ****         0.5000  33.7500  21.2500 Du        
   1474 ****         0.5000  33.7500  21.5000 Du        
   1475 ****         0.5000  34.0000  19.5000 Du        
   1476 ****         0.5000  34.0000  19.7500 Du        
   1477 ****         0.5000  34.0000  20.0000 Du        
   1478 ****         0.5000  34.0000  20.2500 Du        
   1479 ****         0.5000  34.0000  20.5000 Du        
   1480 ****         0.5000  34.0000  20.7500 Du        
   1481 ****         0.5000  34.0000  21.0000 Du        
   1482 ****         0.5000  34.0000  21.2500 Du        
   1483 ****         0.5000  34.2500  19.5000 Du        
   1484 ****         0.5000  34.2500  19.7500 Du        
   1485 ****         0.5000  34.2500  20.0000 Du        
   1486 ****         0.5000  34.2500  20.2500 Du        
   1487 ****         0.5000  34.2500  20.5000 Du        
   1488 ****         0.5000  34.2500  20.7500 Du        
   1489 ****         0.5000  34.2500  21.0000 Du        
   1490 ****         0.5000  34.2500  21.2500 Du        
   1491 ****         0.5000  34.5000  20.5000 Du        
   1492 ****         0.5000  34.5000  20.7500 Du        
   1493 ****         0.7500  18.0000  12.5000 Du        
   1494 ****         0.7500  18.2500  12.7500 Du        
   1495 ****         0.7500  18.2500  13.0000 Du        
   1496 ****         0.7500  18.2500  13.5000 Du        
   1497 ****         0.7500  18.2500  13.7500 Du        
   1498 ****         0.7500  18.2500  14.0000 Du        
   1499 ****         0.7500  18.5000  12.7500 Du        
   1500 ****         0.7500  18.5000  13.0000 Du        
   1501 ****         0.7500  18.5000  13.2500 Du        
   1502 ****         0.7500  18.5000  13.5000 Du        
   1503 ****         0.7500  18.5000  13.7500 Du        
   1504 ****         0.7500  18.5000  14.0000 Du        
   1505 ****         0.7500  18.5000  14.2500 Du        
   1506 ****         0.7500  18.5000  14.5000 Du        
   1507 ****         0.7500  18.5000  14.7500 Du        
   1508 ****         0.7500  18.5000  15.0000 Du        
   1509 ****         0.7500  18.5000  15.2500 Du        
   1510 ****         0.7500  18.5000  15.5000 Du        
   1511 ****         0.7500  18.7500  12.7500 Du        
   1512 ****         0.7500  18.7500  13.0000 Du        
   1513 ****         0.7500  18.7500  13.2500 Du        
   1514 ****         0.7500  18.7500  13.5000 Du        
   1515 ****         0.7500  18.7500  13.7500 Du        
   1516 ****         0.7500  18.7500  14.0000 Du        
   1517 ****         0.7500  18.7500  14.2500 Du        
   1518 ****         0.7500  18.7500  14.5000 Du        
   1519 ****         0.7500  18.7500  14.7500 Du        
   1520 ****         0.7500  18.7500  15.0000 Du        
   1521 ****         0.7500  18.7500  15.2500 Du        
   1522 ****         0.7500  18.7500  15.5000 Du        
   1523 ****         0.7500  18.7500  15.7500 Du        
   1524 ****         0.7500  19.0000  12.7500 Du        
   1525 ****         0.7500  19.0000  13.0000 Du        
   1526 ****         0.7500  19.0000  13.2500 Du        
   1527 ****         0.7500  19.0000  13.5000 Du        
   1528 ****         0.7500  19.0000  13.7500 Du        
   1529 ****         0.7500  19.0000  14.0000 Du        
   1530 ****         0.7500  19.0000  14.2500 Du        
   1531 ****         0.7500  19.0000  14.5000 Du        
   1532 ****         0.7500  19.0000  14.7500 Du        
   1533 ****         0.7500  19.0000  15.0000 Du        
   1534 ****         0.7500  19.0000  15.2500 Du        
   1535 ****         0.7500  19.0000  15.5000 Du        
   1536 ****         0.7500  19.0000  15.7500 Du        
   1537 ****         0.7500  19.2500  13.0000 Du        
   1538 ****         0.7500  19.2500  13.2500 Du        
   1539 ****         0.7500  19.2500  13.5000 Du        
   1540 ****         0.7500  19.2500  13.7500 Du        
   1541 ****         0.7500  19.2500  14.0000 Du        
   1542 ****         0.7500  19.2500  14.2500 Du        
   1543 ****         0.7500  19.2500  14.5000 Du        
   1544 ****         0.7500  19.2500  14.7500 Du        
   1545 ****         0.7500  19.2500  15.0000 Du        
   1546 ****         0.7500  19.2500  15.2500 Du        
   1547 ****         0.7500  19.2500  15.5000 Du        
   1548 ****         0.7500  19.2500  15.7500 Du        
   1549 ****         0.7500  19.2500  16.0000 Du        
   1550 ****         0.7500  19.5000  13.2500 Du        
   1551 ****         0.7500  19.5000  13.5000 Du        
   1552 ****         0.7500  19.5000  13.7500 Du        
   1553 ****         0.7500  19.5000  14.0000 Du        
   1554 ****         0.7500  19.5000  14.2500 Du        
   1555 ****         0.7500  19.5000  14.5000 Du        
   1556 ****         0.7500  19.5000  14.7500 Du        
   1557 ****         0.7500  19.5000  15.0000 Du        
   1558 ****         0.7500  19.5000  15.2500 Du        
   1559 ****         0.7500  19.5000  15.5000 Du        
   1560 ****         0.7500  19.5000  15.7500 Du        
   1561 ****         0.7500  19.5000  16.0000 Du        
   1562 ****         0.7500  19.7500  13.2500 Du        
   1563 ****         0.7500  19.7500  13.5000 Du        
   1564 ****         0.7500  19.7500  13.7500 Du        
   1565 ****         0.7500  19.7500  14.0000 Du        
   1566 ****         0.7500  19.7500  14.2500 Du        
   1567 ****         0.7500  19.7500  14.5000 Du        
   1568 ****         0.7500  19.7500  14.7500 Du        
   1569 ****         0.7500  19.7500  15.0000 Du        
   1570 ****         0.7500  19.7500  15.2500 Du        
   1571 ****         0.7500  19.7500  15.5000 Du        
   1572 ****         0.7500  19.7500  15.7500 Du        
   1573 ****         0.7500  19.7500  16.0000 Du        
   1574 ****         0.7500  20.0000  13.5000 Du        
   1575 ****         0.7500  20.0000  13.7500 Du        
   1576 ****         0.7500  20.0000  14.0000 Du        
   1577 ****         0.7500  20.0000  14.2500 Du        
   1578 ****         0.7500  20.0000  14.5000 Du        
   1579 ****         0.7500  20.0000  14.7500 Du        
   1580 ****         0.7500  20.0000  15.0000 Du        
   1581 ****         0.7500  20.0000  15.2500 Du        
   1582 ****         0.7500  20.0000  15.5000 Du        
   1583 ****         0.7500  20.0000  15.7500 Du        
   1584 ****         0.7500  20.0000  16.0000 Du        
   1585 ****         0.7500  20.0000  16.2500 Du        
   1586 ****         0.7500  20.2500  13.5000 Du        
   1587 ****         0.7500  20.2500  13.7500 Du        
   1588 ****         0.7500  20.2500  14.0000 Du        
   1589 ****         0.7500  20.2500  14.2500 Du        
   1590 ****         0.7500  20.2500  14.5000 Du        
   1591 ****         0.7500  20.2500  14.7500 Du        
   1592 ****         0.7500  20.2500  15.0000 Du        
   1593 ****         0.7500  20.2500  15.2500 Du        
   1594 ****         0.7500  20.2500  15.5000 Du        
   1595 ****         0.7500  20.2500  15.7500 Du        
   1596 ****         0.7500  20.2500  16.0000 Du        
   1597 ****         0.7500  20.2500  16.2500 Du        
   1598 ****         0.7500  20.5000  13.5000 Du        
   1599 ****         0.7500  20.5000  13.7500 Du        
   1600 ****         0.7500  20.5000  14.0000 Du        
   1601 ****         0.7500  20.5000  14.2500 Du        
   1602 ****         0.7500  20.5000  14.5000 Du        
   1603 ****         0.7500  20.5000  14.7500 Du        
   1604 ****         0.7500  20.5000  15.0000 Du        
   1605 ****         0.7500  20.5000  15.2500 Du        
   1606 ****         0.7500  20.5000  15.5000 Du        
   1607 ****         0.7500  20.5000  15.7500 Du        
   1608 ****         0.7500  20.5000  16.0000 Du        
   1609 ****         0.7500  20.5000  16.2500 Du        
   1610 ****         0.7500  20.7500  13.7500 Du        
   1611 ****         0.7500  20.7500  14.0000 Du        
   1612 ****         0.7500  20.7500  14.2500 Du        
   1613 ****         0.7500  20.7500  14.5000 Du        
   1614 ****         0.7500  20.7500  14.7500 Du        
   1615 ****         0.7500  20.7500  15.0000 Du        
   1616 ****         0.7500  20.7500  15.2500 Du        
   1617 ****         0.7500  20.7500  15.5000 Du        
   1618 ****         0.7500  20.7500  15.7500 Du        
   1619 ****         0.7500  20.7500  16.0000 Du        
   1620 ****         0.7500  20.7500  16.2500 Du        
   1621 ****         0.7500  21.0000  13.7500 Du        
   1622 ****         0.7500  21.0000  14.0000 Du        
   1623 ****         0.7500  21.0000  14.2500 Du        
   1624 ****         0.7500  21.0000  14.5000 Du        
   1625 ****         0.7500  21.0000  14.7500 Du        
   1626 ****         0.7500  21.0000  15.0000 Du        
   1627 ****         0.7500  21.0000  15.2500 Du        
   1628 ****         0.7500  21.0000  15.5000 Du        
   1629 ****         0.7500  21.0000  15.7500 Du        
   1630 ****         0.7500  21.0000  16.0000 Du        
   1631 ****         0.7500  21.0000  16.2500 Du        
   1632 ****         0.7500  21.2500  14.0000 Du        
   1633 ****         0.7500  21.2500  14.2500 Du        
   1634 ****         0.7500  26.0000   7.0000 Du        
   1635 ****         0.7500  26.2500   6.7500 Du        
   1636 ****         0.7500  26.2500   7.0000 Du        
   1637 ****         0.7500  26.2500   7.2500 Du        
   1638 ****         0.7500  26.5000   6.7500 Du        
   1639 ****         0.7500  26.5000   7.0000 Du        
   1640 ****         0.7500  26.5000   7.2500 Du        
   1641 ****         0.7500  26.5000   7.5000 Du        
   1642 ****         0.7500  26.7500   6.7500 Du        
   1643 ****         0.7500  26.7500   7.0000 Du        
   1644 ****         0.7500  26.7500   7.2500 Du        
   1645 ****         0.7500  26.7500   7.5000 Du        
   1646 ****         0.7500  26.7500   7.7500 Du        
   1647 ****         0.7500  26.7500   8.0000 Du        
   1648 ****         0.7500  27.0000   6.7500 Du        
   1649 ****         0.7500  27.0000   7.0000 Du        
   1650 ****         0.7500  27.0000   7.2500 Du        
   1651 ****         0.7500  27.0000   7.5000 Du        
   1652 ****         0.7500  27.0000   7.7500 Du        
   1653 ****         0.7500  27.0000   8.0000 Du        
   1654 ****         0.7500  27.0000   8.2500 Du        
   1655 ****         0.7500  27.2500   7.0000 Du        
   1656 ****         0.7500  27.2500   7.2500 Du        
   1657 ****         0.7500  27.2500   7.5000 Du        
   1658 ****         0.7500  27.2500   7.7500 Du        
   1659 ****         0.7500  27.2500   8.0000 Du        
   1660 ****         0.7500  27.2500   8.2500 Du        
   1661 ****         0.7500  27.2500   8.5000 Du        
   1662 ****         0.7500  27.5000   7.0000 Du        
   1663 ****         0.7500  27.5000   7.2500 Du        
   1664 ****         0.7500  27.5000   7.5000 Du        
   1665 ****         0.7500  27.5000   7.7500 Du        
   1666 ****         0.7500  27.5000   8.0000 Du        
   1667 ****         0.7500  27.5000   8.2500 Du        
   1668 ****         0.7500  27.5000   8.5000 Du        
   1669 ****         0.7500  27.7500   7.0000 Du        
   1670 ****         0.7500  27.7500   7.2500 Du        
   1671 ****         0.7500  27.7500   7.5000 Du        
   1672 ****         0.7500  27.7500   7.7500 Du        
   1673 ****         0.7500  27.7500   8.0000 Du        
   1674 ****         0.7500  27.7500   8.2500 Du        
   1675 ****         0.7500  27.7500   8.5000 Du        
   1676 ****         0.7500  28.0000   7.0000 Du        
   1677 ****         0.7500  28.0000   7.2500 Du        
   1678 ****         0.7500  28.0000   7.5000 Du        
   1679 ****         0.7500  28.0000   7.7500 Du        
   1680 ****         0.7500  28.0000   8.0000 Du        
   1681 ****         0.7500  28.2500   7.0000 Du        
   1682 ****         0.7500  28.2500   7.2500 Du        
   1683 ****         0.7500  28.2500   7.5000 Du        
   1684 ****         0.7500  28.2500   7.7500 Du        
   1685 ****         0.7500  28.5000   7.0000 Du        
   1686 ****         0.7500  28.5000   7.2500 Du        
   1687 ****         0.7500  28.5000   7.5000 Du        
   1688 ****         0.7500  31.2500  12.2500 Du        
   1689 ****         0.7500  31.2500  12.5000 Du        
   1690 ****         0.7500  31.5000  12.2500 Du        
   1691 ****         0.7500  31.7500  12.2500 Du        
   1692 ****         0.7500  31.7500  12.5000 Du        
   1693 ****         0.7500  32.0000  12.0000 Du        
   1694 ****         0.7500  32.0000  12.2500 Du        
   1695 ****         0.7500  32.0000  12.5000 Du        
   1696 ****         0.7500  32.2500  19.7500 Du        
   1697 ****         0.7500  32.2500  20.0000 Du        
   1698 ****         0.7500  32.2500  20.2500 Du        
   1699 ****         0.7500  32.2500  20.5000 Du        
   1700 ****         0.7500  32.2500  20.7500 Du        
   1701 ****         0.7500  32.5000  19.5000 Du        
   1702 ****         0.7500  32.5000  19.7500 Du        
   1703 ****         0.7500  32.5000  20.0000 Du        
   1704 ****         0.7500  32.5000  20.2500 Du        
   1705 ****         0.7500  32.5000  20.5000 Du        
   1706 ****         0.7500  32.5000  20.7500 Du        
   1707 ****         0.7500  32.5000  21.0000 Du        
   1708 ****         0.7500  32.5000  21.2500 Du        
   1709 ****         0.7500  32.7500  19.2500 Du        
   1710 ****         0.7500  32.7500  19.5000 Du        
   1711 ****         0.7500  32.7500  19.7500 Du        
   1712 ****         0.7500  32.7500  20.0000 Du        
   1713 ****         0.7500  32.7500  20.2500 Du        
   1714 ****         0.7500  32.7500  20.5000 Du        
   1715 ****         0.7500  32.7500  20.7500 Du        
   1716 ****         0.7500  32.7500  21.0000 Du        
   1717 ****         0.7500  32.7500  21.2500 Du        
   1718 ****         0.7500  32.7500  21.5000 Du        
   1719 ****         0.7500  33.0000  19.2500 Du        
   1720 ****         0.7500  33.0000  19.5000 Du        
   1721 ****         0.7500  33.0000  19.7500 Du        
   1722 ****         0.7500  33.0000  20.0000 Du        
   1723 ****         0.7500  33.0000  20.2500 Du        
   1724 ****         0.7500  33.0000  20.5000 Du        
   1725 ****         0.7500  33.0000  20.7500 Du        
   1726 ****         0.7500  33.0000  21.0000 Du        
   1727 ****         0.7500  33.0000  21.2500 Du        
   1728 ****         0.7500  33.0000  21.5000 Du        
   1729 ****         0.7500  33.2500  19.0000 Du        
   1730 ****         0.7500  33.2500  19.2500 Du        
   1731 ****         0.7500  33.2500  19.5000 Du        
   1732 ****         0.7500  33.2500  19.7500 Du        
   1733 ****         0.7500  33.2500  20.0000 Du        
   1734 ****         0.7500  33.2500  20.2500 Du        
   1735 ****         0.7500  33.2500  20.5000 Du        
   1736 ****         0.7500  33.2500  20.7500 Du        
   1737 ****         0.7500  33.2500  21.0000 Du        
   1738 ****         0.7500  33.2500  21.2500 Du        
   1739 ****         0.7500  33.2500  21.5000 Du        
   1740 ****         0.7500  33.5000  19.0000 Du        
   1741 ****         0.7500  33.5000  19.2500 Du        
   1742 ****         0.7500  33.5000  19.5000 Du        
   1743 ****         0.7500  33.5000  19.7500 Du        
   1744 ****         0.7500  33.5000  20.0000 Du        
   1745 ****         0.7500  33.5000  20.2500 Du        
   1746 ****         0.7500  33.5000  20.5000 Du        
   1747 ****         0.7500  33.5000  20.7500 Du        
   1748 ****         0.7500  33.5000  21.0000 Du        
   1749 ****         0.7500  33.5000  21.2500 Du        
   1750 ****         0.7500  33.5000  21.5000 Du        
   1751 ****         0.7500  33.7500  19.0000 Du        
   1752 ****         0.7500  33.7500  19.2500 Du        
   1753 ****         0.7500  33.7500  19.5000 Du        
   1754 ****         0.7500  33.7500  19.7500 Du        
   1755 ****         0.7500  33.7500  20.0000 Du        
   1756 ****         0.7500  33.7500  20.2500 Du        
   1757 ****         0.7500  33.7500  20.5000 Du        
   1758 ****         0.7500  33.7500  20.7500 Du        
   1759 ****         0.7500  33.7500  21.0000 Du        
   1760 ****         0.7500  33.7500  21.2500 Du        
   1761 ****         0.7500  33.7500  21.5000 Du        
   1762 ****         0.7500  34.0000  18.7500 Du        
   1763 ****         0.7500  34.0000  19.0000 Du        
   1764 ****         0.7500  34.0000  19.2500 Du        
   1765 ****         0.7500  34.0000  19.5000 Du        
   1766 ****         0.7500  34.0000  19.7500 Du        
   1767 ****         0.7500  34.0000  20.0000 Du        
   1768 ****         0.7500  34.0000  20.2500 Du        
   1769 ****         0.7500  34.0000  20.5000 Du        
   1770 ****         0.7500  34.0000  20.7500 Du        
   1771 ****         0.7500  34.0000  21.0000 Du        
   1772 ****         0.7500  34.0000  21.2500 Du        
   1773 ****         0.7500  34.2500  19.5000 Du        
   1774 ****         0.7500  34.2500  19.7500 Du        
   1775 ****         0.7500  34.2500  20.0000 Du        
   1776 ****         0.7500  34.2500  20.2500 Du        
   1777 ****         0.7500  34.2500  20.5000 Du        
   1778 ****         0.7500  34.2500  20.7500 Du        
   1779 ****         0.7500  34.2500  21.0000 Du        
   1780 ****         0.7500  34.2500  21.2500 Du        
   1781 ****         0.7500  34.5000  20.0000 Du        
   1782 ****         0.7500  34.5000  20.2500 Du        
   1783 ****         0.7500  34.5000  20.5000 Du        
   1784 ****         0.7500  34.5000  20.7500 Du        
   1785 ****         0.7500  34.5000  21.0000 Du        
   1786 ****         0.7500  34.7500  20.2500 Du        
   1787 ****         0.7500  34.7500  20.5000 Du        
   1788 ****         0.7500  34.7500  20.7500 Du        
   1789 ****         0.7500  34.7500  21.0000 Du        
   1790 ****         1.0000  17.5000  11.5000 Du        
   1791 ****         1.0000  17.7500  11.5000 Du        
   1792 ****         1.0000  18.2500  12.7500 Du        
   1793 ****         1.0000  18.5000  12.7500 Du        
   1794 ****         1.0000  18.5000  13.0000 Du        
   1795 ****         1.0000  18.5000  13.2500 Du        
   1796 ****         1.0000  18.5000  13.5000 Du        
   1797 ****         1.0000  18.5000  13.7500 Du        
   1798 ****         1.0000  18.5000  14.0000 Du        
   1799 ****         1.0000  18.5000  14.2500 Du        
   1800 ****         1.0000  18.5000  14.5000 Du        
   1801 ****         1.0000  18.5000  14.7500 Du        
   1802 ****         1.0000  18.5000  15.0000 Du        
   1803 ****         1.0000  18.5000  15.2500 Du        
   1804 ****         1.0000  18.7500  12.5000 Du        
   1805 ****         1.0000  18.7500  12.7500 Du        
   1806 ****         1.0000  18.7500  13.0000 Du        
   1807 ****         1.0000  18.7500  13.2500 Du        
   1808 ****         1.0000  18.7500  13.5000 Du        
   1809 ****         1.0000  18.7500  13.7500 Du        
   1810 ****         1.0000  18.7500  14.0000 Du        
   1811 ****         1.0000  18.7500  14.2500 Du        
   1812 ****         1.0000  18.7500  14.5000 Du        
   1813 ****         1.0000  18.7500  14.7500 Du        
   1814 ****         1.0000  18.7500  15.0000 Du        
   1815 ****         1.0000  18.7500  15.2500 Du        
   1816 ****         1.0000  18.7500  15.5000 Du        
   1817 ****         1.0000  19.0000  12.7500 Du        
   1818 ****         1.0000  19.0000  13.0000 Du        
   1819 ****         1.0000  19.0000  13.2500 Du        
   1820 ****         1.0000  19.0000  13.5000 Du        
   1821 ****         1.0000  19.0000  13.7500 Du        
   1822 ****         1.0000  19.0000  14.0000 Du        
   1823 ****         1.0000  19.0000  14.2500 Du        
   1824 ****         1.0000  19.0000  14.5000 Du        
   1825 ****         1.0000  19.0000  14.7500 Du        
   1826 ****         1.0000  19.0000  15.0000 Du        
   1827 ****         1.0000  19.0000  15.2500 Du        
   1828 ****         1.0000  19.0000  15.5000 Du        
   1829 ****         1.0000  19.0000  15.7500 Du        
   1830 ****         1.0000  19.2500  13.0000 Du        
   1831 ****         1.0000  19.2500  13.2500 Du        
   1832 ****         1.0000  19.2500  13.5000 Du        
   1833 ****         1.0000  19.2500  13.7500 Du        
   1834 ****         1.0000  19.2500  14.0000 Du        
   1835 ****         1.0000  19.2500  14.2500 Du        
   1836 ****         1.0000  19.2500  14.5000 Du        
   1837 ****         1.0000  19.2500  14.7500 Du        
   1838 ****         1.0000  19.2500  15.0000 Du        
   1839 ****         1.0000  19.2500  15.2500 Du        
   1840 ****         1.0000  19.2500  15.5000 Du        
   1841 ****         1.0000  19.2500  15.7500 Du        
   1842 ****         1.0000  19.5000  13.0000 Du        
   1843 ****         1.0000  19.5000  13.2500 Du        
   1844 ****         1.0000  19.5000  13.5000 Du        
   1845 ****         1.0000  19.5000  13.7500 Du        
   1846 ****         1.0000  19.5000  14.0000 Du        
   1847 ****         1.0000  19.5000  14.2500 Du        
   1848 ****         1.0000  19.5000  14.5000 Du        
   1849 ****         1.0000  19.5000  14.7500 Du        
   1850 ****         1.0000  19.5000  15.0000 Du        
   1851 ****         1.0000  19.5000  15.2500 Du        
   1852 ****         1.0000  19.5000  15.5000 Du        
   1853 ****         1.0000  19.5000  15.7500 Du        
   1854 ****         1.0000  19.5000  16.0000 Du        
   1855 ****         1.0000  19.7500  13.2500 Du        
   1856 ****         1.0000  19.7500  13.5000 Du        
   1857 ****         1.0000  19.7500  13.7500 Du        
   1858 ****         1.0000  19.7500  14.0000 Du        
   1859 ****         1.0000  19.7500  14.2500 Du        
   1860 ****         1.0000  19.7500  14.5000 Du        
   1861 ****         1.0000  19.7500  14.7500 Du        
   1862 ****         1.0000  19.7500  15.0000 Du        
   1863 ****         1.0000  19.7500  15.2500 Du        
   1864 ****         1.0000  19.7500  15.5000 Du        
   1865 ****         1.0000  19.7500  15.7500 Du        
   1866 ****         1.0000  19.7500  16.0000 Du        
   1867 ****         1.0000  20.0000  13.2500 Du        
   1868 ****         1.0000  20.0000  13.5000 Du        
   1869 ****         1.0000  20.0000  13.7500 Du        
   1870 ****         1.0000  20.0000  14.0000 Du        
   1871 ****         1.0000  20.0000  14.2500 Du        
   1872 ****         1.0000  20.0000  14.5000 Du        
   1873 ****         1.0000  20.0000  14.7500 Du        
   1874 ****         1.0000  20.0000  15.0000 Du        
   1875 ****         1.0000  20.0000  15.2500 Du        
   1876 ****         1.0000  20.0000  15.5000 Du        
   1877 ****         1.0000  20.0000  15.7500 Du        
   1878 ****         1.0000  20.0000  16.0000 Du        
   1879 ****         1.0000  20.2500  13.5000 Du        
   1880 ****         1.0000  20.2500  13.7500 Du        
   1881 ****         1.0000  20.2500  14.0000 Du        
   1882 ****         1.0000  20.2500  14.2500 Du        
   1883 ****         1.0000  20.2500  14.5000 Du        
   1884 ****         1.0000  20.2500  14.7500 Du        
   1885 ****         1.0000  20.2500  15.0000 Du        
   1886 ****         1.0000  20.2500  15.2500 Du        
   1887 ****         1.0000  20.2500  15.5000 Du        
   1888 ****         1.0000  20.2500  15.7500 Du        
   1889 ****         1.0000  20.2500  16.0000 Du        
   1890 ****         1.0000  20.2500  16.2500 Du        
   1891 ****         1.0000  20.5000  13.5000 Du        
   1892 ****         1.0000  20.5000  13.7500 Du        
   1893 ****         1.0000  20.5000  14.0000 Du        
   1894 ****         1.0000  20.5000  14.2500 Du        
   1895 ****         1.0000  20.5000  14.5000 Du        
   1896 ****         1.0000  20.5000  14.7500 Du        
   1897 ****         1.0000  20.5000  15.0000 Du        
   1898 ****         1.0000  20.5000  15.2500 Du        
   1899 ****         1.0000  20.5000  15.5000 Du        
   1900 ****         1.0000  20.5000  15.7500 Du        
   1901 ****         1.0000  20.5000  16.0000 Du        
   1902 ****         1.0000  20.5000  16.2500 Du        
   1903 ****         1.0000  20.7500  13.7500 Du        
   1904 ****         1.0000  20.7500  14.0000 Du        
   1905 ****         1.0000  20.7500  14.2500 Du        
   1906 ****         1.0000  20.7500  14.5000 Du        
   1907 ****         1.0000  20.7500  14.7500 Du        
   1908 ****         1.0000  20.7500  15.0000 Du        
   1909 ****         1.0000  20.7500  15.2500 Du        
   1910 ****         1.0000  20.7500  15.5000 Du        
   1911 ****         1.0000  20.7500  15.7500 Du        
   1912 ****         1.0000  20.7500  16.0000 Du        
   1913 ****         1.0000  20.7500  16.2500 Du        
   1914 ****         1.0000  21.0000  13.7500 Du        
   1915 ****         1.0000  21.0000  14.0000 Du        
   1916 ****         1.0000  21.0000  14.2500 Du        
   1917 ****         1.0000  21.0000  14.5000 Du        
   1918 ****         1.0000  21.0000  14.7500 Du        
   1919 ****         1.0000  21.0000  15.0000 Du        
   1920 ****         1.0000  21.0000  15.2500 Du        
   1921 ****         1.0000  21.0000  15.5000 Du        
   1922 ****         1.0000  21.0000  15.7500 Du        
   1923 ****         1.0000  21.0000  16.0000 Du        
   1924 ****         1.0000  21.0000  16.2500 Du        
   1925 ****         1.0000  26.5000   6.7500 Du        
   1926 ****         1.0000  26.5000   7.0000 Du        
   1927 ****         1.0000  26.7500   6.7500 Du        
   1928 ****         1.0000  26.7500   7.0000 Du        
   1929 ****         1.0000  26.7500   7.2500 Du        
   1930 ****         1.0000  26.7500   7.5000 Du        
   1931 ****         1.0000  27.0000   7.0000 Du        
   1932 ****         1.0000  27.0000   7.2500 Du        
   1933 ****         1.0000  27.0000   7.5000 Du        
   1934 ****         1.0000  27.0000   7.7500 Du        
   1935 ****         1.0000  27.0000   8.0000 Du        
   1936 ****         1.0000  27.2500   7.0000 Du        
   1937 ****         1.0000  27.2500   7.2500 Du        
   1938 ****         1.0000  27.2500   7.5000 Du        
   1939 ****         1.0000  27.2500   7.7500 Du        
   1940 ****         1.0000  27.2500   8.0000 Du        
   1941 ****         1.0000  27.5000   7.0000 Du        
   1942 ****         1.0000  27.5000   7.2500 Du        
   1943 ****         1.0000  27.5000   7.5000 Du        
   1944 ****         1.0000  27.5000   7.7500 Du        
   1945 ****         1.0000  27.5000   8.0000 Du        
   1946 ****         1.0000  27.5000   8.2500 Du        
   1947 ****         1.0000  27.7500   7.0000 Du        
   1948 ****         1.0000  27.7500   7.2500 Du        
   1949 ****         1.0000  27.7500   7.5000 Du        
   1950 ****         1.0000  27.7500   7.7500 Du        
   1951 ****         1.0000  27.7500   8.0000 Du        
   1952 ****         1.0000  28.0000   7.0000 Du        
   1953 ****         1.0000  28.0000   7.2500 Du        
   1954 ****         1.0000  28.0000   7.5000 Du        
   1955 ****         1.0000  28.0000   7.7500 Du        
   1956 ****         1.0000  28.0000   8.0000 Du        
   1957 ****         1.0000  28.2500   7.0000 Du        
   1958 ****         1.0000  28.2500   7.2500 Du        
   1959 ****         1.0000  28.2500   7.5000 Du        
   1960 ****         1.0000  28.2500   7.7500 Du        
   1961 ****         1.0000  28.5000   7.2500 Du        
   1962 ****         1.0000  28.5000   7.5000 Du        
   1963 ****         1.0000  31.7500  12.2500 Du        
   1964 ****         1.0000  32.0000  12.2500 Du        
   1965 ****         1.0000  32.5000  19.7500 Du        
   1966 ****         1.0000  32.5000  20.0000 Du        
   1967 ****         1.0000  32.5000  20.2500 Du        
   1968 ****         1.0000  32.5000  20.5000 Du        
   1969 ****         1.0000  32.5000  20.7500 Du        
   1970 ****         1.0000  32.7500  19.5000 Du        
   1971 ****         1.0000  32.7500  19.7500 Du        
   1972 ****         1.0000  32.7500  20.0000 Du        
   1973 ****         1.0000  32.7500  20.2500 Du        
   1974 ****         1.0000  32.7500  20.5000 Du        
   1975 ****         1.0000  32.7500  20.7500 Du        
   1976 ****         1.0000  32.7500  21.0000 Du        
   1977 ****         1.0000  32.7500  21.2500 Du        
   1978 ****         1.0000  33.0000  19.2500 Du        
   1979 ****         1.0000  33.0000  19.5000 Du        
   1980 ****         1.0000  33.0000  19.7500 Du        
   1981 ****         1.0000  33.0000  20.0000 Du        
   1982 ****         1.0000  33.0000  20.2500 Du        
   1983 ****         1.0000  33.0000  20.5000 Du        
   1984 ****         1.0000  33.0000  20.7500 Du        
   1985 ****         1.0000  33.0000  21.0000 Du        
   1986 ****         1.0000  33.0000  21.2500 Du        
   1987 ****         1.0000  33.0000  21.5000 Du        
   1988 ****         1.0000  33.2500  19.0000 Du        
   1989 ****         1.0000  33.2500  19.2500 Du        
   1990 ****         1.0000  33.2500  19.5000 Du        
   1991 ****         1.0000  33.2500  19.7500 Du        
   1992 ****         1.0000  33.2500  20.0000 Du        
   1993 ****         1.0000  33.2500  20.2500 Du        
   1994 ****         1.0000  33.2500  20.5000 Du        
   1995 ****         1.0000  33.2500  20.7500 Du        
   1996 ****         1.0000  33.2500  21.0000 Du        
   1997 ****         1.0000  33.2500  21.2500 Du        
   1998 ****         1.0000  33.2500  21.5000 Du        
   1999 ****         1.0000  33.5000  18.7500 Du        
   2000 ****         1.0000  33.5000  19.0000 Du        
   2001 ****         1.0000  33.5000  19.2500 Du        
   2002 ****         1.0000  33.5000  19.5000 Du        
   2003 ****         1.0000  33.5000  19.7500 Du        
   2004 ****         1.0000  33.5000  20.0000 Du        
   2005 ****         1.0000  33.5000  20.2500 Du        
   2006 ****         1.0000  33.5000  20.5000 Du        
   2007 ****         1.0000  33.5000  20.7500 Du        
   2008 ****         1.0000  33.5000  21.0000 Du        
   2009 ****         1.0000  33.5000  21.2500 Du        
   2010 ****         1.0000  33.5000  21.5000 Du        
   2011 ****         1.0000  33.7500  18.7500 Du        
   2012 ****         1.0000  33.7500  19.0000 Du        
   2013 ****         1.0000  33.7500  19.2500 Du        
   2014 ****         1.0000  33.7500  19.5000 Du        
   2015 ****         1.0000  33.7500  19.7500 Du        
   2016 ****         1.0000  33.7500  20.0000 Du        
   2017 ****         1.0000  33.7500  20.2500 Du        
   2018 ****         1.0000  33.7500  20.5000 Du        
   2019 ****         1.0000  33.7500  20.7500 Du        
   2020 ****         1.0000  33.7500  21.0000 Du        
   2021 ****         1.0000  33.7500  21.2500 Du        
   2022 ****         1.0000  34.0000  18.7500 Du        
   2023 ****         1.0000  34.0000  19.0000 Du        
   2024 ****         1.0000  34.0000  19.2500 Du        
   2025 ****         1.0000  34.0000  19.5000 Du        
   2026 ****         1.0000  34.0000  19.7500 Du        
   2027 ****         1.0000  34.0000  20.0000 Du        
   2028 ****         1.0000  34.0000  20.2500 Du        
   2029 ****         1.0000  34.0000  20.5000 Du        
   2030 ****         1.0000  34.0000  20.7500 Du        
   2031 ****         1.0000  34.0000  21.0000 Du        
   2032 ****         1.0000  34.0000  21.2500 Du        
   2033 ****         1.0000  34.2500  18.7500 Du        
   2034 ****         1.0000  34.2500  19.0000 Du        
   2035 ****         1.0000  34.2500  19.2500 Du        
   2036 ****         1.0000  34.2500  19.5000 Du        
   2037 ****         1.0000  34.2500  19.7500 Du        
   2038 ****         1.0000  34.2500  20.0000 Du        
   2039 ****         1.0000  34.2500  20.2500 Du        
   2040 ****         1.0000  34.2500  20.5000 Du        
   2041 ****         1.0000  34.2500  20.7500 Du        
   2042 ****         1.0000  34.2500  21.0000 Du        
   2043 ****         1.0000  34.5000  18.7500 Du        
   2044 ****         1.0000  34.5000  19.0000 Du        
   2045 ****         1.0000  34.5000  19.5000 Du        
   2046 ****         1.0000  34.5000  19.7500 Du        
   2047 ****         1.0000  34.5000  20.0000 Du        
   2048 ****         1.0000  34.5000  20.2500 Du        
   2049 ****         1.0000  34.5000  20.5000 Du        
   2050 ****         1.0000  34.5000  20.7500 Du        
   2051 ****         1.0000  34.7500  19.7500 Du        
   2052 ****         1.0000  34.7500  20.0000 Du        
   2053 ****         1.0000  34.7500  20.2500 Du        
   2054 ****         1.0000  34.7500  20.5000 Du        
   2055 ****         1.0000  35.0000  20.0000 Du        
   2056 ****         1.0000  35.0000  20.2500 Du        
   2057 ****         1.2500  17.5000  11.0000 Du        
   2058 ****         1.2500  17.7500  11.0000 Du        
   2059 ****         1.2500  17.7500  11.2500 Du        
   2060 ****         1.2500  18.0000  11.0000 Du        
   2061 ****         1.2500  18.0000  11.2500 Du        
   2062 ****         1.2500  18.5000  14.5000 Du        
   2063 ****         1.2500  18.5000  14.7500 Du        
   2064 ****         1.2500  18.7500  12.7500 Du        
   2065 ****         1.2500  18.7500  13.0000 Du        
   2066 ****         1.2500  18.7500  13.2500 Du        
   2067 ****         1.2500  18.7500  13.5000 Du        
   2068 ****         1.2500  18.7500  13.7500 Du        
   2069 ****         1.2500  18.7500  14.0000 Du        
   2070 ****         1.2500  18.7500  14.2500 Du        
   2071 ****         1.2500  18.7500  14.5000 Du        
   2072 ****         1.2500  18.7500  14.7500 Du        
   2073 ****         1.2500  18.7500  15.0000 Du        
   2074 ****         1.2500  18.7500  15.2500 Du        
   2075 ****         1.2500  19.0000  12.7500 Du        
   2076 ****         1.2500  19.0000  13.0000 Du        
   2077 ****         1.2500  19.0000  13.2500 Du        
   2078 ****         1.2500  19.0000  13.5000 Du        
   2079 ****         1.2500  19.0000  13.7500 Du        
   2080 ****         1.2500  19.0000  14.0000 Du        
   2081 ****         1.2500  19.0000  14.2500 Du        
   2082 ****         1.2500  19.0000  14.5000 Du        
   2083 ****         1.2500  19.0000  14.7500 Du        
   2084 ****         1.2500  19.0000  15.0000 Du        
   2085 ****         1.2500  19.0000  15.2500 Du        
   2086 ****         1.2500  19.0000  15.5000 Du        
   2087 ****         1.2500  19.2500  12.7500 Du        
   2088 ****         1.2500  19.2500  13.0000 Du        
   2089 ****         1.2500  19.2500  13.2500 Du        
   2090 ****         1.2500  19.2500  13.5000 Du        
   2091 ****         1.2500  19.2500  13.7500 Du        
   2092 ****         1.2500  19.2500  14.0000 Du        
   2093 ****         1.2500  19.2500  14.2500 Du        
   2094 ****         1.2500  19.2500  14.5000 Du        
   2095 ****         1.2500  19.2500  14.7500 Du        
   2096 ****         1.2500  19.2500  15.0000 Du        
   2097 ****         1.2500  19.2500  15.2500 Du        
   2098 ****         1.2500  19.2500  15.5000 Du        
   2099 ****         1.2500  19.5000  13.0000 Du        
   2100 ****         1.2500  19.5000  13.2500 Du        
   2101 ****         1.2500  19.5000  13.5000 Du        
   2102 ****         1.2500  19.5000  13.7500 Du        
   2103 ****         1.2500  19.5000  14.0000 Du        
   2104 ****         1.2500  19.5000  14.2500 Du        
   2105 ****         1.2500  19.5000  14.5000 Du        
   2106 ****         1.2500  19.5000  14.7500 Du        
   2107 ****         1.2500  19.5000  15.0000 Du        
   2108 ****         1.2500  19.5000  15.2500 Du        
   2109 ****         1.2500  19.5000  15.5000 Du        
   2110 ****         1.2500  19.5000  15.7500 Du        
   2111 ****         1.2500  19.7500  13.0000 Du        
   2112 ****         1.2500  19.7500  13.2500 Du        
   2113 ****         1.2500  19.7500  13.5000 Du        
   2114 ****         1.2500  19.7500  13.7500 Du        
   2115 ****         1.2500  19.7500  14.0000 Du        
   2116 ****         1.2500  19.7500  14.2500 Du        
   2117 ****         1.2500  19.7500  14.5000 Du        
   2118 ****         1.2500  19.7500  14.7500 Du        
   2119 ****         1.2500  19.7500  15.0000 Du        
   2120 ****         1.2500  19.7500  15.2500 Du        
   2121 ****         1.2500  19.7500  15.5000 Du        
   2122 ****         1.2500  19.7500  15.7500 Du        
   2123 ****         1.2500  20.0000  13.2500 Du        
   2124 ****         1.2500  20.0000  13.5000 Du        
   2125 ****         1.2500  20.0000  13.7500 Du        
   2126 ****         1.2500  20.0000  14.0000 Du        
   2127 ****         1.2500  20.0000  14.2500 Du        
   2128 ****         1.2500  20.0000  14.5000 Du        
   2129 ****         1.2500  20.0000  14.7500 Du        
   2130 ****         1.2500  20.0000  15.0000 Du        
   2131 ****         1.2500  20.0000  15.2500 Du        
   2132 ****         1.2500  20.0000  15.5000 Du        
   2133 ****         1.2500  20.0000  15.7500 Du        
   2134 ****         1.2500  20.0000  16.0000 Du        
   2135 ****         1.2500  20.2500  13.5000 Du        
   2136 ****         1.2500  20.2500  13.7500 Du        
   2137 ****         1.2500  20.2500  14.0000 Du        
   2138 ****         1.2500  20.2500  14.2500 Du        
   2139 ****         1.2500  20.2500  14.5000 Du        
   2140 ****         1.2500  20.2500  14.7500 Du        
   2141 ****         1.2500  20.2500  15.0000 Du        
   2142 ****         1.2500  20.2500  15.2500 Du        
   2143 ****         1.2500  20.2500  15.5000 Du        
   2144 ****         1.2500  20.2500  15.7500 Du        
   2145 ****         1.2500  20.2500  16.0000 Du        
   2146 ****         1.2500  20.5000  13.5000 Du        
   2147 ****         1.2500  20.5000  13.7500 Du        
   2148 ****         1.2500  20.5000  14.0000 Du        
   2149 ****         1.2500  20.5000  14.2500 Du        
   2150 ****         1.2500  20.5000  14.5000 Du        
   2151 ****         1.2500  20.5000  14.7500 Du        
   2152 ****         1.2500  20.5000  15.0000 Du        
   2153 ****         1.2500  20.5000  15.2500 Du        
   2154 ****         1.2500  20.5000  15.5000 Du        
   2155 ****         1.2500  20.5000  15.7500 Du        
   2156 ****         1.2500  20.5000  16.0000 Du        
   2157 ****         1.2500  20.7500  13.7500 Du        
   2158 ****         1.2500  20.7500  14.0000 Du        
   2159 ****         1.2500  20.7500  14.2500 Du        
   2160 ****         1.2500  20.7500  14.5000 Du        
   2161 ****         1.2500  20.7500  14.7500 Du        
   2162 ****         1.2500  20.7500  15.0000 Du        
   2163 ****         1.2500  20.7500  15.2500 Du        
   2164 ****         1.2500  20.7500  15.5000 Du        
   2165 ****         1.2500  20.7500  15.7500 Du        
   2166 ****         1.2500  20.7500  16.0000 Du        
   2167 ****         1.2500  20.7500  16.2500 Du        
   2168 ****         1.2500  21.0000  14.0000 Du        
   2169 ****         1.2500  21.0000  14.2500 Du        
   2170 ****         1.2500  26.7500   7.0000 Du        
   2171 ****         1.2500  27.0000   7.0000 Du        
   2172 ****         1.2500  27.0000   7.2500 Du        
   2173 ****         1.2500  27.0000   7.5000 Du        
   2174 ****         1.2500  27.2500   7.0000 Du        
   2175 ****         1.2500  27.2500   7.2500 Du        
   2176 ****         1.2500  27.2500   7.5000 Du        
   2177 ****         1.2500  27.2500   7.7500 Du        
   2178 ****         1.2500  27.5000   7.0000 Du        
   2179 ****         1.2500  27.5000   7.2500 Du        
   2180 ****         1.2500  27.5000   7.5000 Du        
   2181 ****         1.2500  27.5000   7.7500 Du        
   2182 ****         1.2500  27.5000   8.0000 Du        
   2183 ****         1.2500  27.7500   7.0000 Du        
   2184 ****         1.2500  27.7500   7.2500 Du        
   2185 ****         1.2500  27.7500   7.5000 Du        
   2186 ****         1.2500  27.7500   7.7500 Du        
   2187 ****         1.2500  27.7500   8.0000 Du        
   2188 ****         1.2500  28.0000   7.2500 Du        
   2189 ****         1.2500  28.0000   7.5000 Du        
   2190 ****         1.2500  28.0000   7.7500 Du        
   2191 ****         1.2500  28.2500   7.2500 Du        
   2192 ****         1.2500  28.2500   7.5000 Du        
   2193 ****         1.2500  32.7500  19.5000 Du        
   2194 ****         1.2500  32.7500  19.7500 Du        
   2195 ****         1.2500  32.7500  20.0000 Du        
   2196 ****         1.2500  32.7500  20.2500 Du        
   2197 ****         1.2500  32.7500  20.5000 Du        
   2198 ****         1.2500  32.7500  20.7500 Du        
   2199 ****         1.2500  33.0000  19.2500 Du        
   2200 ****         1.2500  33.0000  19.5000 Du        
   2201 ****         1.2500  33.0000  19.7500 Du        
   2202 ****         1.2500  33.0000  20.0000 Du        
   2203 ****         1.2500  33.0000  20.2500 Du        
   2204 ****         1.2500  33.0000  20.5000 Du        
   2205 ****         1.2500  33.0000  20.7500 Du        
   2206 ****         1.2500  33.0000  21.0000 Du        
   2207 ****         1.2500  33.0000  21.2500 Du        
   2208 ****         1.2500  33.2500  19.0000 Du        
   2209 ****         1.2500  33.2500  19.2500 Du        
   2210 ****         1.2500  33.2500  19.5000 Du        
   2211 ****         1.2500  33.2500  19.7500 Du        
   2212 ****         1.2500  33.2500  20.0000 Du        
   2213 ****         1.2500  33.2500  20.2500 Du        
   2214 ****         1.2500  33.2500  20.5000 Du        
   2215 ****         1.2500  33.2500  20.7500 Du        
   2216 ****         1.2500  33.2500  21.0000 Du        
   2217 ****         1.2500  33.2500  21.2500 Du        
   2218 ****         1.2500  33.5000  18.7500 Du        
   2219 ****         1.2500  33.5000  19.0000 Du        
   2220 ****         1.2500  33.5000  19.2500 Du        
   2221 ****         1.2500  33.5000  19.5000 Du        
   2222 ****         1.2500  33.5000  19.7500 Du        
   2223 ****         1.2500  33.5000  20.0000 Du        
   2224 ****         1.2500  33.5000  20.2500 Du        
   2225 ****         1.2500  33.5000  20.5000 Du        
   2226 ****         1.2500  33.5000  20.7500 Du        
   2227 ****         1.2500  33.5000  21.0000 Du        
   2228 ****         1.2500  33.7500  18.5000 Du        
   2229 ****         1.2500  33.7500  18.7500 Du        
   2230 ****         1.2500  33.7500  19.0000 Du        
   2231 ****         1.2500  33.7500  19.2500 Du        
   2232 ****         1.2500  33.7500  19.5000 Du        
   2233 ****         1.2500  33.7500  19.7500 Du        
   2234 ****         1.2500  33.7500  20.0000 Du        
   2235 ****         1.2500  33.7500  20.2500 Du        
   2236 ****         1.2500  33.7500  20.5000 Du        
   2237 ****         1.2500  33.7500  20.7500 Du        
   2238 ****         1.2500  33.7500  21.0000 Du        
   2239 ****         1.2500  34.0000  18.2500 Du        
   2240 ****         1.2500  34.0000  18.5000 Du        
   2241 ****         1.2500  34.0000  18.7500 Du        
   2242 ****         1.2500  34.0000  19.0000 Du        
   2243 ****         1.2500  34.0000  19.2500 Du        
   2244 ****         1.2500  34.0000  19.5000 Du        
   2245 ****         1.2500  34.0000  19.7500 Du        
   2246 ****         1.2500  34.0000  20.0000 Du        
   2247 ****         1.2500  34.0000  20.2500 Du        
   2248 ****         1.2500  34.0000  20.5000 Du        
   2249 ****         1.2500  34.0000  20.7500 Du        
   2250 ****         1.2500  34.2500  18.0000 Du        
   2251 ****         1.2500  34.2500  18.2500 Du        
   2252 ****         1.2500  34.2500  18.5000 Du        
   2253 ****         1.2500  34.2500  18.7500 Du        
   2254 ****         1.2500  34.2500  19.0000 Du        
   2255 ****         1.2500  34.2500  19.2500 Du        
   2256 ****         1.2500  34.2500  19.5000 Du        
   2257 ****         1.2500  34.2500  19.7500 Du        
   2258 ****         1.2500  34.2500  20.0000 Du        
   2259 ****         1.2500  34.2500  20.2500 Du        
   2260 ****         1.2500  34.2500  20.5000 Du        
   2261 ****         1.2500  34.5000  18.5000 Du        
   2262 ****         1.2500  34.5000  18.7500 Du        
   2263 ****         1.2500  34.5000  19.0000 Du        
   2264 ****         1.2500  34.5000  19.2500 Du        
   2265 ****         1.2500  34.5000  19.5000 Du        
   2266 ****         1.2500  34.5000  19.7500 Du        
   2267 ****         1.2500  34.5000  20.0000 Du        
   2268 ****         1.2500  34.5000  20.2500 Du        
   2269 ****         1.2500  34.7500  18.7500 Du        
   2270 ****         1.2500  34.7500  19.0000 Du        
   2271 ****         1.2500  34.7500  19.2500 Du        
   2272 ****         1.2500  34.7500  19.5000 Du        
   2273 ****         1.2500  34.7500  19.7500 Du        
   2274 ****         1.2500  34.7500  20.0000 Du        
   2275 ****         1.2500  34.7500  20.2500 Du        
   2276 ****         1.2500  35.0000  18.7500 Du        
   2277 ****         1.2500  35.0000  19.0000 Du        
   2278 ****         1.2500  35.0000  19.2500 Du        
   2279 ****         1.2500  35.0000  19.5000 Du        
   2280 ****         1.2500  35.0000  19.7500 Du        
   2281 ****         1.2500  35.0000  20.0000 Du        
   2282 ****         1.2500  35.2500  19.7500 Du        
   2283 ****         1.5000  17.0000  10.5000 Du        
   2284 ****         1.5000  17.0000  10.7500 Du        
   2285 ****         1.5000  17.0000  11.0000 Du        
   2286 ****         1.5000  17.2500  10.5000 Du        
   2287 ****         1.5000  17.2500  10.7500 Du        
   2288 ****         1.5000  17.2500  11.0000 Du        
   2289 ****         1.5000  17.5000  10.0000 Du        
   2290 ****         1.5000  17.5000  10.2500 Du        
   2291 ****         1.5000  17.5000  10.5000 Du        
   2292 ****         1.5000  17.5000  10.7500 Du        
   2293 ****         1.5000  17.5000  11.0000 Du        
   2294 ****         1.5000  17.7500  10.0000 Du        
   2295 ****         1.5000  17.7500  10.2500 Du        
   2296 ****         1.5000  17.7500  10.5000 Du        
   2297 ****         1.5000  17.7500  10.7500 Du        
   2298 ****         1.5000  17.7500  11.0000 Du        
   2299 ****         1.5000  17.7500  11.2500 Du        
   2300 ****         1.5000  18.0000  10.0000 Du        
   2301 ****         1.5000  18.0000  10.2500 Du        
   2302 ****         1.5000  18.0000  10.5000 Du        
   2303 ****         1.5000  18.0000  10.7500 Du        
   2304 ****         1.5000  18.0000  11.0000 Du        
   2305 ****         1.5000  18.0000  11.2500 Du        
   2306 ****         1.5000  18.2500  10.5000 Du        
   2307 ****         1.5000  18.2500  10.7500 Du        
   2308 ****         1.5000  18.2500  11.0000 Du        
   2309 ****         1.5000  18.2500  11.2500 Du        
   2310 ****         1.5000  18.7500  13.7500 Du        
   2311 ****         1.5000  18.7500  14.0000 Du        
   2312 ****         1.5000  18.7500  14.2500 Du        
   2313 ****         1.5000  18.7500  14.5000 Du        
   2314 ****         1.5000  18.7500  14.7500 Du        
   2315 ****         1.5000  18.7500  15.0000 Du        
   2316 ****         1.5000  19.0000  12.7500 Du        
   2317 ****         1.5000  19.0000  13.0000 Du        
   2318 ****         1.5000  19.0000  13.2500 Du        
   2319 ****         1.5000  19.0000  13.5000 Du        
   2320 ****         1.5000  19.0000  13.7500 Du        
   2321 ****         1.5000  19.0000  14.0000 Du        
   2322 ****         1.5000  19.0000  14.2500 Du        
   2323 ****         1.5000  19.0000  14.5000 Du        
   2324 ****         1.5000  19.0000  14.7500 Du        
   2325 ****         1.5000  19.0000  15.0000 Du        
   2326 ****         1.5000  19.0000  15.2500 Du        
   2327 ****         1.5000  19.2500  12.7500 Du        
   2328 ****         1.5000  19.2500  13.0000 Du        
   2329 ****         1.5000  19.2500  13.2500 Du        
   2330 ****         1.5000  19.2500  13.5000 Du        
   2331 ****         1.5000  19.2500  13.7500 Du        
   2332 ****         1.5000  19.2500  14.0000 Du        
   2333 ****         1.5000  19.2500  14.2500 Du        
   2334 ****         1.5000  19.2500  14.5000 Du        
   2335 ****         1.5000  19.2500  14.7500 Du        
   2336 ****         1.5000  19.2500  15.0000 Du        
   2337 ****         1.5000  19.2500  15.2500 Du        
   2338 ****         1.5000  19.5000  13.0000 Du        
   2339 ****         1.5000  19.5000  13.2500 Du        
   2340 ****         1.5000  19.5000  13.5000 Du        
   2341 ****         1.5000  19.5000  13.7500 Du        
   2342 ****         1.5000  19.5000  14.0000 Du        
   2343 ****         1.5000  19.5000  14.2500 Du        
   2344 ****         1.5000  19.5000  14.5000 Du        
   2345 ****         1.5000  19.5000  14.7500 Du        
   2346 ****         1.5000  19.5000  15.0000 Du        
   2347 ****         1.5000  19.5000  15.2500 Du        
   2348 ****         1.5000  19.5000  15.5000 Du        
   2349 ****         1.5000  19.7500  13.0000 Du        
   2350 ****         1.5000  19.7500  13.2500 Du        
   2351 ****         1.5000  19.7500  13.5000 Du        
   2352 ****         1.5000  19.7500  13.7500 Du        
   2353 ****         1.5000  19.7500  14.0000 Du        
   2354 ****         1.5000  19.7500  14.2500 Du        
   2355 ****         1.5000  19.7500  14.5000 Du        
   2356 ****         1.5000  19.7500  14.7500 Du        
   2357 ****         1.5000  19.7500  15.0000 Du        
   2358 ****         1.5000  19.7500  15.2500 Du        
   2359 ****         1.5000  19.7500  15.5000 Du        
   2360 ****         1.5000  20.0000  13.2500 Du        
   2361 ****         1.5000  20.0000  13.5000 Du        
   2362 ****         1.5000  20.0000  13.7500 Du        
   2363 ****         1.5000  20.0000  14.0000 Du        
   2364 ****         1.5000  20.0000  14.2500 Du        
   2365 ****         1.5000  20.0000  14.5000 Du        
   2366 ****         1.5000  20.0000  14.7500 Du        
   2367 ****         1.5000  20.0000  15.0000 Du        
   2368 ****         1.5000  20.0000  15.2500 Du        
   2369 ****         1.5000  20.0000  15.5000 Du        
   2370 ****         1.5000  20.0000  15.7500 Du        
   2371 ****         1.5000  20.2500  13.5000 Du        
   2372 ****         1.5000  20.2500  13.7500 Du        
   2373 ****         1.5000  20.2500  14.0000 Du        
   2374 ****         1.5000  20.2500  14.2500 Du        
   2375 ****         1.5000  20.2500  14.5000 Du        
   2376 ****         1.5000  20.2500  14.7500 Du        
   2377 ****         1.5000  20.2500  15.0000 Du        
   2378 ****         1.5000  20.2500  15.2500 Du        
   2379 ****         1.5000  20.2500  15.5000 Du        
   2380 ****         1.5000  20.2500  15.7500 Du        
   2381 ****         1.5000  20.5000  13.5000 Du        
   2382 ****         1.5000  20.5000  13.7500 Du        
   2383 ****         1.5000  20.5000  14.0000 Du        
   2384 ****         1.5000  20.5000  14.2500 Du        
   2385 ****         1.5000  20.5000  14.5000 Du        
   2386 ****         1.5000  20.5000  14.7500 Du        
   2387 ****         1.5000  20.5000  15.0000 Du        
   2388 ****         1.5000  20.5000  15.2500 Du        
   2389 ****         1.5000  20.5000  15.5000 Du        
   2390 ****         1.5000  20.5000  15.7500 Du        
   2391 ****         1.5000  20.5000  16.0000 Du        
   2392 ****         1.5000  20.7500  13.7500 Du        
   2393 ****         1.5000  20.7500  14.0000 Du        
   2394 ****         1.5000  20.7500  14.2500 Du        
   2395 ****         1.5000  20.7500  14.5000 Du        
   2396 ****         1.5000  20.7500  14.7500 Du        
   2397 ****         1.5000  20.7500  15.0000 Du        
   2398 ****         1.5000  20.7500  15.2500 Du        
   2399 ****         1.5000  20.7500  15.5000 Du        
   2400 ****         1.5000  20.7500  15.7500 Du        
   2401 ****         1.5000  27.2500   7.2500 Du        
   2402 ****         1.5000  27.2500   7.5000 Du        
   2403 ****         1.5000  27.5000   7.2500 Du        
   2404 ****         1.5000  27.5000   7.5000 Du        
   2405 ****         1.5000  27.5000   7.7500 Du        
   2406 ****         1.5000  27.7500   7.2500 Du        
   2407 ****         1.5000  27.7500   7.5000 Du        
   2408 ****         1.5000  27.7500   7.7500 Du        
   2409 ****         1.5000  28.0000   7.2500 Du        
   2410 ****         1.5000  28.0000   7.5000 Du        
   2411 ****         1.5000  32.7500  19.5000 Du        
   2412 ****         1.5000  32.7500  19.7500 Du        
   2413 ****         1.5000  32.7500  20.0000 Du        
   2414 ****         1.5000  33.0000  19.2500 Du        
   2415 ****         1.5000  33.0000  19.5000 Du        
   2416 ****         1.5000  33.0000  19.7500 Du        
   2417 ****         1.5000  33.0000  20.0000 Du        
   2418 ****         1.5000  33.0000  20.2500 Du        
   2419 ****         1.5000  33.0000  20.5000 Du        
   2420 ****         1.5000  33.2500  18.7500 Du        
   2421 ****         1.5000  33.2500  19.0000 Du        
   2422 ****         1.5000  33.2500  19.2500 Du        
   2423 ****         1.5000  33.2500  19.5000 Du        
   2424 ****         1.5000  33.2500  19.7500 Du        
   2425 ****         1.5000  33.2500  20.0000 Du        
   2426 ****         1.5000  33.2500  20.2500 Du        
   2427 ****         1.5000  33.2500  20.5000 Du        
   2428 ****         1.5000  33.2500  20.7500 Du        
   2429 ****         1.5000  33.5000  18.7500 Du        
   2430 ****         1.5000  33.5000  19.0000 Du        
   2431 ****         1.5000  33.5000  19.2500 Du        
   2432 ****         1.5000  33.5000  19.5000 Du        
   2433 ****         1.5000  33.5000  19.7500 Du        
   2434 ****         1.5000  33.5000  20.0000 Du        
   2435 ****         1.5000  33.5000  20.2500 Du        
   2436 ****         1.5000  33.5000  20.5000 Du        
   2437 ****         1.5000  33.5000  20.7500 Du        
   2438 ****         1.5000  33.7500  18.2500 Du        
   2439 ****         1.5000  33.7500  18.5000 Du        
   2440 ****         1.5000  33.7500  18.7500 Du        
   2441 ****         1.5000  33.7500  19.0000 Du        
   2442 ****         1.5000  33.7500  19.2500 Du        
   2443 ****         1.5000  33.7500  19.5000 Du        
   2444 ****         1.5000  33.7500  19.7500 Du        
   2445 ****         1.5000  33.7500  20.0000 Du        
   2446 ****         1.5000  33.7500  20.2500 Du        
   2447 ****         1.5000  33.7500  20.5000 Du        
   2448 ****         1.5000  34.0000  18.0000 Du        
   2449 ****         1.5000  34.0000  18.2500 Du        
   2450 ****         1.5000  34.0000  18.5000 Du        
   2451 ****         1.5000  34.0000  18.7500 Du        
   2452 ****         1.5000  34.0000  19.0000 Du        
   2453 ****         1.5000  34.0000  19.2500 Du        
   2454 ****         1.5000  34.0000  19.5000 Du        
   2455 ****         1.5000  34.0000  19.7500 Du        
   2456 ****         1.5000  34.0000  20.0000 Du        
   2457 ****         1.5000  34.0000  20.2500 Du        
   2458 ****         1.5000  34.0000  20.5000 Du        
   2459 ****         1.5000  34.2500  18.0000 Du        
   2460 ****         1.5000  34.2500  18.2500 Du        
   2461 ****         1.5000  34.2500  18.5000 Du        
   2462 ****         1.5000  34.2500  18.7500 Du        
   2463 ****         1.5000  34.2500  19.0000 Du        
   2464 ****         1.5000  34.2500  19.2500 Du        
   2465 ****         1.5000  34.2500  19.5000 Du        
   2466 ****         1.5000  34.2500  19.7500 Du        
   2467 ****         1.5000  34.2500  20.0000 Du        
   2468 ****         1.5000  34.2500  20.2500 Du        
   2469 ****         1.5000  34.5000  18.0000 Du        
   2470 ****         1.5000  34.5000  18.2500 Du        
   2471 ****         1.5000  34.5000  18.5000 Du        
   2472 ****         1.5000  34.5000  18.7500 Du        
   2473 ****         1.5000  34.5000  19.0000 Du        
   2474 ****         1.5000  34.5000  19.2500 Du        
   2475 ****         1.5000  34.5000  19.5000 Du        
   2476 ****         1.5000  34.5000  19.7500 Du        
   2477 ****         1.5000  34.5000  20.0000 Du        
   2478 ****         1.5000  34.7500  18.2500 Du        
   2479 ****         1.5000  34.7500  18.5000 Du        
   2480 ****         1.5000  34.7500  18.7500 Du        
   2481 ****         1.5000  34.7500  19.0000 Du        
   2482 ****         1.5000  34.7500  19.2500 Du        
   2483 ****         1.5000  34.7500  19.5000 Du        
   2484 ****         1.5000  34.7500  19.7500 Du        
   2485 ****         1.5000  34.7500  20.0000 Du        
   2486 ****         1.5000  35.0000  18.5000 Du        
   2487 ****         1.5000  35.0000  18.7500 Du        
   2488 ****         1.5000  35.0000  19.0000 Du        
   2489 ****         1.5000  35.0000  19.2500 Du        
   2490 ****         1.5000  35.0000  19.5000 Du        
   2491 ****         1.5000  35.0000  19.7500 Du        
   2492 ****         1.5000  35.2500  18.7500 Du        
   2493 ****         1.5000  35.2500  19.0000 Du        
   2494 ****         1.5000  35.2500  19.2500 Du        
   2495 ****         1.5000  35.2500  19.5000 Du        
   2496 ****         1.5000  35.2500  19.7500 Du        
   2497 ****         1.5000  35.5000  19.0000 Du        
   2498 ****         1.5000  35.5000  19.2500 Du        
   2499 ****         1.5000  35.5000  19.5000 Du        
   2500 ****         1.7500  17.0000  10.5000 Du        
   2501 ****         1.7500  17.0000  10.7500 Du        
   2502 ****         1.7500  17.2500  10.2500 Du        
   2503 ****         1.7500  17.2500  10.5000 Du        
   2504 ****         1.7500  17.2500  10.7500 Du        
   2505 ****         1.7500  17.2500  11.0000 Du        
   2506 ****         1.7500  17.5000  10.0000 Du        
   2507 ****         1.7500  17.5000  10.2500 Du        
   2508 ****         1.7500  17.5000  10.5000 Du        
   2509 ****         1.7500  17.5000  10.7500 Du        
   2510 ****         1.7500  17.5000  11.0000 Du        
   2511 ****         1.7500  17.7500   9.5000 Du        
   2512 ****         1.7500  17.7500   9.7500 Du        
   2513 ****         1.7500  17.7500  10.0000 Du        
   2514 ****         1.7500  17.7500  10.2500 Du        
   2515 ****         1.7500  17.7500  10.5000 Du        
   2516 ****         1.7500  17.7500  10.7500 Du        
   2517 ****         1.7500  17.7500  11.0000 Du        
   2518 ****         1.7500  18.0000   9.5000 Du        
   2519 ****         1.7500  18.0000   9.7500 Du        
   2520 ****         1.7500  18.0000  10.0000 Du        
   2521 ****         1.7500  18.0000  10.2500 Du        
   2522 ****         1.7500  18.0000  10.5000 Du        
   2523 ****         1.7500  18.0000  10.7500 Du        
   2524 ****         1.7500  18.0000  11.0000 Du        
   2525 ****         1.7500  18.0000  11.2500 Du        
   2526 ****         1.7500  18.2500   9.2500 Du        
   2527 ****         1.7500  18.2500   9.5000 Du        
   2528 ****         1.7500  18.2500   9.7500 Du        
   2529 ****         1.7500  18.2500  10.0000 Du        
   2530 ****         1.7500  18.2500  10.2500 Du        
   2531 ****         1.7500  18.2500  10.5000 Du        
   2532 ****         1.7500  18.2500  10.7500 Du        
   2533 ****         1.7500  18.2500  11.0000 Du        
   2534 ****         1.7500  18.2500  11.2500 Du        
   2535 ****         1.7500  19.0000  14.0000 Du        
   2536 ****         1.7500  19.0000  14.2500 Du        
   2537 ****         1.7500  19.0000  14.5000 Du        
   2538 ****         1.7500  19.0000  14.7500 Du        
   2539 ****         1.7500  19.0000  15.0000 Du        
   2540 ****         1.7500  19.2500  13.0000 Du        
   2541 ****         1.7500  19.2500  13.2500 Du        
   2542 ****         1.7500  19.2500  13.5000 Du        
   2543 ****         1.7500  19.2500  13.7500 Du        
   2544 ****         1.7500  19.2500  14.0000 Du        
   2545 ****         1.7500  19.2500  14.2500 Du        
   2546 ****         1.7500  19.2500  14.5000 Du        
   2547 ****         1.7500  19.2500  14.7500 Du        
   2548 ****         1.7500  19.2500  15.0000 Du        
   2549 ****         1.7500  19.5000  13.0000 Du        
   2550 ****         1.7500  19.5000  13.2500 Du        
   2551 ****         1.7500  19.5000  13.5000 Du        
   2552 ****         1.7500  19.5000  13.7500 Du        
   2553 ****         1.7500  19.5000  14.0000 Du        
   2554 ****         1.7500  19.5000  14.2500 Du        
   2555 ****         1.7500  19.5000  14.5000 Du        
   2556 ****         1.7500  19.5000  14.7500 Du        
   2557 ****         1.7500  19.5000  15.0000 Du        
   2558 ****         1.7500  19.5000  15.2500 Du        
   2559 ****         1.7500  19.7500  13.2500 Du        
   2560 ****         1.7500  19.7500  13.5000 Du        
   2561 ****         1.7500  19.7500  13.7500 Du        
   2562 ****         1.7500  19.7500  14.0000 Du        
   2563 ****         1.7500  19.7500  14.2500 Du        
   2564 ****         1.7500  19.7500  14.5000 Du        
   2565 ****         1.7500  19.7500  14.7500 Du        
   2566 ****         1.7500  19.7500  15.0000 Du        
   2567 ****         1.7500  19.7500  15.2500 Du        
   2568 ****         1.7500  20.0000  13.2500 Du        
   2569 ****         1.7500  20.0000  13.5000 Du        
   2570 ****         1.7500  20.0000  13.7500 Du        
   2571 ****         1.7500  20.0000  14.0000 Du        
   2572 ****         1.7500  20.0000  14.2500 Du        
   2573 ****         1.7500  20.0000  14.5000 Du        
   2574 ****         1.7500  20.0000  14.7500 Du        
   2575 ****         1.7500  20.0000  15.0000 Du        
   2576 ****         1.7500  20.0000  15.2500 Du        
   2577 ****         1.7500  20.0000  15.5000 Du        
   2578 ****         1.7500  20.2500  13.5000 Du        
   2579 ****         1.7500  20.2500  13.7500 Du        
   2580 ****         1.7500  20.2500  14.0000 Du        
   2581 ****         1.7500  20.2500  14.2500 Du        
   2582 ****         1.7500  20.2500  14.5000 Du        
   2583 ****         1.7500  20.2500  14.7500 Du        
   2584 ****         1.7500  20.2500  15.0000 Du        
   2585 ****         1.7500  20.2500  15.2500 Du        
   2586 ****         1.7500  20.2500  15.5000 Du        
   2587 ****         1.7500  20.5000  13.7500 Du        
   2588 ****         1.7500  20.5000  14.0000 Du        
   2589 ****         1.7500  20.5000  14.2500 Du        
   2590 ****         1.7500  20.5000  14.5000 Du        
   2591 ****         1.7500  20.5000  14.7500 Du        
   2592 ****         1.7500  20.5000  15.0000 Du        
   2593 ****         1.7500  20.5000  15.2500 Du        
   2594 ****         1.7500  20.5000  15.5000 Du        
   2595 ****         1.7500  20.7500  13.7500 Du        
   2596 ****         1.7500  20.7500  14.0000 Du        
   2597 ****         1.7500  20.7500  14.2500 Du        
   2598 ****         1.7500  20.7500  14.5000 Du        
   2599 ****         1.7500  20.7500  14.7500 Du        
   2600 ****         1.7500  20.7500  15.0000 Du        
   2601 ****         1.7500  33.0000  19.2500 Du        
   2602 ****         1.7500  33.0000  19.5000 Du        
   2603 ****         1.7500  33.0000  19.7500 Du        
   2604 ****         1.7500  33.0000  20.0000 Du        
   2605 ****         1.7500  33.2500  18.7500 Du        
   2606 ****         1.7500  33.2500  19.0000 Du        
   2607 ****         1.7500  33.2500  19.2500 Du        
   2608 ****         1.7500  33.2500  19.5000 Du        
   2609 ****         1.7500  33.2500  19.7500 Du        
   2610 ****         1.7500  33.2500  20.0000 Du        
   2611 ****         1.7500  33.2500  20.2500 Du        
   2612 ****         1.7500  33.5000  18.5000 Du        
   2613 ****         1.7500  33.5000  18.7500 Du        
   2614 ****         1.7500  33.5000  19.0000 Du        
   2615 ****         1.7500  33.5000  19.2500 Du        
   2616 ****         1.7500  33.5000  19.5000 Du        
   2617 ****         1.7500  33.5000  19.7500 Du        
   2618 ****         1.7500  33.5000  20.0000 Du        
   2619 ****         1.7500  33.5000  20.2500 Du        
   2620 ****         1.7500  33.7500  18.2500 Du        
   2621 ****         1.7500  33.7500  18.5000 Du        
   2622 ****         1.7500  33.7500  18.7500 Du        
   2623 ****         1.7500  33.7500  19.0000 Du        
   2624 ****         1.7500  33.7500  19.2500 Du        
   2625 ****         1.7500  33.7500  19.5000 Du        
   2626 ****         1.7500  33.7500  19.7500 Du        
   2627 ****         1.7500  33.7500  20.0000 Du        
   2628 ****         1.7500  33.7500  20.2500 Du        
   2629 ****         1.7500  34.0000  18.2500 Du        
   2630 ****         1.7500  34.0000  18.5000 Du        
   2631 ****         1.7500  34.0000  18.7500 Du        
   2632 ****         1.7500  34.0000  19.0000 Du        
   2633 ****         1.7500  34.0000  19.2500 Du        
   2634 ****         1.7500  34.0000  19.5000 Du        
   2635 ****         1.7500  34.0000  19.7500 Du        
   2636 ****         1.7500  34.0000  20.0000 Du        
   2637 ****         1.7500  34.2500  18.2500 Du        
   2638 ****         1.7500  34.2500  18.5000 Du        
   2639 ****         1.7500  34.2500  18.7500 Du        
   2640 ****         1.7500  34.2500  19.0000 Du        
   2641 ****         1.7500  34.2500  19.2500 Du        
   2642 ****         1.7500  34.2500  19.5000 Du        
   2643 ****         1.7500  34.2500  19.7500 Du        
   2644 ****         1.7500  34.2500  20.0000 Du        
   2645 ****         1.7500  34.5000  18.2500 Du        
   2646 ****         1.7500  34.5000  18.5000 Du        
   2647 ****         1.7500  34.5000  18.7500 Du        
   2648 ****         1.7500  34.5000  19.0000 Du        
   2649 ****         1.7500  34.5000  19.2500 Du        
   2650 ****         1.7500  34.5000  19.5000 Du        
   2651 ****         1.7500  34.5000  19.7500 Du        
   2652 ****         1.7500  34.7500  18.2500 Du        
   2653 ****         1.7500  34.7500  18.5000 Du        
   2654 ****         1.7500  34.7500  18.7500 Du        
   2655 ****         1.7500  34.7500  19.0000 Du        
   2656 ****         1.7500  34.7500  19.2500 Du        
   2657 ****         1.7500  34.7500  19.5000 Du        
   2658 ****         1.7500  34.7500  19.7500 Du        
   2659 ****         1.7500  35.0000  18.5000 Du        
   2660 ****         1.7500  35.0000  18.7500 Du        
   2661 ****         1.7500  35.0000  19.0000 Du        
   2662 ****         1.7500  35.0000  19.2500 Du        
   2663 ****         1.7500  35.0000  19.5000 Du        
   2664 ****         1.7500  35.2500  18.7500 Du        
   2665 ****         1.7500  35.2500  19.0000 Du        
   2666 ****         1.7500  35.2500  19.2500 Du        
   2667 ****         1.7500  35.2500  19.5000 Du        
   2668 ****         1.7500  35.5000  19.0000 Du        
   2669 ****         1.7500  35.5000  19.2500 Du        
   2670 ****         1.7500  35.7500  19.0000 Du        
   2671 ****         1.7500  35.7500  19.2500 Du        
   2672 ****         2.0000  17.0000  10.2500 Du        
   2673 ****         2.0000  17.0000  10.5000 Du        
   2674 ****         2.0000  17.2500  10.0000 Du        
   2675 ****         2.0000  17.2500  10.2500 Du        
   2676 ****         2.0000  17.2500  10.5000 Du        
   2677 ****         2.0000  17.2500  10.7500 Du        
   2678 ****         2.0000  17.5000   9.5000 Du        
   2679 ****         2.0000  17.5000   9.7500 Du        
   2680 ****         2.0000  17.5000  10.0000 Du        
   2681 ****         2.0000  17.5000  10.2500 Du        
   2682 ****         2.0000  17.5000  10.5000 Du        
   2683 ****         2.0000  17.5000  10.7500 Du        
   2684 ****         2.0000  17.7500   9.2500 Du        
   2685 ****         2.0000  17.7500   9.5000 Du        
   2686 ****         2.0000  17.7500   9.7500 Du        
   2687 ****         2.0000  17.7500  10.0000 Du        
   2688 ****         2.0000  17.7500  10.2500 Du        
   2689 ****         2.0000  17.7500  10.5000 Du        
   2690 ****         2.0000  17.7500  10.7500 Du        
   2691 ****         2.0000  18.0000   9.0000 Du        
   2692 ****         2.0000  18.0000   9.2500 Du        
   2693 ****         2.0000  18.0000   9.5000 Du        
   2694 ****         2.0000  18.0000   9.7500 Du        
   2695 ****         2.0000  18.0000  10.0000 Du        
   2696 ****         2.0000  18.0000  10.2500 Du        
   2697 ****         2.0000  18.0000  10.5000 Du        
   2698 ****         2.0000  18.0000  10.7500 Du        
   2699 ****         2.0000  18.2500   9.0000 Du        
   2700 ****         2.0000  18.2500   9.2500 Du        
   2701 ****         2.0000  18.2500   9.5000 Du        
   2702 ****         2.0000  18.2500   9.7500 Du        
   2703 ****         2.0000  18.2500  10.0000 Du        
   2704 ****         2.0000  18.2500  10.2500 Du        
   2705 ****         2.0000  18.2500  10.5000 Du        
   2706 ****         2.0000  18.2500  10.7500 Du        
   2707 ****         2.0000  18.5000   8.7500 Du        
   2708 ****         2.0000  18.5000   9.0000 Du        
   2709 ****         2.0000  18.5000   9.2500 Du        
   2710 ****         2.0000  18.5000   9.5000 Du        
   2711 ****         2.0000  18.5000   9.7500 Du        
   2712 ****         2.0000  18.5000  10.0000 Du        
   2713 ****         2.0000  18.7500   8.7500 Du        
   2714 ****         2.0000  18.7500   9.0000 Du        
   2715 ****         2.0000  19.2500  14.0000 Du        
   2716 ****         2.0000  19.2500  14.2500 Du        
   2717 ****         2.0000  19.2500  14.5000 Du        
   2718 ****         2.0000  19.2500  14.7500 Du        
   2719 ****         2.0000  19.5000  13.5000 Du        
   2720 ****         2.0000  19.5000  13.7500 Du        
   2721 ****         2.0000  19.5000  14.0000 Du        
   2722 ****         2.0000  19.5000  14.2500 Du        
   2723 ****         2.0000  19.5000  14.5000 Du        
   2724 ****         2.0000  19.5000  14.7500 Du        
   2725 ****         2.0000  19.5000  15.0000 Du        
   2726 ****         2.0000  19.7500  13.5000 Du        
   2727 ****         2.0000  19.7500  13.7500 Du        
   2728 ****         2.0000  19.7500  14.0000 Du        
   2729 ****         2.0000  19.7500  14.2500 Du        
   2730 ****         2.0000  19.7500  14.5000 Du        
   2731 ****         2.0000  19.7500  14.7500 Du        
   2732 ****         2.0000  19.7500  15.0000 Du        
   2733 ****         2.0000  20.0000  13.5000 Du        
   2734 ****         2.0000  20.0000  13.7500 Du        
   2735 ****         2.0000  20.0000  14.0000 Du        
   2736 ****         2.0000  20.0000  14.2500 Du        
   2737 ****         2.0000  20.0000  14.5000 Du        
   2738 ****         2.0000  20.0000  14.7500 Du        
   2739 ****         2.0000  20.0000  15.0000 Du        
   2740 ****         2.0000  20.0000  15.2500 Du        
   2741 ****         2.0000  20.2500  13.7500 Du        
   2742 ****         2.0000  20.2500  14.0000 Du        
   2743 ****         2.0000  20.2500  14.2500 Du        
   2744 ****         2.0000  20.2500  14.5000 Du        
   2745 ****         2.0000  20.2500  14.7500 Du        
   2746 ****         2.0000  20.2500  15.0000 Du        
   2747 ****         2.0000  20.2500  15.2500 Du        
   2748 ****         2.0000  20.5000  14.0000 Du        
   2749 ****         2.0000  20.5000  14.2500 Du        
   2750 ****         2.0000  20.5000  14.5000 Du        
   2751 ****         2.0000  20.5000  14.7500 Du        
   2752 ****         2.0000  20.5000  15.0000 Du        
   2753 ****         2.0000  20.5000  15.2500 Du        
   2754 ****         2.0000  33.2500  19.0000 Du        
   2755 ****         2.0000  33.2500  19.2500 Du        
   2756 ****         2.0000  33.2500  19.5000 Du        
   2757 ****         2.0000  33.2500  19.7500 Du        
   2758 ****         2.0000  33.2500  20.0000 Du        
   2759 ****         2.0000  33.5000  18.7500 Du        
   2760 ****         2.0000  33.5000  19.0000 Du        
   2761 ****         2.0000  33.5000  19.2500 Du        
   2762 ****         2.0000  33.5000  19.5000 Du        
   2763 ****         2.0000  33.5000  19.7500 Du        
   2764 ****         2.0000  33.7500  18.5000 Du        
   2765 ****         2.0000  33.7500  18.7500 Du        
   2766 ****         2.0000  33.7500  19.0000 Du        
   2767 ****         2.0000  33.7500  19.2500 Du        
   2768 ****         2.0000  33.7500  19.5000 Du        
   2769 ****         2.0000  33.7500  19.7500 Du        
   2770 ****         2.0000  34.0000  18.5000 Du        
   2771 ****         2.0000  34.0000  18.7500 Du        
   2772 ****         2.0000  34.0000  19.0000 Du        
   2773 ****         2.0000  34.0000  19.2500 Du        
   2774 ****         2.0000  34.0000  19.5000 Du        
   2775 ****         2.0000  34.2500  18.5000 Du        
   2776 ****         2.0000  34.2500  18.7500 Du        
   2777 ****         2.0000  34.2500  19.0000 Du        
   2778 ****         2.0000  34.2500  19.2500 Du        
   2779 ****         2.0000  34.2500  19.5000 Du        
   2780 ****         2.0000  34.5000  18.5000 Du        
   2781 ****         2.0000  34.5000  18.7500 Du        
   2782 ****         2.0000  34.5000  19.0000 Du        
   2783 ****         2.0000  34.5000  19.2500 Du        
   2784 ****         2.0000  34.7500  18.7500 Du        
   2785 ****         2.0000  34.7500  19.0000 Du        
   2786 ****         2.0000  34.7500  19.2500 Du        
   2787 ****         2.0000  35.0000  18.7500 Du        
   2788 ****         2.0000  35.0000  19.0000 Du        
   2789 ****         2.0000  35.0000  19.2500 Du        
   2790 ****         2.0000  35.2500  19.0000 Du        
   2791 ****         2.0000  35.2500  19.2500 Du        
   2792 ****         2.2500  17.2500  10.0000 Du        
   2793 ****         2.2500  17.2500  10.2500 Du        
   2794 ****         2.2500  17.2500  10.5000 Du        
   2795 ****         2.2500  17.5000   9.5000 Du        
   2796 ****         2.2500  17.5000   9.7500 Du        
   2797 ****         2.2500  17.5000  10.0000 Du        
   2798 ****         2.2500  17.5000  10.2500 Du        
   2799 ****         2.2500  17.5000  10.5000 Du        
   2800 ****         2.2500  17.7500   9.0000 Du        
   2801 ****         2.2500  17.7500   9.2500 Du        
   2802 ****         2.2500  17.7500   9.5000 Du        
   2803 ****         2.2500  17.7500   9.7500 Du        
   2804 ****         2.2500  17.7500  10.0000 Du        
   2805 ****         2.2500  17.7500  10.2500 Du        
   2806 ****         2.2500  17.7500  10.5000 Du        
   2807 ****         2.2500  18.0000   8.7500 Du        
   2808 ****         2.2500  18.0000   9.0000 Du        
   2809 ****         2.2500  18.0000   9.2500 Du        
   2810 ****         2.2500  18.0000   9.5000 Du        
   2811 ****         2.2500  18.0000   9.7500 Du        
   2812 ****         2.2500  18.0000  10.0000 Du        
   2813 ****         2.2500  18.0000  10.2500 Du        
   2814 ****         2.2500  18.0000  10.5000 Du        
   2815 ****         2.2500  18.2500   8.5000 Du        
   2816 ****         2.2500  18.2500   8.7500 Du        
   2817 ****         2.2500  18.2500   9.0000 Du        
   2818 ****         2.2500  18.2500   9.2500 Du        
   2819 ****         2.2500  18.2500   9.5000 Du        
   2820 ****         2.2500  18.2500   9.7500 Du        
   2821 ****         2.2500  18.2500  10.0000 Du        
   2822 ****         2.2500  18.2500  10.2500 Du        
   2823 ****         2.2500  18.5000   8.5000 Du        
   2824 ****         2.2500  18.5000   8.7500 Du        
   2825 ****         2.2500  18.5000   9.0000 Du        
   2826 ****         2.2500  18.5000   9.2500 Du        
   2827 ****         2.2500  18.5000   9.5000 Du        
   2828 ****         2.2500  18.5000   9.7500 Du        
   2829 ****         2.2500  18.5000  10.0000 Du        
   2830 ****         2.2500  18.7500   8.5000 Du        
   2831 ****         2.2500  18.7500   8.7500 Du        
   2832 ****         2.2500  18.7500   9.0000 Du        
   2833 ****         2.2500  18.7500   9.2500 Du        
   2834 ****         2.2500  18.7500   9.5000 Du        
   2835 ****         2.2500  19.0000   8.7500 Du        
   2836 ****         2.2500  19.5000  14.5000 Du        
   2837 ****         2.2500  19.5000  14.7500 Du        
   2838 ****         2.2500  19.7500  14.0000 Du        
   2839 ****         2.2500  19.7500  14.2500 Du        
   2840 ****         2.2500  19.7500  14.5000 Du        
   2841 ****         2.2500  19.7500  14.7500 Du        
   2842 ****         2.2500  20.0000  14.0000 Du        
   2843 ****         2.2500  20.0000  14.2500 Du        
   2844 ****         2.2500  20.0000  14.5000 Du        
   2845 ****         2.2500  20.0000  14.7500 Du        
   2846 ****         2.2500  20.0000  15.0000 Du        
   2847 ****         2.2500  20.2500  14.2500 Du        
   2848 ****         2.2500  20.2500  14.5000 Du        
   2849 ****         2.2500  20.2500  14.7500 Du        
   2850 ****         2.2500  20.2500  15.0000 Du        
   2851 ****         2.2500  20.5000  14.5000 Du        
   2852 ****         2.2500  20.5000  14.7500 Du        
   2853 ****         2.2500  33.5000  19.0000 Du        
   2854 ****         2.2500  33.7500  18.7500 Du        
   2855 ****         2.2500  33.7500  19.0000 Du        
   2856 ****         2.2500  33.7500  19.2500 Du        
   2857 ****         2.2500  34.0000  18.7500 Du        
   2858 ****         2.2500  34.0000  19.0000 Du        
   2859 ****         2.2500  34.2500  18.7500 Du        
   2860 ****         2.2500  34.2500  19.0000 Du        
   2861 ****         2.5000  17.5000   9.0000 Du        
   2862 ****         2.5000  17.5000   9.2500 Du        
   2863 ****         2.5000  17.5000   9.5000 Du        
   2864 ****         2.5000  17.5000   9.7500 Du        
   2865 ****         2.5000  17.5000  10.0000 Du        
   2866 ****         2.5000  17.5000  10.2500 Du        
   2867 ****         2.5000  17.7500   8.5000 Du        
   2868 ****         2.5000  17.7500   8.7500 Du        
   2869 ****         2.5000  17.7500   9.0000 Du        
   2870 ****         2.5000  17.7500   9.2500 Du        
   2871 ****         2.5000  17.7500   9.5000 Du        
   2872 ****         2.5000  17.7500   9.7500 Du        
   2873 ****         2.5000  17.7500  10.0000 Du        
   2874 ****         2.5000  17.7500  10.2500 Du        
   2875 ****         2.5000  18.0000   8.2500 Du        
   2876 ****         2.5000  18.0000   8.5000 Du        
   2877 ****         2.5000  18.0000   8.7500 Du        
   2878 ****         2.5000  18.0000   9.0000 Du        
   2879 ****         2.5000  18.0000   9.2500 Du        
   2880 ****         2.5000  18.0000   9.5000 Du        
   2881 ****         2.5000  18.0000   9.7500 Du        
   2882 ****         2.5000  18.0000  10.0000 Du        
   2883 ****         2.5000  18.2500   8.2500 Du        
   2884 ****         2.5000  18.2500   8.5000 Du        
   2885 ****         2.5000  18.2500   8.7500 Du        
   2886 ****         2.5000  18.2500   9.0000 Du        
   2887 ****         2.5000  18.2500   9.2500 Du        
   2888 ****         2.5000  18.2500   9.5000 Du        
   2889 ****         2.5000  18.2500   9.7500 Du        
   2890 ****         2.5000  18.2500  10.0000 Du        
   2891 ****         2.5000  18.5000   8.2500 Du        
   2892 ****         2.5000  18.5000   8.5000 Du        
   2893 ****         2.5000  18.5000   8.7500 Du        
   2894 ****         2.5000  18.5000   9.0000 Du        
   2895 ****         2.5000  18.5000   9.2500 Du        
   2896 ****         2.5000  18.5000   9.5000 Du        
   2897 ****         2.5000  18.5000   9.7500 Du        
   2898 ****         2.5000  18.7500   8.2500 Du        
   2899 ****         2.5000  18.7500   8.5000 Du        
   2900 ****         2.5000  18.7500   8.7500 Du        
   2901 ****         2.5000  18.7500   9.0000 Du        
   2902 ****         2.5000  18.7500   9.2500 Du        
   2903 ****         2.5000  18.7500   9.5000 Du        
   2904 ****         2.5000  19.0000   8.0000 Du        
   2905 ****         2.5000  19.0000   8.2500 Du        
   2906 ****         2.5000  19.0000   8.5000 Du        
   2907 ****         2.5000  19.0000   8.7500 Du        
   2908 ****         2.5000  19.0000   9.0000 Du        
   2909 ****         2.5000  19.0000   9.2500 Du        
   2910 ****         2.5000  19.2500   8.2500 Du        
   2911 ****         2.5000  19.2500   8.5000 Du        
   2912 ****         2.5000  19.2500   8.7500 Du        
   2913 ****         2.7500  17.5000   8.5000 Du        
   2914 ****         2.7500  17.5000   8.7500 Du        
   2915 ****         2.7500  17.5000   9.0000 Du        
   2916 ****         2.7500  17.5000   9.2500 Du        
   2917 ****         2.7500  17.5000   9.5000 Du        
   2918 ****         2.7500  17.5000   9.7500 Du        
   2919 ****         2.7500  17.7500   8.2500 Du        
   2920 ****         2.7500  17.7500   8.5000 Du        
   2921 ****         2.7500  17.7500   8.7500 Du        
   2922 ****         2.7500  17.7500   9.0000 Du        
   2923 ****         2.7500  17.7500   9.2500 Du        
   2924 ****         2.7500  17.7500   9.5000 Du        
   2925 ****         2.7500  17.7500   9.7500 Du        
   2926 ****         2.7500  17.7500  10.0000 Du        
   2927 ****         2.7500  18.0000   8.0000 Du        
   2928 ****         2.7500  18.0000   8.2500 Du        
   2929 ****         2.7500  18.0000   8.5000 Du        
   2930 ****         2.7500  18.0000   8.7500 Du        
   2931 ****         2.7500  18.0000   9.0000 Du        
   2932 ****         2.7500  18.0000   9.2500 Du        
   2933 ****         2.7500  18.0000   9.5000 Du        
   2934 ****         2.7500  18.0000   9.7500 Du        
   2935 ****         2.7500  18.0000  10.0000 Du        
   2936 ****         2.7500  18.2500   8.0000 Du        
   2937 ****         2.7500  18.2500   8.2500 Du        
   2938 ****         2.7500  18.2500   8.5000 Du        
   2939 ****         2.7500  18.2500   8.7500 Du        
   2940 ****         2.7500  18.2500   9.0000 Du        
   2941 ****         2.7500  18.2500   9.2500 Du        
   2942 ****         2.7500  18.2500   9.5000 Du        
   2943 ****         2.7500  18.2500   9.7500 Du        
   2944 ****         2.7500  18.5000   8.0000 Du        
   2945 ****         2.7500  18.5000   8.2500 Du        
   2946 ****         2.7500  18.5000   8.5000 Du        
   2947 ****         2.7500  18.5000   8.7500 Du        
   2948 ****         2.7500  18.5000   9.0000 Du        
   2949 ****         2.7500  18.5000   9.2500 Du        
   2950 ****         2.7500  18.5000   9.5000 Du        
   2951 ****         2.7500  18.7500   8.0000 Du        
   2952 ****         2.7500  18.7500   8.2500 Du        
   2953 ****         2.7500  18.7500   8.5000 Du        
   2954 ****         2.7500  18.7500   8.7500 Du        
   2955 ****         2.7500  18.7500   9.0000 Du        
   2956 ****         2.7500  18.7500   9.2500 Du        
   2957 ****         2.7500  18.7500   9.5000 Du        
   2958 ****         2.7500  19.0000   8.2500 Du        
   2959 ****         2.7500  19.0000   8.5000 Du        
   2960 ****         2.7500  19.0000   8.7500 Du        
   2961 ****         2.7500  19.0000   9.0000 Du        
   2962 ****         2.7500  19.0000   9.2500 Du        
   2963 ****         2.7500  19.2500   8.5000 Du        
   2964 ****         2.7500  19.2500   8.7500 Du        
   2965 ****         3.0000  17.5000   8.5000 Du        
   2966 ****         3.0000  17.5000   8.7500 Du        
   2967 ****         3.0000  17.5000   9.0000 Du        
   2968 ****         3.0000  17.7500   8.2500 Du        
   2969 ****         3.0000  17.7500   8.5000 Du        
   2970 ****         3.0000  17.7500   8.7500 Du        
   2971 ****         3.0000  17.7500   9.0000 Du        
   2972 ****         3.0000  17.7500   9.2500 Du        
   2973 ****         3.0000  17.7500   9.5000 Du        
   2974 ****         3.0000  17.7500   9.7500 Du        
   2975 ****         3.0000  18.0000   8.0000 Du        
   2976 ****         3.0000  18.0000   8.2500 Du        
   2977 ****         3.0000  18.0000   8.5000 Du        
   2978 ****         3.0000  18.0000   8.7500 Du        
   2979 ****         3.0000  18.0000   9.0000 Du        
   2980 ****         3.0000  18.0000   9.2500 Du        
   2981 ****         3.0000  18.0000   9.5000 Du        
   2982 ****         3.0000  18.0000   9.7500 Du        
   2983 ****         3.0000  18.2500   7.7500 Du        
   2984 ****         3.0000  18.2500   8.0000 Du        
   2985 ****         3.0000  18.2500   8.2500 Du        
   2986 ****         3.0000  18.2500   8.5000 Du        
   2987 ****         3.0000  18.2500   8.7500 Du        
   2988 ****         3.0000  18.2500   9.0000 Du        
   2989 ****         3.0000  18.2500   9.2500 Du        
   2990 ****         3.0000  18.2500   9.5000 Du        
   2991 ****         3.0000  18.5000   8.0000 Du        
   2992 ****         3.0000  18.5000   8.2500 Du        
   2993 ****         3.0000  18.5000   8.5000 Du        
   2994 ****         3.0000  18.5000   8.7500 Du        
   2995 ****         3.0000  18.5000   9.0000 Du        
   2996 ****         3.0000  18.5000   9.2500 Du        
   2997 ****         3.0000  18.5000   9.5000 Du        
   2998 ****         3.0000  18.7500   8.0000 Du        
   2999 ****         3.0000  18.7500   8.2500 Du        
   3000 ****         3.0000  18.7500   8.5000 Du        
   3001 ****         3.0000  18.7500   8.7500 Du        
   3002 ****         3.0000  18.7500   9.0000 Du        
   3003 ****         3.0000  18.7500   9.2500 Du        
   3004 ****         3.0000  19.0000   8.2500 Du        
   3005 ****         3.0000  19.0000   8.5000 Du        
   3006 ****         3.0000  19.0000   8.7500 Du        
   3007 ****         3.0000  19.0000   9.0000 Du        
   3008 ****         3.0000  19.0000   9.2500 Du        
   3009 ****         3.0000  19.2500   8.7500 Du        
   3010 ****         3.2500  17.5000   8.5000 Du        
   3011 ****         3.2500  17.7500   8.0000 Du        
   3012 ****         3.2500  17.7500   8.2500 Du        
   3013 ****         3.2500  17.7500   8.5000 Du        
   3014 ****         3.2500  17.7500   8.7500 Du        
   3015 ****         3.2500  17.7500   9.0000 Du        
   3016 ****         3.2500  17.7500   9.2500 Du        
   3017 ****         3.2500  18.0000   7.7500 Du        
   3018 ****         3.2500  18.0000   8.0000 Du        
   3019 ****         3.2500  18.0000   8.2500 Du        
   3020 ****         3.2500  18.0000   8.5000 Du        
   3021 ****         3.2500  18.0000   8.7500 Du        
   3022 ****         3.2500  18.0000   9.0000 Du        
   3023 ****         3.2500  18.0000   9.2500 Du        
   3024 ****         3.2500  18.0000   9.5000 Du        
   3025 ****         3.2500  18.2500   7.7500 Du        
   3026 ****         3.2500  18.2500   8.0000 Du        
   3027 ****         3.2500  18.2500   8.2500 Du        
   3028 ****         3.2500  18.2500   8.5000 Du        
   3029 ****         3.2500  18.2500   8.7500 Du        
   3030 ****         3.2500  18.2500   9.0000 Du        
   3031 ****         3.2500  18.2500   9.2500 Du        
   3032 ****         3.2500  18.5000   8.2500 Du        
   3033 ****         3.2500  18.5000   8.5000 Du        
   3034 ****         3.2500  18.5000   8.7500 Du        
   3035 ****         3.2500  18.5000   9.0000 Du        
   3036 ****         3.2500  18.5000   9.2500 Du        
   3037 ****         3.2500  18.7500   8.2500 Du        
   3038 ****         3.2500  18.7500   8.5000 Du        
   3039 ****         3.2500  18.7500   8.7500 Du        
   3040 ****         3.2500  18.7500   9.0000 Du        
   3041 ****         3.2500  19.0000   8.5000 Du        
   3042 ****         3.2500  19.0000   8.7500 Du        
   3043 ****         3.2500  19.0000   9.0000 Du        
   3044 ****         3.2500  23.5000   4.7500 Du        
   3045 ****         3.5000  17.5000   8.2500 Du        
   3046 ****         3.5000  17.7500   7.7500 Du        
   3047 ****         3.5000  17.7500   8.0000 Du        
   3048 ****         3.5000  17.7500   8.2500 Du        
   3049 ****         3.5000  17.7500   8.5000 Du        
   3050 ****         3.5000  17.7500   8.7500 Du        
   3051 ****         3.5000  17.7500   9.0000 Du        
   3052 ****         3.5000  18.0000   7.7500 Du        
   3053 ****         3.5000  18.0000   8.0000 Du        
   3054 ****         3.5000  18.0000   8.2500 Du        
   3055 ****         3.5000  18.0000   8.5000 Du        
   3056 ****         3.5000  18.0000   8.7500 Du        
   3057 ****         3.5000  18.0000   9.0000 Du        
   3058 ****         3.5000  18.0000   9.2500 Du        
   3059 ****         3.5000  18.2500   7.7500 Du        
   3060 ****         3.5000  18.2500   8.0000 Du        
   3061 ****         3.5000  18.2500   8.2500 Du        
   3062 ****         3.5000  18.2500   8.5000 Du        
   3063 ****         3.5000  18.2500   8.7500 Du        
   3064 ****         3.5000  18.2500   9.0000 Du        
   3065 ****         3.5000  18.2500   9.2500 Du        
   3066 ****         3.5000  18.5000   8.2500 Du        
   3067 ****         3.5000  18.5000   8.5000 Du        
   3068 ****         3.5000  18.5000   8.7500 Du        
   3069 ****         3.5000  18.5000   9.0000 Du        
   3070 ****         3.5000  18.7500   8.5000 Du        
   3071 ****         3.5000  18.7500   8.7500 Du        
   3072 ****         3.5000  18.7500   9.0000 Du        
   3073 ****         3.5000  23.5000   4.2500 Du        
   3074 ****         3.5000  23.5000   4.5000 Du        
   3075 ****         3.5000  23.5000   4.7500 Du        
   3076 ****         3.5000  23.7500   4.5000 Du        
   3077 ****         3.5000  23.7500   4.7500 Du        
   3078 ****         3.5000  23.7500   5.0000 Du        
   3079 ****         3.7500  17.5000   8.0000 Du        
   3080 ****         3.7500  17.7500   7.7500 Du        
   3081 ****         3.7500  17.7500   8.0000 Du        
   3082 ****         3.7500  17.7500   8.2500 Du        
   3083 ****         3.7500  17.7500   8.5000 Du        
   3084 ****         3.7500  17.7500   8.7500 Du        
   3085 ****         3.7500  18.0000   7.7500 Du        
   3086 ****         3.7500  18.0000   8.0000 Du        
   3087 ****         3.7500  18.0000   8.2500 Du        
   3088 ****         3.7500  18.0000   8.5000 Du        
   3089 ****         3.7500  18.0000   8.7500 Du        
   3090 ****         3.7500  18.0000   9.0000 Du        
   3091 ****         3.7500  18.2500   8.0000 Du        
   3092 ****         3.7500  18.2500   8.2500 Du        
   3093 ****         3.7500  18.2500   8.5000 Du        
   3094 ****         3.7500  18.2500   8.7500 Du        
   3095 ****         3.7500  18.2500   9.0000 Du        
   3096 ****         3.7500  18.5000   8.5000 Du        
   3097 ****         3.7500  18.5000   8.7500 Du        
   3098 ****         3.7500  18.5000   9.0000 Du        
   3099 ****         3.7500  23.2500   4.5000 Du        
   3100 ****         3.7500  23.5000   4.2500 Du        
   3101 ****         3.7500  23.5000   4.5000 Du        
   3102 ****         3.7500  23.5000   4.7500 Du        
   3103 ****         3.7500  23.7500   4.2500 Du        
   3104 ****         3.7500  23.7500   4.5000 Du        
   3105 ****         3.7500  23.7500   4.7500 Du        
   3106 ****         4.0000  17.7500   7.7500 Du        
   3107 ****         4.0000  17.7500   8.0000 Du        
   3108 ****         4.0000  17.7500   8.2500 Du        
   3109 ****         4.0000  17.7500   8.5000 Du        
   3110 ****         4.0000  18.0000   7.7500 Du        
   3111 ****         4.0000  18.0000   8.0000 Du        
   3112 ****         4.0000  18.0000   8.2500 Du        
   3113 ****         4.0000  18.0000   8.5000 Du        
   3114 ****         4.0000  18.0000   8.7500 Du        
   3115 ****         4.0000  18.2500   8.0000 Du        
   3116 ****         4.0000  18.2500   8.2500 Du        
   3117 ****         4.0000  18.2500   8.5000 Du        
   3118 ****         4.0000  18.2500   8.7500 Du        
   3119 ****         4.0000  18.2500   9.0000 Du        
   3120 ****         4.0000  18.5000   8.5000 Du        
   3121 ****         4.0000  18.5000   8.7500 Du        
   3122 ****         4.0000  23.5000   4.5000 Du        
   3123 ****         4.0000  23.7500   4.5000 Du        
   3124 ****         4.0000  23.7500   4.7500 Du        
   3125 ****         4.2500  18.0000   8.0000 Du        
   3126 ****         4.2500  18.0000   8.2500 Du        
   3127 ****         4.2500  18.0000   8.5000 Du        
   3128 ****         4.2500  18.0000   8.7500 Du        
   3129 ****         4.2500  18.2500   8.5000 Du        
   3130 ****         4.2500  18.2500   8.7500 Du        
   3131 ****         4.5000  17.7500   7.7500 Du        
   3132 ****         4.5000  18.0000   8.5000 Du        
   3133 ****         4.5000  19.7500  22.0000 Du        
   3134 ****         4.5000  19.7500  22.2500 Du        
   3135 ****         4.5000  19.7500  22.5000 Du        
   3136 ****         4.5000  19.7500  22.7500 Du        
   3137 ****         4.5000  19.7500  23.0000 Du        
   3138 ****         4.5000  20.0000  22.0000 Du        
   3139 ****         4.5000  20.0000  22.2500 Du        
   3140 ****         4.5000  20.0000  22.5000 Du        
   3141 ****         4.5000  20.0000  22.7500 Du        
   3142 ****         4.5000  20.0000  23.0000 Du        
   3143 ****         4.5000  33.0000  12.7500 Du        
   3144 ****         4.5000  33.2500  12.5000 Du        
   3145 ****         4.5000  33.2500  12.7500 Du        
   3146 ****         4.7500  19.5000  22.0000 Du        
   3147 ****         4.7500  19.5000  22.2500 Du        
   3148 ****         4.7500  19.5000  22.5000 Du        
   3149 ****         4.7500  19.5000  22.7500 Du        
   3150 ****         4.7500  19.5000  23.0000 Du        
   3151 ****         4.7500  19.7500  21.7500 Du        
   3152 ****         4.7500  19.7500  22.0000 Du        
   3153 ****         4.7500  19.7500  22.2500 Du        
   3154 ****         4.7500  19.7500  22.5000 Du        
   3155 ****         4.7500  19.7500  22.7500 Du        
   3156 ****         4.7500  19.7500  23.0000 Du        
   3157 ****         4.7500  19.7500  23.2500 Du        
   3158 ****         4.7500  20.0000  21.7500 Du        
   3159 ****         4.7500  20.0000  22.0000 Du        
   3160 ****         4.7500  20.0000  22.2500 Du        
   3161 ****         4.7500  20.0000  22.5000 Du        
   3162 ****         4.7500  20.0000  22.7500 Du        
   3163 ****         4.7500  20.0000  23.0000 Du        
   3164 ****         4.7500  20.0000  23.2500 Du        
   3165 ****         4.7500  20.2500  21.7500 Du        
   3166 ****         4.7500  20.2500  22.0000 Du        
   3167 ****         4.7500  20.2500  22.2500 Du        
   3168 ****         4.7500  20.2500  22.5000 Du        
   3169 ****         4.7500  20.2500  22.7500 Du        
   3170 ****         4.7500  20.2500  23.0000 Du        
   3171 ****         4.7500  20.2500  23.2500 Du        
   3172 ****         4.7500  20.5000  22.0000 Du        
   3173 ****         4.7500  20.5000  22.2500 Du        
   3174 ****         4.7500  20.5000  22.5000 Du        
   3175 ****         4.7500  20.5000  22.7500 Du        
   3176 ****         4.7500  20.5000  23.0000 Du        
   3177 ****         4.7500  32.5000  12.7500 Du        
   3178 ****         4.7500  32.7500  12.5000 Du        
   3179 ****         4.7500  32.7500  12.7500 Du        
   3180 ****         4.7500  33.0000  12.5000 Du        
   3181 ****         4.7500  33.0000  12.7500 Du        
   3182 ****         4.7500  33.2500  12.5000 Du        
   3183 ****         4.7500  33.2500  12.7500 Du        
   3184 ****         4.7500  33.5000  12.5000 Du        
   3185 ****         5.0000  19.2500  22.0000 Du        
   3186 ****         5.0000  19.2500  22.2500 Du        
   3187 ****         5.0000  19.2500  22.5000 Du        
   3188 ****         5.0000  19.2500  22.7500 Du        
   3189 ****         5.0000  19.2500  23.0000 Du        
   3190 ****         5.0000  19.5000  21.7500 Du        
   3191 ****         5.0000  19.5000  22.0000 Du        
   3192 ****         5.0000  19.5000  22.2500 Du        
   3193 ****         5.0000  19.5000  22.5000 Du        
   3194 ****         5.0000  19.5000  22.7500 Du        
   3195 ****         5.0000  19.5000  23.0000 Du        
   3196 ****         5.0000  19.5000  23.2500 Du        
   3197 ****         5.0000  19.7500  21.7500 Du        
   3198 ****         5.0000  19.7500  22.0000 Du        
   3199 ****         5.0000  19.7500  22.2500 Du        
   3200 ****         5.0000  19.7500  22.5000 Du        
   3201 ****         5.0000  19.7500  22.7500 Du        
   3202 ****         5.0000  19.7500  23.0000 Du        
   3203 ****         5.0000  19.7500  23.2500 Du        
   3204 ****         5.0000  20.0000  21.7500 Du        
   3205 ****         5.0000  20.0000  22.0000 Du        
   3206 ****         5.0000  20.0000  22.2500 Du        
   3207 ****         5.0000  20.0000  22.5000 Du        
   3208 ****         5.0000  20.0000  22.7500 Du        
   3209 ****         5.0000  20.0000  23.0000 Du        
   3210 ****         5.0000  20.0000  23.2500 Du        
   3211 ****         5.0000  20.2500  21.7500 Du        
   3212 ****         5.0000  20.2500  22.0000 Du        
   3213 ****         5.0000  20.2500  22.2500 Du        
   3214 ****         5.0000  20.2500  22.5000 Du        
   3215 ****         5.0000  20.2500  22.7500 Du        
   3216 ****         5.0000  20.2500  23.0000 Du        
   3217 ****         5.0000  20.2500  23.2500 Du        
   3218 ****         5.0000  20.5000  21.7500 Du        
   3219 ****         5.0000  20.5000  22.0000 Du        
   3220 ****         5.0000  20.5000  22.2500 Du        
   3221 ****         5.0000  20.5000  22.5000 Du        
   3222 ****         5.0000  20.5000  22.7500 Du        
   3223 ****         5.0000  20.5000  23.0000 Du        
   3224 ****         5.0000  20.5000  23.2500 Du        
   3225 ****         5.0000  20.7500  21.7500 Du        
   3226 ****         5.0000  20.7500  22.0000 Du        
   3227 ****         5.0000  20.7500  22.2500 Du        
   3228 ****         5.0000  20.7500  22.5000 Du        
   3229 ****         5.0000  20.7500  22.7500 Du        
   3230 ****         5.0000  20.7500  23.0000 Du        
   3231 ****         5.0000  21.0000  21.7500 Du        
   3232 ****         5.0000  21.0000  22.0000 Du        
   3233 ****         5.0000  21.0000  22.2500 Du        
   3234 ****         5.0000  21.0000  22.5000 Du        
   3235 ****         5.0000  32.5000  12.5000 Du        
   3236 ****         5.0000  32.5000  12.7500 Du        
   3237 ****         5.0000  32.5000  13.0000 Du        
   3238 ****         5.0000  32.7500  12.5000 Du        
   3239 ****         5.0000  32.7500  12.7500 Du        
   3240 ****         5.0000  32.7500  13.0000 Du        
   3241 ****         5.0000  33.0000  12.5000 Du        
   3242 ****         5.0000  33.0000  12.7500 Du        
   3243 ****         5.0000  33.2500  12.2500 Du        
   3244 ****         5.0000  33.2500  12.5000 Du        
   3245 ****         5.0000  33.2500  12.7500 Du        
   3246 ****         5.0000  33.5000  12.2500 Du        
   3247 ****         5.0000  33.5000  12.5000 Du        
   3248 ****         5.0000  33.7500  12.2500 Du        
   3249 ****         5.0000  34.0000  12.0000 Du        
   3250 ****         5.0000  34.0000  12.2500 Du        
   3251 ****         5.0000  34.2500  12.0000 Du        
   3252 ****         5.2500  19.0000  22.0000 Du        
   3253 ****         5.2500  19.0000  22.2500 Du        
   3254 ****         5.2500  19.2500  21.7500 Du        
   3255 ****         5.2500  19.2500  22.0000 Du        
   3256 ****         5.2500  19.2500  22.2500 Du        
   3257 ****         5.2500  19.2500  22.5000 Du        
   3258 ****         5.2500  19.2500  22.7500 Du        
   3259 ****         5.2500  19.2500  23.0000 Du        
   3260 ****         5.2500  19.2500  23.2500 Du        
   3261 ****         5.2500  19.5000  21.7500 Du        
   3262 ****         5.2500  19.5000  22.0000 Du        
   3263 ****         5.2500  19.5000  22.2500 Du        
   3264 ****         5.2500  19.5000  22.5000 Du        
   3265 ****         5.2500  19.5000  22.7500 Du        
   3266 ****         5.2500  19.5000  23.0000 Du        
   3267 ****         5.2500  19.5000  23.2500 Du        
   3268 ****         5.2500  19.7500  21.7500 Du        
   3269 ****         5.2500  19.7500  22.0000 Du        
   3270 ****         5.2500  19.7500  22.2500 Du        
   3271 ****         5.2500  19.7500  22.5000 Du        
   3272 ****         5.2500  19.7500  22.7500 Du        
   3273 ****         5.2500  19.7500  23.0000 Du        
   3274 ****         5.2500  19.7500  23.2500 Du        
   3275 ****         5.2500  20.0000  21.7500 Du        
   3276 ****         5.2500  20.0000  22.0000 Du        
   3277 ****         5.2500  20.0000  22.2500 Du        
   3278 ****         5.2500  20.0000  22.5000 Du        
   3279 ****         5.2500  20.0000  22.7500 Du        
   3280 ****         5.2500  20.0000  23.0000 Du        
   3281 ****         5.2500  20.0000  23.2500 Du        
   3282 ****         5.2500  20.2500  21.7500 Du        
   3283 ****         5.2500  20.2500  22.0000 Du        
   3284 ****         5.2500  20.2500  22.2500 Du        
   3285 ****         5.2500  20.2500  22.5000 Du        
   3286 ****         5.2500  20.2500  22.7500 Du        
   3287 ****         5.2500  20.2500  23.0000 Du        
   3288 ****         5.2500  20.2500  23.2500 Du        
   3289 ****         5.2500  20.5000  21.5000 Du        
   3290 ****         5.2500  20.5000  21.7500 Du        
   3291 ****         5.2500  20.5000  22.0000 Du        
   3292 ****         5.2500  20.5000  22.2500 Du        
   3293 ****         5.2500  20.5000  22.5000 Du        
   3294 ****         5.2500  20.5000  22.7500 Du        
   3295 ****         5.2500  20.5000  23.0000 Du        
   3296 ****         5.2500  20.5000  23.2500 Du        
   3297 ****         5.2500  20.7500  21.5000 Du        
   3298 ****         5.2500  20.7500  21.7500 Du        
   3299 ****         5.2500  20.7500  22.0000 Du        
   3300 ****         5.2500  20.7500  22.2500 Du        
   3301 ****         5.2500  20.7500  22.5000 Du        
   3302 ****         5.2500  20.7500  22.7500 Du        
   3303 ****         5.2500  20.7500  23.0000 Du        
   3304 ****         5.2500  20.7500  23.2500 Du        
   3305 ****         5.2500  21.0000  21.7500 Du        
   3306 ****         5.2500  21.0000  22.0000 Du        
   3307 ****         5.2500  21.0000  22.2500 Du        
   3308 ****         5.2500  21.0000  22.5000 Du        
   3309 ****         5.2500  21.0000  22.7500 Du        
   3310 ****         5.2500  21.2500  22.0000 Du        
   3311 ****         5.2500  21.2500  22.2500 Du        
   3312 ****         5.2500  32.2500  12.5000 Du        
   3313 ****         5.2500  32.2500  12.7500 Du        
   3314 ****         5.2500  32.2500  13.0000 Du        
   3315 ****         5.2500  32.5000  12.5000 Du        
   3316 ****         5.2500  32.5000  12.7500 Du        
   3317 ****         5.2500  32.5000  13.0000 Du        
   3318 ****         5.2500  32.7500  12.2500 Du        
   3319 ****         5.2500  32.7500  12.5000 Du        
   3320 ****         5.2500  32.7500  12.7500 Du        
   3321 ****         5.2500  32.7500  13.0000 Du        
   3322 ****         5.2500  33.0000  12.2500 Du        
   3323 ****         5.2500  33.0000  12.5000 Du        
   3324 ****         5.2500  33.0000  12.7500 Du        
   3325 ****         5.2500  33.0000  13.0000 Du        
   3326 ****         5.2500  33.2500  12.2500 Du        
   3327 ****         5.2500  33.2500  12.5000 Du        
   3328 ****         5.2500  33.2500  12.7500 Du        
   3329 ****         5.2500  33.5000  12.2500 Du        
   3330 ****         5.2500  33.5000  12.5000 Du        
   3331 ****         5.2500  33.7500  12.0000 Du        
   3332 ****         5.2500  33.7500  12.2500 Du        
   3333 ****         5.2500  33.7500  12.5000 Du        
   3334 ****         5.2500  34.0000  11.7500 Du        
   3335 ****         5.2500  34.0000  12.0000 Du        
   3336 ****         5.2500  34.0000  12.2500 Du        
   3337 ****         5.2500  34.2500  11.7500 Du        
   3338 ****         5.2500  34.2500  12.0000 Du        
   3339 ****         5.2500  34.2500  12.2500 Du        
   3340 ****         5.2500  34.5000  11.7500 Du        
   3341 ****         5.2500  34.5000  12.0000 Du        
   3342 ****         5.2500  34.7500  11.5000 Du        
   3343 ****         5.2500  34.7500  11.7500 Du        
   3344 ****         5.5000  19.0000  22.0000 Du        
   3345 ****         5.5000  19.0000  22.2500 Du        
   3346 ****         5.5000  19.0000  22.5000 Du        
   3347 ****         5.5000  19.0000  22.7500 Du        
   3348 ****         5.5000  19.0000  23.0000 Du        
   3349 ****         5.5000  19.0000  23.2500 Du        
   3350 ****         5.5000  19.2500  21.7500 Du        
   3351 ****         5.5000  19.2500  22.0000 Du        
   3352 ****         5.5000  19.2500  22.2500 Du        
   3353 ****         5.5000  19.2500  22.5000 Du        
   3354 ****         5.5000  19.2500  22.7500 Du        
   3355 ****         5.5000  19.2500  23.0000 Du        
   3356 ****         5.5000  19.2500  23.2500 Du        
   3357 ****         5.5000  19.5000  21.5000 Du        
   3358 ****         5.5000  19.5000  21.7500 Du        
   3359 ****         5.5000  19.5000  22.0000 Du        
   3360 ****         5.5000  19.5000  22.2500 Du        
   3361 ****         5.5000  19.5000  22.5000 Du        
   3362 ****         5.5000  19.5000  22.7500 Du        
   3363 ****         5.5000  19.5000  23.0000 Du        
   3364 ****         5.5000  19.5000  23.2500 Du        
   3365 ****         5.5000  19.7500  21.5000 Du        
   3366 ****         5.5000  19.7500  21.7500 Du        
   3367 ****         5.5000  19.7500  22.0000 Du        
   3368 ****         5.5000  19.7500  22.2500 Du        
   3369 ****         5.5000  19.7500  22.5000 Du        
   3370 ****         5.5000  19.7500  22.7500 Du        
   3371 ****         5.5000  19.7500  23.0000 Du        
   3372 ****         5.5000  19.7500  23.2500 Du        
   3373 ****         5.5000  19.7500  23.5000 Du        
   3374 ****         5.5000  20.0000  21.5000 Du        
   3375 ****         5.5000  20.0000  21.7500 Du        
   3376 ****         5.5000  20.0000  22.0000 Du        
   3377 ****         5.5000  20.0000  22.2500 Du        
   3378 ****         5.5000  20.0000  22.5000 Du        
   3379 ****         5.5000  20.0000  22.7500 Du        
   3380 ****         5.5000  20.0000  23.0000 Du        
   3381 ****         5.5000  20.0000  23.2500 Du        
   3382 ****         5.5000  20.0000  23.5000 Du        
   3383 ****         5.5000  20.2500  21.5000 Du        
   3384 ****         5.5000  20.2500  21.7500 Du        
   3385 ****         5.5000  20.2500  22.0000 Du        
   3386 ****         5.5000  20.2500  22.2500 Du        
   3387 ****         5.5000  20.2500  22.5000 Du        
   3388 ****         5.5000  20.2500  22.7500 Du        
   3389 ****         5.5000  20.2500  23.0000 Du        
   3390 ****         5.5000  20.2500  23.2500 Du        
   3391 ****         5.5000  20.5000  21.5000 Du        
   3392 ****         5.5000  20.5000  21.7500 Du        
   3393 ****         5.5000  20.5000  22.0000 Du        
   3394 ****         5.5000  20.5000  22.2500 Du        
   3395 ****         5.5000  20.5000  22.5000 Du        
   3396 ****         5.5000  20.5000  22.7500 Du        
   3397 ****         5.5000  20.5000  23.0000 Du        
   3398 ****         5.5000  20.5000  23.2500 Du        
   3399 ****         5.5000  20.7500  21.5000 Du        
   3400 ****         5.5000  20.7500  21.7500 Du        
   3401 ****         5.5000  20.7500  22.0000 Du        
   3402 ****         5.5000  20.7500  22.2500 Du        
   3403 ****         5.5000  20.7500  22.5000 Du        
   3404 ****         5.5000  20.7500  22.7500 Du        
   3405 ****         5.5000  20.7500  23.0000 Du        
   3406 ****         5.5000  20.7500  23.2500 Du        
   3407 ****         5.5000  21.0000  21.5000 Du        
   3408 ****         5.5000  21.0000  21.7500 Du        
   3409 ****         5.5000  21.0000  22.0000 Du        
   3410 ****         5.5000  21.0000  22.2500 Du        
   3411 ****         5.5000  21.0000  22.5000 Du        
   3412 ****         5.5000  21.0000  22.7500 Du        
   3413 ****         5.5000  21.0000  23.0000 Du        
   3414 ****         5.5000  21.2500  21.7500 Du        
   3415 ****         5.5000  21.2500  22.0000 Du        
   3416 ****         5.5000  21.2500  22.2500 Du        
   3417 ****         5.5000  21.2500  22.5000 Du        
   3418 ****         5.5000  32.0000  12.7500 Du        
   3419 ****         5.5000  32.0000  13.0000 Du        
   3420 ****         5.5000  32.2500  12.2500 Du        
   3421 ****         5.5000  32.2500  12.5000 Du        
   3422 ****         5.5000  32.2500  12.7500 Du        
   3423 ****         5.5000  32.2500  13.0000 Du        
   3424 ****         5.5000  32.2500  13.2500 Du        
   3425 ****         5.5000  32.5000  12.2500 Du        
   3426 ****         5.5000  32.5000  12.5000 Du        
   3427 ****         5.5000  32.5000  12.7500 Du        
   3428 ****         5.5000  32.5000  13.0000 Du        
   3429 ****         5.5000  32.5000  13.2500 Du        
   3430 ****         5.5000  32.7500  12.2500 Du        
   3431 ****         5.5000  32.7500  12.5000 Du        
   3432 ****         5.5000  32.7500  12.7500 Du        
   3433 ****         5.5000  32.7500  13.0000 Du        
   3434 ****         5.5000  33.0000  12.0000 Du        
   3435 ****         5.5000  33.0000  12.2500 Du        
   3436 ****         5.5000  33.0000  12.5000 Du        
   3437 ****         5.5000  33.0000  12.7500 Du        
   3438 ****         5.5000  33.0000  13.0000 Du        
   3439 ****         5.5000  33.2500  12.0000 Du        
   3440 ****         5.5000  33.2500  12.2500 Du        
   3441 ****         5.5000  33.2500  12.5000 Du        
   3442 ****         5.5000  33.2500  12.7500 Du        
   3443 ****         5.5000  33.5000  12.0000 Du        
   3444 ****         5.5000  33.5000  12.2500 Du        
   3445 ****         5.5000  33.5000  12.5000 Du        
   3446 ****         5.5000  33.5000  12.7500 Du        
   3447 ****         5.5000  33.7500  11.7500 Du        
   3448 ****         5.5000  33.7500  12.0000 Du        
   3449 ****         5.5000  33.7500  12.2500 Du        
   3450 ****         5.5000  33.7500  12.5000 Du        
   3451 ****         5.5000  34.0000  11.7500 Du        
   3452 ****         5.5000  34.0000  12.0000 Du        
   3453 ****         5.5000  34.0000  12.2500 Du        
   3454 ****         5.5000  34.0000  12.5000 Du        
   3455 ****         5.5000  34.2500  11.5000 Du        
   3456 ****         5.5000  34.2500  11.7500 Du        
   3457 ****         5.5000  34.2500  12.0000 Du        
   3458 ****         5.5000  34.2500  12.2500 Du        
   3459 ****         5.5000  34.5000  11.5000 Du        
   3460 ****         5.5000  34.5000  11.7500 Du        
   3461 ****         5.5000  34.5000  12.0000 Du        
   3462 ****         5.5000  34.7500  11.5000 Du        
   3463 ****         5.5000  34.7500  11.7500 Du        
   3464 ****         5.5000  34.7500  12.0000 Du        
   3465 ****         5.5000  35.0000  11.7500 Du        
   3466 ****         5.7500  18.7500  22.7500 Du        
   3467 ****         5.7500  18.7500  23.0000 Du        
   3468 ****         5.7500  19.0000  22.0000 Du        
   3469 ****         5.7500  19.0000  22.2500 Du        
   3470 ****         5.7500  19.0000  22.5000 Du        
   3471 ****         5.7500  19.0000  22.7500 Du        
   3472 ****         5.7500  19.0000  23.0000 Du        
   3473 ****         5.7500  19.0000  23.2500 Du        
   3474 ****         5.7500  19.2500  21.5000 Du        
   3475 ****         5.7500  19.2500  21.7500 Du        
   3476 ****         5.7500  19.2500  22.0000 Du        
   3477 ****         5.7500  19.2500  22.2500 Du        
   3478 ****         5.7500  19.2500  22.5000 Du        
   3479 ****         5.7500  19.2500  22.7500 Du        
   3480 ****         5.7500  19.2500  23.0000 Du        
   3481 ****         5.7500  19.2500  23.2500 Du        
   3482 ****         5.7500  19.2500  23.5000 Du        
   3483 ****         5.7500  19.5000  21.5000 Du        
   3484 ****         5.7500  19.5000  21.7500 Du        
   3485 ****         5.7500  19.5000  22.0000 Du        
   3486 ****         5.7500  19.5000  22.2500 Du        
   3487 ****         5.7500  19.5000  22.5000 Du        
   3488 ****         5.7500  19.5000  22.7500 Du        
   3489 ****         5.7500  19.5000  23.0000 Du        
   3490 ****         5.7500  19.5000  23.2500 Du        
   3491 ****         5.7500  19.5000  23.5000 Du        
   3492 ****         5.7500  19.7500  21.5000 Du        
   3493 ****         5.7500  19.7500  21.7500 Du        
   3494 ****         5.7500  19.7500  22.0000 Du        
   3495 ****         5.7500  19.7500  22.2500 Du        
   3496 ****         5.7500  19.7500  22.5000 Du        
   3497 ****         5.7500  19.7500  22.7500 Du        
   3498 ****         5.7500  19.7500  23.0000 Du        
   3499 ****         5.7500  19.7500  23.2500 Du        
   3500 ****         5.7500  19.7500  23.5000 Du        
   3501 ****         5.7500  20.0000  21.5000 Du        
   3502 ****         5.7500  20.0000  21.7500 Du        
   3503 ****         5.7500  20.0000  22.0000 Du        
   3504 ****         5.7500  20.0000  22.2500 Du        
   3505 ****         5.7500  20.0000  22.5000 Du        
   3506 ****         5.7500  20.0000  22.7500 Du        
   3507 ****         5.7500  20.0000  23.0000 Du        
   3508 ****         5.7500  20.0000  23.2500 Du        
   3509 ****         5.7500  20.0000  23.5000 Du        
   3510 ****         5.7500  20.2500  21.5000 Du        
   3511 ****         5.7500  20.2500  21.7500 Du        
   3512 ****         5.7500  20.2500  22.0000 Du        
   3513 ****         5.7500  20.2500  22.2500 Du        
   3514 ****         5.7500  20.2500  22.5000 Du        
   3515 ****         5.7500  20.2500  22.7500 Du        
   3516 ****         5.7500  20.2500  23.0000 Du        
   3517 ****         5.7500  20.2500  23.2500 Du        
   3518 ****         5.7500  20.2500  23.5000 Du        
   3519 ****         5.7500  20.5000  21.5000 Du        
   3520 ****         5.7500  20.5000  21.7500 Du        
   3521 ****         5.7500  20.5000  22.0000 Du        
   3522 ****         5.7500  20.5000  22.2500 Du        
   3523 ****         5.7500  20.5000  22.5000 Du        
   3524 ****         5.7500  20.5000  22.7500 Du        
   3525 ****         5.7500  20.5000  23.0000 Du        
   3526 ****         5.7500  20.5000  23.2500 Du        
   3527 ****         5.7500  20.5000  23.5000 Du        
   3528 ****         5.7500  20.7500  21.5000 Du        
   3529 ****         5.7500  20.7500  21.7500 Du        
   3530 ****         5.7500  20.7500  22.0000 Du        
   3531 ****         5.7500  20.7500  22.2500 Du        
   3532 ****         5.7500  20.7500  22.5000 Du        
   3533 ****         5.7500  20.7500  22.7500 Du        
   3534 ****         5.7500  20.7500  23.0000 Du        
   3535 ****         5.7500  20.7500  23.2500 Du        
   3536 ****         5.7500  21.0000  21.5000 Du        
   3537 ****         5.7500  21.0000  21.7500 Du        
   3538 ****         5.7500  21.0000  22.0000 Du        
   3539 ****         5.7500  21.0000  22.2500 Du        
   3540 ****         5.7500  21.0000  22.5000 Du        
   3541 ****         5.7500  21.0000  22.7500 Du        
   3542 ****         5.7500  21.0000  23.0000 Du        
   3543 ****         5.7500  21.0000  23.2500 Du        
   3544 ****         5.7500  21.2500  21.7500 Du        
   3545 ****         5.7500  21.2500  22.0000 Du        
   3546 ****         5.7500  21.2500  22.2500 Du        
   3547 ****         5.7500  21.2500  22.5000 Du        
   3548 ****         5.7500  21.2500  22.7500 Du        
   3549 ****         5.7500  32.0000  12.5000 Du        
   3550 ****         5.7500  32.0000  12.7500 Du        
   3551 ****         5.7500  32.0000  13.0000 Du        
   3552 ****         5.7500  32.0000  13.2500 Du        
   3553 ****         5.7500  32.2500  12.2500 Du        
   3554 ****         5.7500  32.2500  12.5000 Du        
   3555 ****         5.7500  32.2500  12.7500 Du        
   3556 ****         5.7500  32.2500  13.0000 Du        
   3557 ****         5.7500  32.2500  13.2500 Du        
   3558 ****         5.7500  32.5000  12.2500 Du        
   3559 ****         5.7500  32.5000  12.5000 Du        
   3560 ****         5.7500  32.5000  12.7500 Du        
   3561 ****         5.7500  32.5000  13.0000 Du        
   3562 ****         5.7500  32.5000  13.2500 Du        
   3563 ****         5.7500  32.7500  12.0000 Du        
   3564 ****         5.7500  32.7500  12.2500 Du        
   3565 ****         5.7500  32.7500  12.5000 Du        
   3566 ****         5.7500  32.7500  12.7500 Du        
   3567 ****         5.7500  32.7500  13.0000 Du        
   3568 ****         5.7500  33.0000  12.0000 Du        
   3569 ****         5.7500  33.0000  12.2500 Du        
   3570 ****         5.7500  33.0000  12.5000 Du        
   3571 ****         5.7500  33.0000  12.7500 Du        
   3572 ****         5.7500  33.0000  13.0000 Du        
   3573 ****         5.7500  33.2500  11.7500 Du        
   3574 ****         5.7500  33.2500  12.0000 Du        
   3575 ****         5.7500  33.2500  12.2500 Du        
   3576 ****         5.7500  33.2500  12.5000 Du        
   3577 ****         5.7500  33.2500  12.7500 Du        
   3578 ****         5.7500  33.5000  11.7500 Du        
   3579 ****         5.7500  33.5000  12.0000 Du        
   3580 ****         5.7500  33.5000  12.2500 Du        
   3581 ****         5.7500  33.5000  12.5000 Du        
   3582 ****         5.7500  33.5000  12.7500 Du        
   3583 ****         5.7500  33.7500  11.7500 Du        
   3584 ****         5.7500  33.7500  12.0000 Du        
   3585 ****         5.7500  33.7500  12.2500 Du        
   3586 ****         5.7500  33.7500  12.5000 Du        
   3587 ****         5.7500  33.7500  12.7500 Du        
   3588 ****         5.7500  34.0000  11.5000 Du        
   3589 ****         5.7500  34.0000  11.7500 Du        
   3590 ****         5.7500  34.0000  12.0000 Du        
   3591 ****         5.7500  34.0000  12.2500 Du        
   3592 ****         5.7500  34.0000  12.5000 Du        
   3593 ****         5.7500  34.2500  11.5000 Du        
   3594 ****         5.7500  34.2500  11.7500 Du        
   3595 ****         5.7500  34.2500  12.0000 Du        
   3596 ****         5.7500  34.2500  12.2500 Du        
   3597 ****         5.7500  34.2500  12.5000 Du        
   3598 ****         5.7500  34.5000  11.5000 Du        
   3599 ****         5.7500  34.5000  11.7500 Du        
   3600 ****         5.7500  34.5000  12.0000 Du        
   3601 ****         5.7500  34.5000  12.2500 Du        
   3602 ****         5.7500  34.7500  11.5000 Du        
   3603 ****         5.7500  34.7500  11.7500 Du        
   3604 ****         5.7500  34.7500  12.0000 Du        
   3605 ****         5.7500  34.7500  12.2500 Du        
   3606 ****         5.7500  35.0000  11.5000 Du        
   3607 ****         5.7500  35.0000  11.7500 Du        
   3608 ****         5.7500  35.0000  12.0000 Du        
   3609 ****         5.7500  35.2500  11.7500 Du        
   3610 ****         5.7500  38.7500  13.5000 Du        
   3611 ****         5.7500  38.7500  13.7500 Du        
   3612 ****         5.7500  39.0000  13.7500 Du        
   3613 ****         5.7500  39.0000  14.0000 Du        
   3614 ****         5.7500  39.0000  14.2500 Du        
   3615 ****         5.7500  39.2500  14.5000 Du        
   3616 ****         5.7500  39.2500  14.7500 Du        
   3617 ****         6.0000  14.2500  23.7500 Du        
   3618 ****         6.0000  14.2500  24.0000 Du        
   3619 ****         6.0000  14.2500  24.2500 Du        
   3620 ****         6.0000  14.2500  24.7500 Du        
   3621 ****         6.0000  14.5000  24.7500 Du        
   3622 ****         6.0000  14.5000  25.2500 Du        
   3623 ****         6.0000  14.7500  25.0000 Du        
   3624 ****         6.0000  15.0000  25.2500 Du        
   3625 ****         6.0000  18.7500  22.7500 Du        
   3626 ****         6.0000  18.7500  23.0000 Du        
   3627 ****         6.0000  18.7500  23.2500 Du        
   3628 ****         6.0000  18.7500  23.5000 Du        
   3629 ****         6.0000  19.0000  22.0000 Du        
   3630 ****         6.0000  19.0000  22.2500 Du        
   3631 ****         6.0000  19.0000  22.5000 Du        
   3632 ****         6.0000  19.0000  22.7500 Du        
   3633 ****         6.0000  19.0000  23.0000 Du        
   3634 ****         6.0000  19.0000  23.2500 Du        
   3635 ****         6.0000  19.0000  23.5000 Du        
   3636 ****         6.0000  19.0000  23.7500 Du        
   3637 ****         6.0000  19.2500  21.7500 Du        
   3638 ****         6.0000  19.2500  22.0000 Du        
   3639 ****         6.0000  19.2500  22.2500 Du        
   3640 ****         6.0000  19.2500  22.5000 Du        
   3641 ****         6.0000  19.2500  22.7500 Du        
   3642 ****         6.0000  19.2500  23.0000 Du        
   3643 ****         6.0000  19.2500  23.2500 Du        
   3644 ****         6.0000  19.2500  23.5000 Du        
   3645 ****         6.0000  19.2500  23.7500 Du        
   3646 ****         6.0000  19.5000  21.5000 Du        
   3647 ****         6.0000  19.5000  21.7500 Du        
   3648 ****         6.0000  19.5000  22.0000 Du        
   3649 ****         6.0000  19.5000  22.2500 Du        
   3650 ****         6.0000  19.5000  22.5000 Du        
   3651 ****         6.0000  19.5000  22.7500 Du        
   3652 ****         6.0000  19.5000  23.0000 Du        
   3653 ****         6.0000  19.5000  23.2500 Du        
   3654 ****         6.0000  19.5000  23.5000 Du        
   3655 ****         6.0000  19.7500  21.2500 Du        
   3656 ****         6.0000  19.7500  21.5000 Du        
   3657 ****         6.0000  19.7500  21.7500 Du        
   3658 ****         6.0000  19.7500  22.0000 Du        
   3659 ****         6.0000  19.7500  22.2500 Du        
   3660 ****         6.0000  19.7500  22.5000 Du        
   3661 ****         6.0000  19.7500  22.7500 Du        
   3662 ****         6.0000  19.7500  23.0000 Du        
   3663 ****         6.0000  19.7500  23.2500 Du        
   3664 ****         6.0000  19.7500  23.5000 Du        
   3665 ****         6.0000  20.0000  21.2500 Du        
   3666 ****         6.0000  20.0000  21.5000 Du        
   3667 ****         6.0000  20.0000  21.7500 Du        
   3668 ****         6.0000  20.0000  22.0000 Du        
   3669 ****         6.0000  20.0000  22.2500 Du        
   3670 ****         6.0000  20.0000  22.5000 Du        
   3671 ****         6.0000  20.0000  22.7500 Du        
   3672 ****         6.0000  20.0000  23.0000 Du        
   3673 ****         6.0000  20.0000  23.2500 Du        
   3674 ****         6.0000  20.0000  23.5000 Du        
   3675 ****         6.0000  20.2500  21.2500 Du        
   3676 ****         6.0000  20.2500  21.5000 Du        
   3677 ****         6.0000  20.2500  21.7500 Du        
   3678 ****         6.0000  20.2500  22.0000 Du        
   3679 ****         6.0000  20.2500  22.2500 Du        
   3680 ****         6.0000  20.2500  22.5000 Du        
   3681 ****         6.0000  20.2500  22.7500 Du        
   3682 ****         6.0000  20.2500  23.0000 Du        
   3683 ****         6.0000  20.2500  23.2500 Du        
   3684 ****         6.0000  20.2500  23.5000 Du        
   3685 ****         6.0000  20.5000  21.2500 Du        
   3686 ****         6.0000  20.5000  21.5000 Du        
   3687 ****         6.0000  20.5000  21.7500 Du        
   3688 ****         6.0000  20.5000  22.0000 Du        
   3689 ****         6.0000  20.5000  22.2500 Du        
   3690 ****         6.0000  20.5000  22.5000 Du        
   3691 ****         6.0000  20.5000  22.7500 Du        
   3692 ****         6.0000  20.5000  23.0000 Du        
   3693 ****         6.0000  20.5000  23.2500 Du        
   3694 ****         6.0000  20.5000  23.5000 Du        
   3695 ****         6.0000  20.7500  21.2500 Du        
   3696 ****         6.0000  20.7500  21.5000 Du        
   3697 ****         6.0000  20.7500  21.7500 Du        
   3698 ****         6.0000  20.7500  22.0000 Du        
   3699 ****         6.0000  20.7500  22.2500 Du        
   3700 ****         6.0000  20.7500  22.5000 Du        
   3701 ****         6.0000  20.7500  22.7500 Du        
   3702 ****         6.0000  20.7500  23.0000 Du        
   3703 ****         6.0000  20.7500  23.2500 Du        
   3704 ****         6.0000  20.7500  23.5000 Du        
   3705 ****         6.0000  21.0000  21.2500 Du        
   3706 ****         6.0000  21.0000  21.5000 Du        
   3707 ****         6.0000  21.0000  21.7500 Du        
   3708 ****         6.0000  21.0000  22.0000 Du        
   3709 ****         6.0000  21.0000  22.2500 Du        
   3710 ****         6.0000  21.0000  22.5000 Du        
   3711 ****         6.0000  21.0000  22.7500 Du        
   3712 ****         6.0000  21.0000  23.0000 Du        
   3713 ****         6.0000  21.0000  23.2500 Du        
   3714 ****         6.0000  21.2500  21.7500 Du        
   3715 ****         6.0000  21.2500  22.0000 Du        
   3716 ****         6.0000  21.2500  22.2500 Du        
   3717 ****         6.0000  21.2500  22.5000 Du        
   3718 ****         6.0000  21.2500  22.7500 Du        
   3719 ****         6.0000  21.2500  23.0000 Du        
   3720 ****         6.0000  21.5000  22.0000 Du        
   3721 ****         6.0000  21.5000  22.2500 Du        
   3722 ****         6.0000  21.5000  22.5000 Du        
   3723 ****         6.0000  32.0000  12.2500 Du        
   3724 ****         6.0000  32.0000  12.5000 Du        
   3725 ****         6.0000  32.0000  12.7500 Du        
   3726 ****         6.0000  32.0000  13.0000 Du        
   3727 ****         6.0000  32.0000  13.2500 Du        
   3728 ****         6.0000  32.0000  13.5000 Du        
   3729 ****         6.0000  32.2500  12.0000 Du        
   3730 ****         6.0000  32.2500  12.2500 Du        
   3731 ****         6.0000  32.2500  12.5000 Du        
   3732 ****         6.0000  32.2500  12.7500 Du        
   3733 ****         6.0000  32.2500  13.0000 Du        
   3734 ****         6.0000  32.2500  13.2500 Du        
   3735 ****         6.0000  32.2500  13.5000 Du        
   3736 ****         6.0000  32.5000  12.0000 Du        
   3737 ****         6.0000  32.5000  12.2500 Du        
   3738 ****         6.0000  32.5000  12.5000 Du        
   3739 ****         6.0000  32.5000  12.7500 Du        
   3740 ****         6.0000  32.5000  13.0000 Du        
   3741 ****         6.0000  32.5000  13.2500 Du        
   3742 ****         6.0000  32.7500  12.0000 Du        
   3743 ****         6.0000  32.7500  12.2500 Du        
   3744 ****         6.0000  32.7500  12.5000 Du        
   3745 ****         6.0000  32.7500  12.7500 Du        
   3746 ****         6.0000  32.7500  13.0000 Du        
   3747 ****         6.0000  32.7500  13.2500 Du        
   3748 ****         6.0000  33.0000  11.7500 Du        
   3749 ****         6.0000  33.0000  12.0000 Du        
   3750 ****         6.0000  33.0000  12.2500 Du        
   3751 ****         6.0000  33.0000  12.5000 Du        
   3752 ****         6.0000  33.0000  12.7500 Du        
   3753 ****         6.0000  33.0000  13.0000 Du        
   3754 ****         6.0000  33.2500  11.7500 Du        
   3755 ****         6.0000  33.2500  12.0000 Du        
   3756 ****         6.0000  33.2500  12.2500 Du        
   3757 ****         6.0000  33.2500  12.5000 Du        
   3758 ****         6.0000  33.2500  12.7500 Du        
   3759 ****         6.0000  33.2500  13.0000 Du        
   3760 ****         6.0000  33.5000  11.7500 Du        
   3761 ****         6.0000  33.5000  12.0000 Du        
   3762 ****         6.0000  33.5000  12.2500 Du        
   3763 ****         6.0000  33.5000  12.5000 Du        
   3764 ****         6.0000  33.5000  12.7500 Du        
   3765 ****         6.0000  33.7500  11.5000 Du        
   3766 ****         6.0000  33.7500  11.7500 Du        
   3767 ****         6.0000  33.7500  12.0000 Du        
   3768 ****         6.0000  33.7500  12.2500 Du        
   3769 ****         6.0000  33.7500  12.5000 Du        
   3770 ****         6.0000  33.7500  12.7500 Du        
   3771 ****         6.0000  34.0000  11.2500 Du        
   3772 ****         6.0000  34.0000  11.5000 Du        
   3773 ****         6.0000  34.0000  11.7500 Du        
   3774 ****         6.0000  34.0000  12.0000 Du        
   3775 ****         6.0000  34.0000  12.2500 Du        
   3776 ****         6.0000  34.0000  12.5000 Du        
   3777 ****         6.0000  34.0000  12.7500 Du        
   3778 ****         6.0000  34.2500  11.2500 Du        
   3779 ****         6.0000  34.2500  11.5000 Du        
   3780 ****         6.0000  34.2500  11.7500 Du        
   3781 ****         6.0000  34.2500  12.0000 Du        
   3782 ****         6.0000  34.2500  12.2500 Du        
   3783 ****         6.0000  34.2500  12.5000 Du        
   3784 ****         6.0000  34.5000  11.2500 Du        
   3785 ****         6.0000  34.5000  11.5000 Du        
   3786 ****         6.0000  34.5000  11.7500 Du        
   3787 ****         6.0000  34.5000  12.0000 Du        
   3788 ****         6.0000  34.5000  12.2500 Du        
   3789 ****         6.0000  34.5000  12.5000 Du        
   3790 ****         6.0000  34.7500  11.5000 Du        
   3791 ****         6.0000  34.7500  11.7500 Du        
   3792 ****         6.0000  34.7500  12.0000 Du        
   3793 ****         6.0000  34.7500  12.2500 Du        
   3794 ****         6.0000  35.0000  11.5000 Du        
   3795 ****         6.0000  35.0000  11.7500 Du        
   3796 ****         6.0000  35.0000  12.0000 Du        
   3797 ****         6.0000  35.0000  12.2500 Du        
   3798 ****         6.0000  35.2500  11.7500 Du        
   3799 ****         6.0000  35.2500  12.0000 Du        
   3800 ****         6.0000  38.0000  12.5000 Du        
   3801 ****         6.0000  38.2500  12.5000 Du        
   3802 ****         6.0000  38.2500  12.7500 Du        
   3803 ****         6.0000  38.2500  13.0000 Du        
   3804 ****         6.0000  38.5000  12.7500 Du        
   3805 ****         6.0000  38.5000  13.0000 Du        
   3806 ****         6.0000  38.5000  13.5000 Du        
   3807 ****         6.0000  38.5000  13.7500 Du        
   3808 ****         6.0000  38.5000  14.0000 Du        
   3809 ****         6.0000  38.7500  12.7500 Du        
   3810 ****         6.0000  38.7500  13.0000 Du        
   3811 ****         6.0000  38.7500  13.2500 Du        
   3812 ****         6.0000  38.7500  13.5000 Du        
   3813 ****         6.0000  38.7500  13.7500 Du        
   3814 ****         6.0000  38.7500  14.0000 Du        
   3815 ****         6.0000  38.7500  14.2500 Du        
   3816 ****         6.0000  38.7500  14.5000 Du        
   3817 ****         6.0000  39.0000  13.2500 Du        
   3818 ****         6.0000  39.0000  13.5000 Du        
   3819 ****         6.0000  39.0000  13.7500 Du        
   3820 ****         6.0000  39.0000  14.0000 Du        
   3821 ****         6.0000  39.0000  14.2500 Du        
   3822 ****         6.0000  39.0000  14.5000 Du        
   3823 ****         6.0000  39.0000  14.7500 Du        
   3824 ****         6.0000  39.0000  15.0000 Du        
   3825 ****         6.0000  39.0000  15.2500 Du        
   3826 ****         6.0000  39.2500  13.7500 Du        
   3827 ****         6.0000  39.2500  14.0000 Du        
   3828 ****         6.0000  39.2500  14.2500 Du        
   3829 ****         6.0000  39.2500  14.5000 Du        
   3830 ****         6.0000  39.2500  14.7500 Du        
   3831 ****         6.0000  39.2500  15.0000 Du        
   3832 ****         6.0000  39.2500  15.2500 Du        
   3833 ****         6.0000  39.2500  15.5000 Du        
   3834 ****         6.0000  39.5000  14.7500 Du        
   3835 ****         6.0000  39.5000  15.0000 Du        
   3836 ****         6.0000  39.5000  15.2500 Du        
   3837 ****         6.0000  39.5000  15.5000 Du        
   3838 ****         6.0000  39.7500  15.2500 Du        
   3839 ****         6.0000  39.7500  15.5000 Du        
   3840 ****         6.0000  39.7500  15.7500 Du        
   3841 ****         6.2500  14.2500  23.0000 Du        
   3842 ****         6.2500  14.2500  23.2500 Du        
   3843 ****         6.2500  14.2500  23.5000 Du        
   3844 ****         6.2500  14.2500  23.7500 Du        
   3845 ****         6.2500  14.2500  24.0000 Du        
   3846 ****         6.2500  14.2500  24.2500 Du        
   3847 ****         6.2500  14.5000  24.7500 Du        
   3848 ****         6.2500  14.7500  25.0000 Du        
   3849 ****         6.2500  15.0000  25.2500 Du        
   3850 ****         6.2500  18.5000  23.2500 Du        
   3851 ****         6.2500  18.5000  23.5000 Du        
   3852 ****         6.2500  18.7500  22.7500 Du        
   3853 ****         6.2500  18.7500  23.0000 Du        
   3854 ****         6.2500  18.7500  23.2500 Du        
   3855 ****         6.2500  18.7500  23.5000 Du        
   3856 ****         6.2500  18.7500  23.7500 Du        
   3857 ****         6.2500  19.0000  22.2500 Du        
   3858 ****         6.2500  19.0000  22.5000 Du        
   3859 ****         6.2500  19.0000  22.7500 Du        
   3860 ****         6.2500  19.0000  23.0000 Du        
   3861 ****         6.2500  19.0000  23.2500 Du        
   3862 ****         6.2500  19.0000  23.5000 Du        
   3863 ****         6.2500  19.0000  23.7500 Du        
   3864 ****         6.2500  19.2500  21.7500 Du        
   3865 ****         6.2500  19.2500  22.0000 Du        
   3866 ****         6.2500  19.2500  22.2500 Du        
   3867 ****         6.2500  19.2500  22.5000 Du        
   3868 ****         6.2500  19.2500  22.7500 Du        
   3869 ****         6.2500  19.2500  23.0000 Du        
   3870 ****         6.2500  19.2500  23.2500 Du        
   3871 ****         6.2500  19.2500  23.5000 Du        
   3872 ****         6.2500  19.2500  23.7500 Du        
   3873 ****         6.2500  19.5000  21.2500 Du        
   3874 ****         6.2500  19.5000  21.5000 Du        
   3875 ****         6.2500  19.5000  21.7500 Du        
   3876 ****         6.2500  19.5000  22.0000 Du        
   3877 ****         6.2500  19.5000  22.2500 Du        
   3878 ****         6.2500  19.5000  22.5000 Du        
   3879 ****         6.2500  19.5000  22.7500 Du        
   3880 ****         6.2500  19.5000  23.0000 Du        
   3881 ****         6.2500  19.5000  23.2500 Du        
   3882 ****         6.2500  19.5000  23.5000 Du        
   3883 ****         6.2500  19.5000  23.7500 Du        
   3884 ****         6.2500  19.7500  21.2500 Du        
   3885 ****         6.2500  19.7500  21.5000 Du        
   3886 ****         6.2500  19.7500  21.7500 Du        
   3887 ****         6.2500  19.7500  22.0000 Du        
   3888 ****         6.2500  19.7500  22.2500 Du        
   3889 ****         6.2500  19.7500  22.5000 Du        
   3890 ****         6.2500  19.7500  22.7500 Du        
   3891 ****         6.2500  19.7500  23.0000 Du        
   3892 ****         6.2500  19.7500  23.2500 Du        
   3893 ****         6.2500  19.7500  23.5000 Du        
   3894 ****         6.2500  19.7500  23.7500 Du        
   3895 ****         6.2500  20.0000  21.0000 Du        
   3896 ****         6.2500  20.0000  21.2500 Du        
   3897 ****         6.2500  20.0000  21.5000 Du        
   3898 ****         6.2500  20.0000  21.7500 Du        
   3899 ****         6.2500  20.0000  22.0000 Du        
   3900 ****         6.2500  20.0000  22.2500 Du        
   3901 ****         6.2500  20.0000  22.5000 Du        
   3902 ****         6.2500  20.0000  22.7500 Du        
   3903 ****         6.2500  20.0000  23.0000 Du        
   3904 ****         6.2500  20.0000  23.2500 Du        
   3905 ****         6.2500  20.0000  23.5000 Du        
   3906 ****         6.2500  20.0000  23.7500 Du        
   3907 ****         6.2500  20.2500  21.0000 Du        
   3908 ****         6.2500  20.2500  21.2500 Du        
   3909 ****         6.2500  20.2500  21.5000 Du        
   3910 ****         6.2500  20.2500  21.7500 Du        
   3911 ****         6.2500  20.2500  22.0000 Du        
   3912 ****         6.2500  20.2500  22.2500 Du        
   3913 ****         6.2500  20.2500  22.5000 Du        
   3914 ****         6.2500  20.2500  22.7500 Du        
   3915 ****         6.2500  20.2500  23.0000 Du        
   3916 ****         6.2500  20.2500  23.2500 Du        
   3917 ****         6.2500  20.2500  23.5000 Du        
   3918 ****         6.2500  20.2500  23.7500 Du        
   3919 ****         6.2500  20.5000  21.2500 Du        
   3920 ****         6.2500  20.5000  21.5000 Du        
   3921 ****         6.2500  20.5000  21.7500 Du        
   3922 ****         6.2500  20.5000  22.0000 Du        
   3923 ****         6.2500  20.5000  22.2500 Du        
   3924 ****         6.2500  20.5000  22.5000 Du        
   3925 ****         6.2500  20.5000  22.7500 Du        
   3926 ****         6.2500  20.5000  23.0000 Du        
   3927 ****         6.2500  20.5000  23.2500 Du        
   3928 ****         6.2500  20.5000  23.5000 Du        
   3929 ****         6.2500  20.5000  23.7500 Du        
   3930 ****         6.2500  20.7500  21.0000 Du        
   3931 ****         6.2500  20.7500  21.2500 Du        
   3932 ****         6.2500  20.7500  21.5000 Du        
   3933 ****         6.2500  20.7500  21.7500 Du        
   3934 ****         6.2500  20.7500  22.0000 Du        
   3935 ****         6.2500  20.7500  22.2500 Du        
   3936 ****         6.2500  20.7500  22.5000 Du        
   3937 ****         6.2500  20.7500  22.7500 Du        
   3938 ****         6.2500  20.7500  23.0000 Du        
   3939 ****         6.2500  20.7500  23.2500 Du        
   3940 ****         6.2500  20.7500  23.5000 Du        
   3941 ****         6.2500  20.7500  23.7500 Du        
   3942 ****         6.2500  21.0000  21.2500 Du        
   3943 ****         6.2500  21.0000  21.5000 Du        
   3944 ****         6.2500  21.0000  21.7500 Du        
   3945 ****         6.2500  21.0000  22.0000 Du        
   3946 ****         6.2500  21.0000  22.2500 Du        
   3947 ****         6.2500  21.0000  22.5000 Du        
   3948 ****         6.2500  21.0000  22.7500 Du        
   3949 ****         6.2500  21.0000  23.0000 Du        
   3950 ****         6.2500  21.0000  23.2500 Du        
   3951 ****         6.2500  21.0000  23.5000 Du        
   3952 ****         6.2500  21.2500  21.5000 Du        
   3953 ****         6.2500  21.2500  21.7500 Du        
   3954 ****         6.2500  21.2500  22.0000 Du        
   3955 ****         6.2500  21.2500  22.2500 Du        
   3956 ****         6.2500  21.2500  22.5000 Du        
   3957 ****         6.2500  21.2500  22.7500 Du        
   3958 ****         6.2500  21.2500  23.0000 Du        
   3959 ****         6.2500  21.2500  23.2500 Du        
   3960 ****         6.2500  21.5000  22.0000 Du        
   3961 ****         6.2500  21.5000  22.2500 Du        
   3962 ****         6.2500  21.5000  22.5000 Du        
   3963 ****         6.2500  21.5000  22.7500 Du        
   3964 ****         6.2500  31.7500  12.7500 Du        
   3965 ****         6.2500  31.7500  13.0000 Du        
   3966 ****         6.2500  31.7500  13.2500 Du        
   3967 ****         6.2500  31.7500  13.5000 Du        
   3968 ****         6.2500  32.0000  12.0000 Du        
   3969 ****         6.2500  32.0000  12.2500 Du        
   3970 ****         6.2500  32.0000  12.5000 Du        
   3971 ****         6.2500  32.0000  12.7500 Du        
   3972 ****         6.2500  32.0000  13.0000 Du        
   3973 ****         6.2500  32.0000  13.2500 Du        
   3974 ****         6.2500  32.0000  13.5000 Du        
   3975 ****         6.2500  32.0000  13.7500 Du        
   3976 ****         6.2500  32.2500  12.0000 Du        
   3977 ****         6.2500  32.2500  12.2500 Du        
   3978 ****         6.2500  32.2500  12.5000 Du        
   3979 ****         6.2500  32.2500  12.7500 Du        
   3980 ****         6.2500  32.2500  13.0000 Du        
   3981 ****         6.2500  32.2500  13.2500 Du        
   3982 ****         6.2500  32.2500  13.5000 Du        
   3983 ****         6.2500  32.5000  11.7500 Du        
   3984 ****         6.2500  32.5000  12.0000 Du        
   3985 ****         6.2500  32.5000  12.2500 Du        
   3986 ****         6.2500  32.5000  12.5000 Du        
   3987 ****         6.2500  32.5000  12.7500 Du        
   3988 ****         6.2500  32.5000  13.0000 Du        
   3989 ****         6.2500  32.5000  13.2500 Du        
   3990 ****         6.2500  32.5000  13.5000 Du        
   3991 ****         6.2500  32.7500  11.7500 Du        
   3992 ****         6.2500  32.7500  12.0000 Du        
   3993 ****         6.2500  32.7500  12.2500 Du        
   3994 ****         6.2500  32.7500  12.5000 Du        
   3995 ****         6.2500  32.7500  12.7500 Du        
   3996 ****         6.2500  32.7500  13.0000 Du        
   3997 ****         6.2500  32.7500  13.2500 Du        
   3998 ****         6.2500  33.0000  11.7500 Du        
   3999 ****         6.2500  33.0000  12.0000 Du        
   4000 ****         6.2500  33.0000  12.2500 Du        
   4001 ****         6.2500  33.0000  12.5000 Du        
   4002 ****         6.2500  33.0000  12.7500 Du        
   4003 ****         6.2500  33.0000  13.0000 Du        
   4004 ****         6.2500  33.0000  13.2500 Du        
   4005 ****         6.2500  33.2500  11.5000 Du        
   4006 ****         6.2500  33.2500  11.7500 Du        
   4007 ****         6.2500  33.2500  12.0000 Du        
   4008 ****         6.2500  33.2500  12.2500 Du        
   4009 ****         6.2500  33.2500  12.5000 Du        
   4010 ****         6.2500  33.2500  12.7500 Du        
   4011 ****         6.2500  33.2500  13.0000 Du        
   4012 ****         6.2500  33.5000  11.5000 Du        
   4013 ****         6.2500  33.5000  11.7500 Du        
   4014 ****         6.2500  33.5000  12.0000 Du        
   4015 ****         6.2500  33.5000  12.2500 Du        
   4016 ****         6.2500  33.5000  12.5000 Du        
   4017 ****         6.2500  33.5000  12.7500 Du        
   4018 ****         6.2500  33.5000  13.0000 Du        
   4019 ****         6.2500  33.7500  11.2500 Du        
   4020 ****         6.2500  33.7500  11.5000 Du        
   4021 ****         6.2500  33.7500  11.7500 Du        
   4022 ****         6.2500  33.7500  12.0000 Du        
   4023 ****         6.2500  33.7500  12.2500 Du        
   4024 ****         6.2500  33.7500  12.5000 Du        
   4025 ****         6.2500  33.7500  12.7500 Du        
   4026 ****         6.2500  34.0000  11.2500 Du        
   4027 ****         6.2500  34.0000  11.5000 Du        
   4028 ****         6.2500  34.0000  11.7500 Du        
   4029 ****         6.2500  34.0000  12.0000 Du        
   4030 ****         6.2500  34.0000  12.2500 Du        
   4031 ****         6.2500  34.0000  12.5000 Du        
   4032 ****         6.2500  34.0000  12.7500 Du        
   4033 ****         6.2500  34.2500  11.2500 Du        
   4034 ****         6.2500  34.2500  11.5000 Du        
   4035 ****         6.2500  34.2500  11.7500 Du        
   4036 ****         6.2500  34.2500  12.0000 Du        
   4037 ****         6.2500  34.2500  12.2500 Du        
   4038 ****         6.2500  34.2500  12.5000 Du        
   4039 ****         6.2500  34.2500  12.7500 Du        
   4040 ****         6.2500  34.5000  11.2500 Du        
   4041 ****         6.2500  34.5000  11.5000 Du        
   4042 ****         6.2500  34.5000  11.7500 Du        
   4043 ****         6.2500  34.5000  12.0000 Du        
   4044 ****         6.2500  34.5000  12.2500 Du        
   4045 ****         6.2500  34.5000  12.5000 Du        
   4046 ****         6.2500  34.7500  11.5000 Du        
   4047 ****         6.2500  34.7500  11.7500 Du        
   4048 ****         6.2500  34.7500  12.0000 Du        
   4049 ****         6.2500  34.7500  12.2500 Du        
   4050 ****         6.2500  34.7500  12.5000 Du        
   4051 ****         6.2500  35.0000  11.5000 Du        
   4052 ****         6.2500  35.0000  11.7500 Du        
   4053 ****         6.2500  35.0000  12.0000 Du        
   4054 ****         6.2500  35.0000  12.2500 Du        
   4055 ****         6.2500  35.0000  12.5000 Du        
   4056 ****         6.2500  35.2500  11.7500 Du        
   4057 ****         6.2500  35.2500  12.0000 Du        
   4058 ****         6.2500  35.2500  12.2500 Du        
   4059 ****         6.2500  35.5000  11.7500 Du        
   4060 ****         6.2500  35.5000  12.0000 Du        
   4061 ****         6.2500  35.5000  12.2500 Du        
   4062 ****         6.2500  35.7500  12.0000 Du        
   4063 ****         6.2500  37.2500  12.2500 Du        
   4064 ****         6.2500  37.2500  12.5000 Du        
   4065 ****         6.2500  37.5000  12.2500 Du        
   4066 ****         6.2500  37.5000  12.5000 Du        
   4067 ****         6.2500  37.5000  12.7500 Du        
   4068 ****         6.2500  37.7500  12.2500 Du        
   4069 ****         6.2500  37.7500  12.5000 Du        
   4070 ****         6.2500  37.7500  12.7500 Du        
   4071 ****         6.2500  37.7500  13.0000 Du        
   4072 ****         6.2500  38.0000  12.2500 Du        
   4073 ****         6.2500  38.0000  12.5000 Du        
   4074 ****         6.2500  38.0000  12.7500 Du        
   4075 ****         6.2500  38.0000  13.0000 Du        
   4076 ****         6.2500  38.0000  13.2500 Du        
   4077 ****         6.2500  38.0000  13.5000 Du        
   4078 ****         6.2500  38.2500  12.2500 Du        
   4079 ****         6.2500  38.2500  12.5000 Du        
   4080 ****         6.2500  38.2500  12.7500 Du        
   4081 ****         6.2500  38.2500  13.0000 Du        
   4082 ****         6.2500  38.2500  13.2500 Du        
   4083 ****         6.2500  38.2500  13.5000 Du        
   4084 ****         6.2500  38.2500  13.7500 Du        
   4085 ****         6.2500  38.2500  14.0000 Du        
   4086 ****         6.2500  38.5000  12.5000 Du        
   4087 ****         6.2500  38.5000  12.7500 Du        
   4088 ****         6.2500  38.5000  13.0000 Du        
   4089 ****         6.2500  38.5000  13.2500 Du        
   4090 ****         6.2500  38.5000  13.5000 Du        
   4091 ****         6.2500  38.5000  13.7500 Du        
   4092 ****         6.2500  38.5000  14.0000 Du        
   4093 ****         6.2500  38.5000  14.2500 Du        
   4094 ****         6.2500  38.7500  12.5000 Du        
   4095 ****         6.2500  38.7500  12.7500 Du        
   4096 ****         6.2500  38.7500  13.0000 Du        
   4097 ****         6.2500  38.7500  13.2500 Du        
   4098 ****         6.2500  38.7500  13.5000 Du        
   4099 ****         6.2500  38.7500  13.7500 Du        
   4100 ****         6.2500  38.7500  14.0000 Du        
   4101 ****         6.2500  38.7500  14.2500 Du        
   4102 ****         6.2500  38.7500  14.5000 Du        
   4103 ****         6.2500  38.7500  14.7500 Du        
   4104 ****         6.2500  38.7500  15.0000 Du        
   4105 ****         6.2500  39.0000  12.7500 Du        
   4106 ****         6.2500  39.0000  13.0000 Du        
   4107 ****         6.2500  39.0000  13.2500 Du        
   4108 ****         6.2500  39.0000  13.5000 Du        
   4109 ****         6.2500  39.0000  13.7500 Du        
   4110 ****         6.2500  39.0000  14.0000 Du        
   4111 ****         6.2500  39.0000  14.2500 Du        
   4112 ****         6.2500  39.0000  14.5000 Du        
   4113 ****         6.2500  39.0000  14.7500 Du        
   4114 ****         6.2500  39.0000  15.0000 Du        
   4115 ****         6.2500  39.0000  15.2500 Du        
   4116 ****         6.2500  39.2500  13.5000 Du        
   4117 ****         6.2500  39.2500  13.7500 Du        
   4118 ****         6.2500  39.2500  14.0000 Du        
   4119 ****         6.2500  39.2500  14.2500 Du        
   4120 ****         6.2500  39.2500  14.5000 Du        
   4121 ****         6.2500  39.2500  14.7500 Du        
   4122 ****         6.2500  39.2500  15.0000 Du        
   4123 ****         6.2500  39.2500  15.2500 Du        
   4124 ****         6.2500  39.2500  15.5000 Du        
   4125 ****         6.2500  39.5000  14.7500 Du        
   4126 ****         6.2500  39.5000  15.0000 Du        
   4127 ****         6.2500  39.5000  15.2500 Du        
   4128 ****         6.2500  39.7500  15.0000 Du        
   4129 ****         6.2500  39.7500  15.2500 Du        
   4130 ****         6.2500  39.7500  15.5000 Du        
   4131 ****         6.5000  14.2500  23.5000 Du        
   4132 ****         6.5000  14.2500  23.7500 Du        
   4133 ****         6.5000  14.2500  24.0000 Du        
   4134 ****         6.5000  18.5000  23.2500 Du        
   4135 ****         6.5000  18.5000  23.7500 Du        
   4136 ****         6.5000  18.7500  23.0000 Du        
   4137 ****         6.5000  18.7500  23.2500 Du        
   4138 ****         6.5000  18.7500  23.5000 Du        
   4139 ****         6.5000  18.7500  23.7500 Du        
   4140 ****         6.5000  19.0000  22.5000 Du        
   4141 ****         6.5000  19.0000  22.7500 Du        
   4142 ****         6.5000  19.0000  23.0000 Du        
   4143 ****         6.5000  19.0000  23.2500 Du        
   4144 ****         6.5000  19.0000  23.5000 Du        
   4145 ****         6.5000  19.0000  23.7500 Du        
   4146 ****         6.5000  19.2500  22.0000 Du        
   4147 ****         6.5000  19.2500  22.2500 Du        
   4148 ****         6.5000  19.2500  22.5000 Du        
   4149 ****         6.5000  19.2500  22.7500 Du        
   4150 ****         6.5000  19.2500  23.0000 Du        
   4151 ****         6.5000  19.2500  23.2500 Du        
   4152 ****         6.5000  19.2500  23.5000 Du        
   4153 ****         6.5000  19.2500  23.7500 Du        
   4154 ****         6.5000  19.2500  24.0000 Du        
   4155 ****         6.5000  19.5000  21.5000 Du        
   4156 ****         6.5000  19.5000  21.7500 Du        
   4157 ****         6.5000  19.5000  22.0000 Du        
   4158 ****         6.5000  19.5000  22.2500 Du        
   4159 ****         6.5000  19.5000  22.5000 Du        
   4160 ****         6.5000  19.5000  22.7500 Du        
   4161 ****         6.5000  19.5000  23.0000 Du        
   4162 ****         6.5000  19.5000  23.2500 Du        
   4163 ****         6.5000  19.5000  23.5000 Du        
   4164 ****         6.5000  19.5000  23.7500 Du        
   4165 ****         6.5000  19.7500  21.0000 Du        
   4166 ****         6.5000  19.7500  21.2500 Du        
   4167 ****         6.5000  19.7500  21.5000 Du        
   4168 ****         6.5000  19.7500  21.7500 Du        
   4169 ****         6.5000  19.7500  22.0000 Du        
   4170 ****         6.5000  19.7500  22.2500 Du        
   4171 ****         6.5000  19.7500  22.5000 Du        
   4172 ****         6.5000  19.7500  22.7500 Du        
   4173 ****         6.5000  19.7500  23.0000 Du        
   4174 ****         6.5000  19.7500  23.2500 Du        
   4175 ****         6.5000  19.7500  23.5000 Du        
   4176 ****         6.5000  19.7500  23.7500 Du        
   4177 ****         6.5000  20.0000  21.0000 Du        
   4178 ****         6.5000  20.0000  21.2500 Du        
   4179 ****         6.5000  20.0000  21.5000 Du        
   4180 ****         6.5000  20.0000  21.7500 Du        
   4181 ****         6.5000  20.0000  22.0000 Du        
   4182 ****         6.5000  20.0000  22.2500 Du        
   4183 ****         6.5000  20.0000  22.5000 Du        
   4184 ****         6.5000  20.0000  22.7500 Du        
   4185 ****         6.5000  20.0000  23.0000 Du        
   4186 ****         6.5000  20.0000  23.2500 Du        
   4187 ****         6.5000  20.0000  23.5000 Du        
   4188 ****         6.5000  20.0000  23.7500 Du        
   4189 ****         6.5000  20.2500  21.0000 Du        
   4190 ****         6.5000  20.2500  21.2500 Du        
   4191 ****         6.5000  20.2500  21.5000 Du        
   4192 ****         6.5000  20.2500  21.7500 Du        
   4193 ****         6.5000  20.2500  22.0000 Du        
   4194 ****         6.5000  20.2500  22.2500 Du        
   4195 ****         6.5000  20.2500  22.5000 Du        
   4196 ****         6.5000  20.2500  22.7500 Du        
   4197 ****         6.5000  20.2500  23.0000 Du        
   4198 ****         6.5000  20.2500  23.2500 Du        
   4199 ****         6.5000  20.2500  23.5000 Du        
   4200 ****         6.5000  20.2500  23.7500 Du        
   4201 ****         6.5000  20.5000  21.0000 Du        
   4202 ****         6.5000  20.5000  21.2500 Du        
   4203 ****         6.5000  20.5000  21.5000 Du        
   4204 ****         6.5000  20.5000  21.7500 Du        
   4205 ****         6.5000  20.5000  22.0000 Du        
   4206 ****         6.5000  20.5000  22.2500 Du        
   4207 ****         6.5000  20.5000  22.5000 Du        
   4208 ****         6.5000  20.5000  22.7500 Du        
   4209 ****         6.5000  20.5000  23.0000 Du        
   4210 ****         6.5000  20.5000  23.2500 Du        
   4211 ****         6.5000  20.5000  23.5000 Du        
   4212 ****         6.5000  20.5000  23.7500 Du        
   4213 ****         6.5000  20.7500  21.0000 Du        
   4214 ****         6.5000  20.7500  21.2500 Du        
   4215 ****         6.5000  20.7500  21.5000 Du        
   4216 ****         6.5000  20.7500  21.7500 Du        
   4217 ****         6.5000  20.7500  22.0000 Du        
   4218 ****         6.5000  20.7500  22.2500 Du        
   4219 ****         6.5000  20.7500  22.5000 Du        
   4220 ****         6.5000  20.7500  22.7500 Du        
   4221 ****         6.5000  20.7500  23.0000 Du        
   4222 ****         6.5000  20.7500  23.2500 Du        
   4223 ****         6.5000  20.7500  23.5000 Du        
   4224 ****         6.5000  20.7500  23.7500 Du        
   4225 ****         6.5000  21.0000  21.2500 Du        
   4226 ****         6.5000  21.0000  21.5000 Du        
   4227 ****         6.5000  21.0000  21.7500 Du        
   4228 ****         6.5000  21.0000  22.0000 Du        
   4229 ****         6.5000  21.0000  22.2500 Du        
   4230 ****         6.5000  21.0000  22.5000 Du        
   4231 ****         6.5000  21.0000  22.7500 Du        
   4232 ****         6.5000  21.0000  23.0000 Du        
   4233 ****         6.5000  21.0000  23.2500 Du        
   4234 ****         6.5000  21.0000  23.5000 Du        
   4235 ****         6.5000  21.2500  21.5000 Du        
   4236 ****         6.5000  21.2500  21.7500 Du        
   4237 ****         6.5000  21.2500  22.0000 Du        
   4238 ****         6.5000  21.2500  22.2500 Du        
   4239 ****         6.5000  21.2500  22.5000 Du        
   4240 ****         6.5000  21.2500  22.7500 Du        
   4241 ****         6.5000  21.2500  23.0000 Du        
   4242 ****         6.5000  21.2500  23.2500 Du        
   4243 ****         6.5000  21.5000  22.0000 Du        
   4244 ****         6.5000  21.5000  22.2500 Du        
   4245 ****         6.5000  21.5000  22.5000 Du        
   4246 ****         6.5000  21.5000  22.7500 Du        
   4247 ****         6.5000  21.5000  23.0000 Du        
   4248 ****         6.5000  31.7500  12.5000 Du        
   4249 ****         6.5000  31.7500  12.7500 Du        
   4250 ****         6.5000  31.7500  13.0000 Du        
   4251 ****         6.5000  31.7500  13.2500 Du        
   4252 ****         6.5000  31.7500  13.5000 Du        
   4253 ****         6.5000  31.7500  13.7500 Du        
   4254 ****         6.5000  32.0000  12.0000 Du        
   4255 ****         6.5000  32.0000  12.2500 Du        
   4256 ****         6.5000  32.0000  12.5000 Du        
   4257 ****         6.5000  32.0000  12.7500 Du        
   4258 ****         6.5000  32.0000  13.0000 Du        
   4259 ****         6.5000  32.0000  13.2500 Du        
   4260 ****         6.5000  32.0000  13.5000 Du        
   4261 ****         6.5000  32.0000  13.7500 Du        
   4262 ****         6.5000  32.2500  11.7500 Du        
   4263 ****         6.5000  32.2500  12.0000 Du        
   4264 ****         6.5000  32.2500  12.2500 Du        
   4265 ****         6.5000  32.2500  12.5000 Du        
   4266 ****         6.5000  32.2500  12.7500 Du        
   4267 ****         6.5000  32.2500  13.0000 Du        
   4268 ****         6.5000  32.2500  13.2500 Du        
   4269 ****         6.5000  32.2500  13.5000 Du        
   4270 ****         6.5000  32.2500  13.7500 Du        
   4271 ****         6.5000  32.5000  11.7500 Du        
   4272 ****         6.5000  32.5000  12.0000 Du        
   4273 ****         6.5000  32.5000  12.2500 Du        
   4274 ****         6.5000  32.5000  12.5000 Du        
   4275 ****         6.5000  32.5000  12.7500 Du        
   4276 ****         6.5000  32.5000  13.0000 Du        
   4277 ****         6.5000  32.5000  13.2500 Du        
   4278 ****         6.5000  32.5000  13.5000 Du        
   4279 ****         6.5000  32.7500  11.5000 Du        
   4280 ****         6.5000  32.7500  11.7500 Du        
   4281 ****         6.5000  32.7500  12.0000 Du        
   4282 ****         6.5000  32.7500  12.2500 Du        
   4283 ****         6.5000  32.7500  12.5000 Du        
   4284 ****         6.5000  32.7500  12.7500 Du        
   4285 ****         6.5000  32.7500  13.0000 Du        
   4286 ****         6.5000  32.7500  13.2500 Du        
   4287 ****         6.5000  32.7500  13.5000 Du        
   4288 ****         6.5000  33.0000  11.5000 Du        
   4289 ****         6.5000  33.0000  11.7500 Du        
   4290 ****         6.5000  33.0000  12.0000 Du        
   4291 ****         6.5000  33.0000  12.2500 Du        
   4292 ****         6.5000  33.0000  12.5000 Du        
   4293 ****         6.5000  33.0000  12.7500 Du        
   4294 ****         6.5000  33.0000  13.0000 Du        
   4295 ****         6.5000  33.0000  13.2500 Du        
   4296 ****         6.5000  33.2500  11.5000 Du        
   4297 ****         6.5000  33.2500  11.7500 Du        
   4298 ****         6.5000  33.2500  12.0000 Du        
   4299 ****         6.5000  33.2500  12.2500 Du        
   4300 ****         6.5000  33.2500  12.5000 Du        
   4301 ****         6.5000  33.2500  12.7500 Du        
   4302 ****         6.5000  33.2500  13.0000 Du        
   4303 ****         6.5000  33.2500  13.2500 Du        
   4304 ****         6.5000  33.5000  11.2500 Du        
   4305 ****         6.5000  33.5000  11.5000 Du        
   4306 ****         6.5000  33.5000  11.7500 Du        
   4307 ****         6.5000  33.5000  12.0000 Du        
   4308 ****         6.5000  33.5000  12.2500 Du        
   4309 ****         6.5000  33.5000  12.5000 Du        
   4310 ****         6.5000  33.5000  12.7500 Du        
   4311 ****         6.5000  33.5000  13.0000 Du        
   4312 ****         6.5000  33.7500  11.2500 Du        
   4313 ****         6.5000  33.7500  11.5000 Du        
   4314 ****         6.5000  33.7500  11.7500 Du        
   4315 ****         6.5000  33.7500  12.0000 Du        
   4316 ****         6.5000  33.7500  12.2500 Du        
   4317 ****         6.5000  33.7500  12.5000 Du        
   4318 ****         6.5000  33.7500  12.7500 Du        
   4319 ****         6.5000  33.7500  13.0000 Du        
   4320 ****         6.5000  34.0000  11.2500 Du        
   4321 ****         6.5000  34.0000  11.5000 Du        
   4322 ****         6.5000  34.0000  11.7500 Du        
   4323 ****         6.5000  34.0000  12.0000 Du        
   4324 ****         6.5000  34.0000  12.2500 Du        
   4325 ****         6.5000  34.0000  12.5000 Du        
   4326 ****         6.5000  34.0000  12.7500 Du        
   4327 ****         6.5000  34.0000  13.0000 Du        
   4328 ****         6.5000  34.2500  11.2500 Du        
   4329 ****         6.5000  34.2500  11.5000 Du        
   4330 ****         6.5000  34.2500  11.7500 Du        
   4331 ****         6.5000  34.2500  12.0000 Du        
   4332 ****         6.5000  34.2500  12.2500 Du        
   4333 ****         6.5000  34.2500  12.5000 Du        
   4334 ****         6.5000  34.2500  12.7500 Du        
   4335 ****         6.5000  34.2500  13.0000 Du        
   4336 ****         6.5000  34.5000  11.2500 Du        
   4337 ****         6.5000  34.5000  11.5000 Du        
   4338 ****         6.5000  34.5000  11.7500 Du        
   4339 ****         6.5000  34.5000  12.0000 Du        
   4340 ****         6.5000  34.5000  12.2500 Du        
   4341 ****         6.5000  34.5000  12.5000 Du        
   4342 ****         6.5000  34.5000  12.7500 Du        
   4343 ****         6.5000  34.7500  11.5000 Du        
   4344 ****         6.5000  34.7500  11.7500 Du        
   4345 ****         6.5000  34.7500  12.0000 Du        
   4346 ****         6.5000  34.7500  12.2500 Du        
   4347 ****         6.5000  34.7500  12.5000 Du        
   4348 ****         6.5000  34.7500  12.7500 Du        
   4349 ****         6.5000  35.0000  11.5000 Du        
   4350 ****         6.5000  35.0000  11.7500 Du        
   4351 ****         6.5000  35.0000  12.0000 Du        
   4352 ****         6.5000  35.0000  12.2500 Du        
   4353 ****         6.5000  35.0000  12.5000 Du        
   4354 ****         6.5000  35.0000  12.7500 Du        
   4355 ****         6.5000  35.2500  11.5000 Du        
   4356 ****         6.5000  35.2500  11.7500 Du        
   4357 ****         6.5000  35.2500  12.0000 Du        
   4358 ****         6.5000  35.2500  12.2500 Du        
   4359 ****         6.5000  35.2500  12.5000 Du        
   4360 ****         6.5000  35.2500  12.7500 Du        
   4361 ****         6.5000  35.5000  11.7500 Du        
   4362 ****         6.5000  35.5000  12.0000 Du        
   4363 ****         6.5000  35.5000  12.2500 Du        
   4364 ****         6.5000  35.5000  12.5000 Du        
   4365 ****         6.5000  35.7500  12.0000 Du        
   4366 ****         6.5000  35.7500  12.2500 Du        
   4367 ****         6.5000  35.7500  12.5000 Du        
   4368 ****         6.5000  36.0000  12.0000 Du        
   4369 ****         6.5000  36.0000  12.2500 Du        
   4370 ****         6.5000  36.0000  12.5000 Du        
   4371 ****         6.5000  36.2500  12.0000 Du        
   4372 ****         6.5000  36.2500  12.2500 Du        
   4373 ****         6.5000  36.2500  12.5000 Du        
   4374 ****         6.5000  36.5000  12.2500 Du        
   4375 ****         6.5000  36.5000  12.5000 Du        
   4376 ****         6.5000  36.7500  12.2500 Du        
   4377 ****         6.5000  36.7500  12.5000 Du        
   4378 ****         6.5000  36.7500  12.7500 Du        
   4379 ****         6.5000  37.0000  12.2500 Du        
   4380 ****         6.5000  37.0000  12.5000 Du        
   4381 ****         6.5000  37.0000  12.7500 Du        
   4382 ****         6.5000  37.0000  13.0000 Du        
   4383 ****         6.5000  37.2500  12.2500 Du        
   4384 ****         6.5000  37.2500  12.5000 Du        
   4385 ****         6.5000  37.2500  12.7500 Du        
   4386 ****         6.5000  37.2500  13.0000 Du        
   4387 ****         6.5000  37.5000  12.2500 Du        
   4388 ****         6.5000  37.5000  12.5000 Du        
   4389 ****         6.5000  37.5000  12.7500 Du        
   4390 ****         6.5000  37.5000  13.0000 Du        
   4391 ****         6.5000  37.5000  13.2500 Du        
   4392 ****         6.5000  37.7500  12.2500 Du        
   4393 ****         6.5000  37.7500  12.5000 Du        
   4394 ****         6.5000  37.7500  12.7500 Du        
   4395 ****         6.5000  37.7500  13.0000 Du        
   4396 ****         6.5000  37.7500  13.2500 Du        
   4397 ****         6.5000  37.7500  13.5000 Du        
   4398 ****         6.5000  37.7500  13.7500 Du        
   4399 ****         6.5000  38.0000  12.2500 Du        
   4400 ****         6.5000  38.0000  12.5000 Du        
   4401 ****         6.5000  38.0000  12.7500 Du        
   4402 ****         6.5000  38.0000  13.0000 Du        
   4403 ****         6.5000  38.0000  13.2500 Du        
   4404 ****         6.5000  38.0000  13.5000 Du        
   4405 ****         6.5000  38.0000  13.7500 Du        
   4406 ****         6.5000  38.0000  14.0000 Du        
   4407 ****         6.5000  38.2500  12.2500 Du        
   4408 ****         6.5000  38.2500  12.5000 Du        
   4409 ****         6.5000  38.2500  12.7500 Du        
   4410 ****         6.5000  38.2500  13.0000 Du        
   4411 ****         6.5000  38.2500  13.2500 Du        
   4412 ****         6.5000  38.2500  13.5000 Du        
   4413 ****         6.5000  38.2500  13.7500 Du        
   4414 ****         6.5000  38.2500  14.0000 Du        
   4415 ****         6.5000  38.2500  14.2500 Du        
   4416 ****         6.5000  38.5000  12.2500 Du        
   4417 ****         6.5000  38.5000  12.5000 Du        
   4418 ****         6.5000  38.5000  12.7500 Du        
   4419 ****         6.5000  38.5000  13.0000 Du        
   4420 ****         6.5000  38.5000  13.2500 Du        
   4421 ****         6.5000  38.5000  13.5000 Du        
   4422 ****         6.5000  38.5000  13.7500 Du        
   4423 ****         6.5000  38.5000  14.0000 Du        
   4424 ****         6.5000  38.5000  14.2500 Du        
   4425 ****         6.5000  38.5000  14.5000 Du        
   4426 ****         6.5000  38.5000  14.7500 Du        
   4427 ****         6.5000  38.7500  12.2500 Du        
   4428 ****         6.5000  38.7500  12.5000 Du        
   4429 ****         6.5000  38.7500  12.7500 Du        
   4430 ****         6.5000  38.7500  13.0000 Du        
   4431 ****         6.5000  38.7500  13.2500 Du        
   4432 ****         6.5000  38.7500  13.5000 Du        
   4433 ****         6.5000  38.7500  13.7500 Du        
   4434 ****         6.5000  38.7500  14.0000 Du        
   4435 ****         6.5000  38.7500  14.2500 Du        
   4436 ****         6.5000  38.7500  14.5000 Du        
   4437 ****         6.5000  38.7500  14.7500 Du        
   4438 ****         6.5000  38.7500  15.0000 Du        
   4439 ****         6.5000  39.0000  12.5000 Du        
   4440 ****         6.5000  39.0000  12.7500 Du        
   4441 ****         6.5000  39.0000  13.0000 Du        
   4442 ****         6.5000  39.0000  13.2500 Du        
   4443 ****         6.5000  39.0000  13.5000 Du        
   4444 ****         6.5000  39.0000  13.7500 Du        
   4445 ****         6.5000  39.0000  14.0000 Du        
   4446 ****         6.5000  39.0000  14.2500 Du        
   4447 ****         6.5000  39.0000  14.5000 Du        
   4448 ****         6.5000  39.0000  14.7500 Du        
   4449 ****         6.5000  39.0000  15.0000 Du        
   4450 ****         6.5000  39.2500  13.5000 Du        
   4451 ****         6.5000  39.2500  13.7500 Du        
   4452 ****         6.5000  39.2500  14.0000 Du        
   4453 ****         6.5000  39.2500  14.2500 Du        
   4454 ****         6.5000  39.2500  14.5000 Du        
   4455 ****         6.5000  39.2500  14.7500 Du        
   4456 ****         6.5000  39.2500  15.0000 Du        
   4457 ****         6.5000  39.2500  15.2500 Du        
   4458 ****         6.5000  39.5000  14.7500 Du        
   4459 ****         6.5000  39.5000  15.0000 Du        
   4460 ****         6.5000  39.5000  15.2500 Du        
   4461 ****         6.5000  39.7500  15.0000 Du        
   4462 ****         6.5000  39.7500  15.2500 Du        
   4463 ****         6.5000  39.7500  15.5000 Du        
   4464 ****         6.7500  14.2500  23.7500 Du        
   4465 ****         6.7500  18.0000  23.7500 Du        
   4466 ****         6.7500  18.0000  24.0000 Du        
   4467 ****         6.7500  18.2500  23.7500 Du        
   4468 ****         6.7500  18.2500  24.0000 Du        
   4469 ****         6.7500  18.5000  23.2500 Du        
   4470 ****         6.7500  18.5000  23.5000 Du        
   4471 ****         6.7500  18.5000  23.7500 Du        
   4472 ****         6.7500  18.5000  24.0000 Du        
   4473 ****         6.7500  18.7500  23.0000 Du        
   4474 ****         6.7500  18.7500  23.2500 Du        
   4475 ****         6.7500  18.7500  23.5000 Du        
   4476 ****         6.7500  18.7500  23.7500 Du        
   4477 ****         6.7500  18.7500  24.0000 Du        
   4478 ****         6.7500  19.0000  22.7500 Du        
   4479 ****         6.7500  19.0000  23.0000 Du        
   4480 ****         6.7500  19.0000  23.2500 Du        
   4481 ****         6.7500  19.0000  23.5000 Du        
   4482 ****         6.7500  19.0000  23.7500 Du        
   4483 ****         6.7500  19.0000  24.0000 Du        
   4484 ****         6.7500  19.2500  22.2500 Du        
   4485 ****         6.7500  19.2500  22.5000 Du        
   4486 ****         6.7500  19.2500  22.7500 Du        
   4487 ****         6.7500  19.2500  23.0000 Du        
   4488 ****         6.7500  19.2500  23.2500 Du        
   4489 ****         6.7500  19.2500  23.5000 Du        
   4490 ****         6.7500  19.2500  23.7500 Du        
   4491 ****         6.7500  19.2500  24.0000 Du        
   4492 ****         6.7500  19.5000  21.7500 Du        
   4493 ****         6.7500  19.5000  22.0000 Du        
   4494 ****         6.7500  19.5000  22.2500 Du        
   4495 ****         6.7500  19.5000  22.5000 Du        
   4496 ****         6.7500  19.5000  22.7500 Du        
   4497 ****         6.7500  19.5000  23.0000 Du        
   4498 ****         6.7500  19.5000  23.2500 Du        
   4499 ****         6.7500  19.5000  23.5000 Du        
   4500 ****         6.7500  19.5000  23.7500 Du        
   4501 ****         6.7500  19.5000  24.0000 Du        
   4502 ****         6.7500  19.7500  21.0000 Du        
   4503 ****         6.7500  19.7500  21.2500 Du        
   4504 ****         6.7500  19.7500  21.5000 Du        
   4505 ****         6.7500  19.7500  21.7500 Du        
   4506 ****         6.7500  19.7500  22.0000 Du        
   4507 ****         6.7500  19.7500  22.2500 Du        
   4508 ****         6.7500  19.7500  22.5000 Du        
   4509 ****         6.7500  19.7500  22.7500 Du        
   4510 ****         6.7500  19.7500  23.0000 Du        
   4511 ****         6.7500  19.7500  23.2500 Du        
   4512 ****         6.7500  19.7500  23.5000 Du        
   4513 ****         6.7500  19.7500  23.7500 Du        
   4514 ****         6.7500  19.7500  24.0000 Du        
   4515 ****         6.7500  20.0000  21.0000 Du        
   4516 ****         6.7500  20.0000  21.2500 Du        
   4517 ****         6.7500  20.0000  21.5000 Du        
   4518 ****         6.7500  20.0000  21.7500 Du        
   4519 ****         6.7500  20.0000  22.0000 Du        
   4520 ****         6.7500  20.0000  22.2500 Du        
   4521 ****         6.7500  20.0000  22.5000 Du        
   4522 ****         6.7500  20.0000  22.7500 Du        
   4523 ****         6.7500  20.0000  23.0000 Du        
   4524 ****         6.7500  20.0000  23.2500 Du        
   4525 ****         6.7500  20.0000  23.5000 Du        
   4526 ****         6.7500  20.0000  23.7500 Du        
   4527 ****         6.7500  20.0000  24.0000 Du        
   4528 ****         6.7500  20.2500  20.7500 Du        
   4529 ****         6.7500  20.2500  21.0000 Du        
   4530 ****         6.7500  20.2500  21.2500 Du        
   4531 ****         6.7500  20.2500  21.5000 Du        
   4532 ****         6.7500  20.2500  21.7500 Du        
   4533 ****         6.7500  20.2500  22.0000 Du        
   4534 ****         6.7500  20.2500  22.2500 Du        
   4535 ****         6.7500  20.2500  22.5000 Du        
   4536 ****         6.7500  20.2500  22.7500 Du        
   4537 ****         6.7500  20.2500  23.0000 Du        
   4538 ****         6.7500  20.2500  23.2500 Du        
   4539 ****         6.7500  20.2500  23.5000 Du        
   4540 ****         6.7500  20.2500  23.7500 Du        
   4541 ****         6.7500  20.2500  24.0000 Du        
   4542 ****         6.7500  20.5000  20.7500 Du        
   4543 ****         6.7500  20.5000  21.0000 Du        
   4544 ****         6.7500  20.5000  21.2500 Du        
   4545 ****         6.7500  20.5000  21.5000 Du        
   4546 ****         6.7500  20.5000  21.7500 Du        
   4547 ****         6.7500  20.5000  22.0000 Du        
   4548 ****         6.7500  20.5000  22.2500 Du        
   4549 ****         6.7500  20.5000  22.5000 Du        
   4550 ****         6.7500  20.5000  22.7500 Du        
   4551 ****         6.7500  20.5000  23.0000 Du        
   4552 ****         6.7500  20.5000  23.2500 Du        
   4553 ****         6.7500  20.5000  23.5000 Du        
   4554 ****         6.7500  20.5000  23.7500 Du        
   4555 ****         6.7500  20.5000  24.0000 Du        
   4556 ****         6.7500  20.7500  20.7500 Du        
   4557 ****         6.7500  20.7500  21.0000 Du        
   4558 ****         6.7500  20.7500  21.2500 Du        
   4559 ****         6.7500  20.7500  21.5000 Du        
   4560 ****         6.7500  20.7500  21.7500 Du        
   4561 ****         6.7500  20.7500  22.0000 Du        
   4562 ****         6.7500  20.7500  22.2500 Du        
   4563 ****         6.7500  20.7500  22.5000 Du        
   4564 ****         6.7500  20.7500  22.7500 Du        
   4565 ****         6.7500  20.7500  23.0000 Du        
   4566 ****         6.7500  20.7500  23.2500 Du        
   4567 ****         6.7500  20.7500  23.5000 Du        
   4568 ****         6.7500  20.7500  23.7500 Du        
   4569 ****         6.7500  20.7500  24.0000 Du        
   4570 ****         6.7500  21.0000  21.0000 Du        
   4571 ****         6.7500  21.0000  21.2500 Du        
   4572 ****         6.7500  21.0000  21.5000 Du        
   4573 ****         6.7500  21.0000  21.7500 Du        
   4574 ****         6.7500  21.0000  22.0000 Du        
   4575 ****         6.7500  21.0000  22.2500 Du        
   4576 ****         6.7500  21.0000  22.5000 Du        
   4577 ****         6.7500  21.0000  22.7500 Du        
   4578 ****         6.7500  21.0000  23.0000 Du        
   4579 ****         6.7500  21.0000  23.2500 Du        
   4580 ****         6.7500  21.0000  23.5000 Du        
   4581 ****         6.7500  21.0000  23.7500 Du        
   4582 ****         6.7500  21.0000  24.0000 Du        
   4583 ****         6.7500  21.2500  21.2500 Du        
   4584 ****         6.7500  21.2500  21.5000 Du        
   4585 ****         6.7500  21.2500  21.7500 Du        
   4586 ****         6.7500  21.2500  22.0000 Du        
   4587 ****         6.7500  21.2500  22.2500 Du        
   4588 ****         6.7500  21.2500  22.5000 Du        
   4589 ****         6.7500  21.2500  22.7500 Du        
   4590 ****         6.7500  21.2500  23.0000 Du        
   4591 ****         6.7500  21.2500  23.2500 Du        
   4592 ****         6.7500  21.2500  23.5000 Du        
   4593 ****         6.7500  21.2500  23.7500 Du        
   4594 ****         6.7500  21.5000  21.7500 Du        
   4595 ****         6.7500  21.5000  22.0000 Du        
   4596 ****         6.7500  21.5000  22.2500 Du        
   4597 ****         6.7500  21.5000  22.5000 Du        
   4598 ****         6.7500  21.5000  22.7500 Du        
   4599 ****         6.7500  21.5000  23.0000 Du        
   4600 ****         6.7500  21.5000  23.2500 Du        
   4601 ****         6.7500  21.7500  22.2500 Du        
   4602 ****         6.7500  21.7500  22.5000 Du        
   4603 ****         6.7500  21.7500  22.7500 Du        
   4604 ****         6.7500  21.7500  23.0000 Du        
   4605 ****         6.7500  31.7500  12.7500 Du        
   4606 ****         6.7500  31.7500  13.0000 Du        
   4607 ****         6.7500  31.7500  13.2500 Du        
   4608 ****         6.7500  31.7500  13.5000 Du        
   4609 ****         6.7500  31.7500  13.7500 Du        
   4610 ****         6.7500  32.0000  12.0000 Du        
   4611 ****         6.7500  32.0000  12.2500 Du        
   4612 ****         6.7500  32.0000  12.5000 Du        
   4613 ****         6.7500  32.0000  12.7500 Du        
   4614 ****         6.7500  32.0000  13.0000 Du        
   4615 ****         6.7500  32.0000  13.2500 Du        
   4616 ****         6.7500  32.0000  13.5000 Du        
   4617 ****         6.7500  32.0000  13.7500 Du        
   4618 ****         6.7500  32.0000  14.0000 Du        
   4619 ****         6.7500  32.2500  11.7500 Du        
   4620 ****         6.7500  32.2500  12.0000 Du        
   4621 ****         6.7500  32.2500  12.2500 Du        
   4622 ****         6.7500  32.2500  12.5000 Du        
   4623 ****         6.7500  32.2500  12.7500 Du        
   4624 ****         6.7500  32.2500  13.0000 Du        
   4625 ****         6.7500  32.2500  13.2500 Du        
   4626 ****         6.7500  32.2500  13.5000 Du        
   4627 ****         6.7500  32.2500  13.7500 Du        
   4628 ****         6.7500  32.2500  14.0000 Du        
   4629 ****         6.7500  32.5000  11.5000 Du        
   4630 ****         6.7500  32.5000  11.7500 Du        
   4631 ****         6.7500  32.5000  12.0000 Du        
   4632 ****         6.7500  32.5000  12.2500 Du        
   4633 ****         6.7500  32.5000  12.5000 Du        
   4634 ****         6.7500  32.5000  12.7500 Du        
   4635 ****         6.7500  32.5000  13.0000 Du        
   4636 ****         6.7500  32.5000  13.2500 Du        
   4637 ****         6.7500  32.5000  13.5000 Du        
   4638 ****         6.7500  32.5000  13.7500 Du        
   4639 ****         6.7500  32.7500  11.5000 Du        
   4640 ****         6.7500  32.7500  11.7500 Du        
   4641 ****         6.7500  32.7500  12.0000 Du        
   4642 ****         6.7500  32.7500  12.2500 Du        
   4643 ****         6.7500  32.7500  12.5000 Du        
   4644 ****         6.7500  32.7500  12.7500 Du        
   4645 ****         6.7500  32.7500  13.0000 Du        
   4646 ****         6.7500  32.7500  13.2500 Du        
   4647 ****         6.7500  32.7500  13.5000 Du        
   4648 ****         6.7500  33.0000  11.2500 Du        
   4649 ****         6.7500  33.0000  11.5000 Du        
   4650 ****         6.7500  33.0000  11.7500 Du        
   4651 ****         6.7500  33.0000  12.0000 Du        
   4652 ****         6.7500  33.0000  12.2500 Du        
   4653 ****         6.7500  33.0000  12.5000 Du        
   4654 ****         6.7500  33.0000  12.7500 Du        
   4655 ****         6.7500  33.0000  13.0000 Du        
   4656 ****         6.7500  33.0000  13.2500 Du        
   4657 ****         6.7500  33.0000  13.5000 Du        
   4658 ****         6.7500  33.2500  11.2500 Du        
   4659 ****         6.7500  33.2500  11.5000 Du        
   4660 ****         6.7500  33.2500  11.7500 Du        
   4661 ****         6.7500  33.2500  12.0000 Du        
   4662 ****         6.7500  33.2500  12.2500 Du        
   4663 ****         6.7500  33.2500  12.5000 Du        
   4664 ****         6.7500  33.2500  12.7500 Du        
   4665 ****         6.7500  33.2500  13.0000 Du        
   4666 ****         6.7500  33.2500  13.2500 Du        
   4667 ****         6.7500  33.5000  11.2500 Du        
   4668 ****         6.7500  33.5000  11.5000 Du        
   4669 ****         6.7500  33.5000  11.7500 Du        
   4670 ****         6.7500  33.5000  12.0000 Du        
   4671 ****         6.7500  33.5000  12.2500 Du        
   4672 ****         6.7500  33.5000  12.5000 Du        
   4673 ****         6.7500  33.5000  12.7500 Du        
   4674 ****         6.7500  33.5000  13.0000 Du        
   4675 ****         6.7500  33.5000  13.2500 Du        
   4676 ****         6.7500  33.7500  11.2500 Du        
   4677 ****         6.7500  33.7500  11.5000 Du        
   4678 ****         6.7500  33.7500  11.7500 Du        
   4679 ****         6.7500  33.7500  12.0000 Du        
   4680 ****         6.7500  33.7500  12.2500 Du        
   4681 ****         6.7500  33.7500  12.5000 Du        
   4682 ****         6.7500  33.7500  12.7500 Du        
   4683 ****         6.7500  33.7500  13.0000 Du        
   4684 ****         6.7500  34.0000  11.2500 Du        
   4685 ****         6.7500  34.0000  11.5000 Du        
   4686 ****         6.7500  34.0000  11.7500 Du        
   4687 ****         6.7500  34.0000  12.0000 Du        
   4688 ****         6.7500  34.0000  12.2500 Du        
   4689 ****         6.7500  34.0000  12.5000 Du        
   4690 ****         6.7500  34.0000  12.7500 Du        
   4691 ****         6.7500  34.0000  13.0000 Du        
   4692 ****         6.7500  34.2500  11.2500 Du        
   4693 ****         6.7500  34.2500  11.5000 Du        
   4694 ****         6.7500  34.2500  11.7500 Du        
   4695 ****         6.7500  34.2500  12.0000 Du        
   4696 ****         6.7500  34.2500  12.2500 Du        
   4697 ****         6.7500  34.2500  12.5000 Du        
   4698 ****         6.7500  34.2500  12.7500 Du        
   4699 ****         6.7500  34.2500  13.0000 Du        
   4700 ****         6.7500  34.5000  11.2500 Du        
   4701 ****         6.7500  34.5000  11.5000 Du        
   4702 ****         6.7500  34.5000  11.7500 Du        
   4703 ****         6.7500  34.5000  12.0000 Du        
   4704 ****         6.7500  34.5000  12.2500 Du        
   4705 ****         6.7500  34.5000  12.5000 Du        
   4706 ****         6.7500  34.5000  12.7500 Du        
   4707 ****         6.7500  34.5000  13.0000 Du        
   4708 ****         6.7500  34.7500  11.5000 Du        
   4709 ****         6.7500  34.7500  11.7500 Du        
   4710 ****         6.7500  34.7500  12.0000 Du        
   4711 ****         6.7500  34.7500  12.2500 Du        
   4712 ****         6.7500  34.7500  12.5000 Du        
   4713 ****         6.7500  34.7500  12.7500 Du        
   4714 ****         6.7500  34.7500  13.0000 Du        
   4715 ****         6.7500  35.0000  11.5000 Du        
   4716 ****         6.7500  35.0000  11.7500 Du        
   4717 ****         6.7500  35.0000  12.0000 Du        
   4718 ****         6.7500  35.0000  12.2500 Du        
   4719 ****         6.7500  35.0000  12.5000 Du        
   4720 ****         6.7500  35.0000  12.7500 Du        
   4721 ****         6.7500  35.0000  13.0000 Du        
   4722 ****         6.7500  35.2500  11.5000 Du        
   4723 ****         6.7500  35.2500  11.7500 Du        
   4724 ****         6.7500  35.2500  12.0000 Du        
   4725 ****         6.7500  35.2500  12.2500 Du        
   4726 ****         6.7500  35.2500  12.5000 Du        
   4727 ****         6.7500  35.2500  12.7500 Du        
   4728 ****         6.7500  35.5000  11.7500 Du        
   4729 ****         6.7500  35.5000  12.0000 Du        
   4730 ****         6.7500  35.5000  12.2500 Du        
   4731 ****         6.7500  35.5000  12.5000 Du        
   4732 ****         6.7500  35.5000  12.7500 Du        
   4733 ****         6.7500  35.7500  11.7500 Du        
   4734 ****         6.7500  35.7500  12.0000 Du        
   4735 ****         6.7500  35.7500  12.2500 Du        
   4736 ****         6.7500  35.7500  12.5000 Du        
   4737 ****         6.7500  35.7500  12.7500 Du        
   4738 ****         6.7500  35.7500  13.0000 Du        
   4739 ****         6.7500  36.0000  12.0000 Du        
   4740 ****         6.7500  36.0000  12.2500 Du        
   4741 ****         6.7500  36.0000  12.5000 Du        
   4742 ****         6.7500  36.0000  12.7500 Du        
   4743 ****         6.7500  36.0000  13.0000 Du        
   4744 ****         6.7500  36.2500  12.0000 Du        
   4745 ****         6.7500  36.2500  12.2500 Du        
   4746 ****         6.7500  36.2500  12.5000 Du        
   4747 ****         6.7500  36.2500  12.7500 Du        
   4748 ****         6.7500  36.2500  13.0000 Du        
   4749 ****         6.7500  36.5000  12.0000 Du        
   4750 ****         6.7500  36.5000  12.2500 Du        
   4751 ****         6.7500  36.5000  12.5000 Du        
   4752 ****         6.7500  36.5000  12.7500 Du        
   4753 ****         6.7500  36.5000  13.0000 Du        
   4754 ****         6.7500  36.7500  12.0000 Du        
   4755 ****         6.7500  36.7500  12.2500 Du        
   4756 ****         6.7500  36.7500  12.5000 Du        
   4757 ****         6.7500  36.7500  12.7500 Du        
   4758 ****         6.7500  36.7500  13.0000 Du        
   4759 ****         6.7500  36.7500  13.2500 Du        
   4760 ****         6.7500  37.0000  12.0000 Du        
   4761 ****         6.7500  37.0000  12.2500 Du        
   4762 ****         6.7500  37.0000  12.5000 Du        
   4763 ****         6.7500  37.0000  12.7500 Du        
   4764 ****         6.7500  37.0000  13.0000 Du        
   4765 ****         6.7500  37.0000  13.2500 Du        
   4766 ****         6.7500  37.2500  12.2500 Du        
   4767 ****         6.7500  37.2500  12.5000 Du        
   4768 ****         6.7500  37.2500  12.7500 Du        
   4769 ****         6.7500  37.2500  13.0000 Du        
   4770 ****         6.7500  37.2500  13.2500 Du        
   4771 ****         6.7500  37.2500  13.5000 Du        
   4772 ****         6.7500  37.5000  12.2500 Du        
   4773 ****         6.7500  37.5000  12.5000 Du        
   4774 ****         6.7500  37.5000  12.7500 Du        
   4775 ****         6.7500  37.5000  13.0000 Du        
   4776 ****         6.7500  37.5000  13.2500 Du        
   4777 ****         6.7500  37.5000  13.5000 Du        
   4778 ****         6.7500  37.5000  13.7500 Du        
   4779 ****         6.7500  37.7500  12.2500 Du        
   4780 ****         6.7500  37.7500  12.5000 Du        
   4781 ****         6.7500  37.7500  12.7500 Du        
   4782 ****         6.7500  37.7500  13.0000 Du        
   4783 ****         6.7500  37.7500  13.2500 Du        
   4784 ****         6.7500  37.7500  13.5000 Du        
   4785 ****         6.7500  37.7500  13.7500 Du        
   4786 ****         6.7500  38.0000  12.0000 Du        
   4787 ****         6.7500  38.0000  12.2500 Du        
   4788 ****         6.7500  38.0000  12.5000 Du        
   4789 ****         6.7500  38.0000  12.7500 Du        
   4790 ****         6.7500  38.0000  13.0000 Du        
   4791 ****         6.7500  38.0000  13.2500 Du        
   4792 ****         6.7500  38.0000  13.5000 Du        
   4793 ****         6.7500  38.0000  13.7500 Du        
   4794 ****         6.7500  38.0000  14.0000 Du        
   4795 ****         6.7500  38.2500  12.0000 Du        
   4796 ****         6.7500  38.2500  12.2500 Du        
   4797 ****         6.7500  38.2500  12.5000 Du        
   4798 ****         6.7500  38.2500  12.7500 Du        
   4799 ****         6.7500  38.2500  13.0000 Du        
   4800 ****         6.7500  38.2500  13.2500 Du        
   4801 ****         6.7500  38.2500  13.5000 Du        
   4802 ****         6.7500  38.2500  13.7500 Du        
   4803 ****         6.7500  38.2500  14.0000 Du        
   4804 ****         6.7500  38.5000  12.2500 Du        
   4805 ****         6.7500  38.5000  12.5000 Du        
   4806 ****         6.7500  38.5000  12.7500 Du        
   4807 ****         6.7500  38.5000  13.0000 Du        
   4808 ****         6.7500  38.5000  13.2500 Du        
   4809 ****         6.7500  38.5000  13.5000 Du        
   4810 ****         6.7500  38.5000  13.7500 Du        
   4811 ****         6.7500  38.5000  14.0000 Du        
   4812 ****         6.7500  38.7500  12.2500 Du        
   4813 ****         6.7500  38.7500  12.5000 Du        
   4814 ****         6.7500  38.7500  12.7500 Du        
   4815 ****         6.7500  38.7500  13.0000 Du        
   4816 ****         6.7500  38.7500  13.2500 Du        
   4817 ****         6.7500  38.7500  13.5000 Du        
   4818 ****         6.7500  38.7500  13.7500 Du        
   4819 ****         6.7500  38.7500  14.0000 Du        
   4820 ****         6.7500  39.0000  12.5000 Du        
   4821 ****         6.7500  39.0000  12.7500 Du        
   4822 ****         6.7500  39.0000  13.0000 Du        
   4823 ****         6.7500  39.0000  13.2500 Du        
   4824 ****         6.7500  39.0000  13.5000 Du        
   4825 ****         6.7500  39.0000  13.7500 Du        
   4826 ****         6.7500  39.0000  14.0000 Du        
   4827 ****         6.7500  39.0000  14.2500 Du        
   4828 ****         6.7500  39.0000  14.7500 Du        
   4829 ****         6.7500  39.2500  14.7500 Du        
   4830 ****         6.7500  39.2500  15.0000 Du        
   4831 ****         7.0000  18.0000  24.0000 Du        
   4832 ****         7.0000  18.2500  23.7500 Du        
   4833 ****         7.0000  18.2500  24.0000 Du        
   4834 ****         7.0000  18.5000  23.2500 Du        
   4835 ****         7.0000  18.5000  23.5000 Du        
   4836 ****         7.0000  18.5000  23.7500 Du        
   4837 ****         7.0000  18.5000  24.0000 Du        
   4838 ****         7.0000  18.5000  24.2500 Du        
   4839 ****         7.0000  18.7500  23.0000 Du        
   4840 ****         7.0000  18.7500  23.2500 Du        
   4841 ****         7.0000  18.7500  23.5000 Du        
   4842 ****         7.0000  18.7500  23.7500 Du        
   4843 ****         7.0000  18.7500  24.0000 Du        
   4844 ****         7.0000  18.7500  24.2500 Du        
   4845 ****         7.0000  19.0000  22.7500 Du        
   4846 ****         7.0000  19.0000  23.0000 Du        
   4847 ****         7.0000  19.0000  23.2500 Du        
   4848 ****         7.0000  19.0000  23.5000 Du        
   4849 ****         7.0000  19.0000  23.7500 Du        
   4850 ****         7.0000  19.0000  24.0000 Du        
   4851 ****         7.0000  19.0000  24.2500 Du        
   4852 ****         7.0000  19.2500  22.2500 Du        
   4853 ****         7.0000  19.2500  22.5000 Du        
   4854 ****         7.0000  19.2500  22.7500 Du        
   4855 ****         7.0000  19.2500  23.0000 Du        
   4856 ****         7.0000  19.2500  23.2500 Du        
   4857 ****         7.0000  19.2500  23.5000 Du        
   4858 ****         7.0000  19.2500  23.7500 Du        
   4859 ****         7.0000  19.2500  24.0000 Du        
   4860 ****         7.0000  19.5000  22.0000 Du        
   4861 ****         7.0000  19.5000  22.2500 Du        
   4862 ****         7.0000  19.5000  22.5000 Du        
   4863 ****         7.0000  19.5000  22.7500 Du        
   4864 ****         7.0000  19.5000  23.0000 Du        
   4865 ****         7.0000  19.5000  23.2500 Du        
   4866 ****         7.0000  19.5000  23.5000 Du        
   4867 ****         7.0000  19.5000  23.7500 Du        
   4868 ****         7.0000  19.5000  24.0000 Du        
   4869 ****         7.0000  19.7500  21.2500 Du        
   4870 ****         7.0000  19.7500  21.5000 Du        
   4871 ****         7.0000  19.7500  21.7500 Du        
   4872 ****         7.0000  19.7500  22.0000 Du        
   4873 ****         7.0000  19.7500  22.2500 Du        
   4874 ****         7.0000  19.7500  22.5000 Du        
   4875 ****         7.0000  19.7500  22.7500 Du        
   4876 ****         7.0000  19.7500  23.0000 Du        
   4877 ****         7.0000  19.7500  23.2500 Du        
   4878 ****         7.0000  19.7500  23.5000 Du        
   4879 ****         7.0000  19.7500  23.7500 Du        
   4880 ****         7.0000  19.7500  24.0000 Du        
   4881 ****         7.0000  20.0000  21.0000 Du        
   4882 ****         7.0000  20.0000  21.2500 Du        
   4883 ****         7.0000  20.0000  21.5000 Du        
   4884 ****         7.0000  20.0000  21.7500 Du        
   4885 ****         7.0000  20.0000  22.0000 Du        
   4886 ****         7.0000  20.0000  22.2500 Du        
   4887 ****         7.0000  20.0000  22.5000 Du        
   4888 ****         7.0000  20.0000  22.7500 Du        
   4889 ****         7.0000  20.0000  23.0000 Du        
   4890 ****         7.0000  20.0000  23.2500 Du        
   4891 ****         7.0000  20.0000  23.5000 Du        
   4892 ****         7.0000  20.0000  23.7500 Du        
   4893 ****         7.0000  20.0000  24.0000 Du        
   4894 ****         7.0000  20.2500  20.7500 Du        
   4895 ****         7.0000  20.2500  21.0000 Du        
   4896 ****         7.0000  20.2500  21.2500 Du        
   4897 ****         7.0000  20.2500  21.5000 Du        
   4898 ****         7.0000  20.2500  21.7500 Du        
   4899 ****         7.0000  20.2500  22.0000 Du        
   4900 ****         7.0000  20.2500  22.2500 Du        
   4901 ****         7.0000  20.2500  22.5000 Du        
   4902 ****         7.0000  20.2500  22.7500 Du        
   4903 ****         7.0000  20.2500  23.0000 Du        
   4904 ****         7.0000  20.2500  23.2500 Du        
   4905 ****         7.0000  20.2500  23.5000 Du        
   4906 ****         7.0000  20.2500  23.7500 Du        
   4907 ****         7.0000  20.2500  24.0000 Du        
   4908 ****         7.0000  20.5000  20.7500 Du        
   4909 ****         7.0000  20.5000  21.0000 Du        
   4910 ****         7.0000  20.5000  21.2500 Du        
   4911 ****         7.0000  20.5000  21.5000 Du        
   4912 ****         7.0000  20.5000  21.7500 Du        
   4913 ****         7.0000  20.5000  22.0000 Du        
   4914 ****         7.0000  20.5000  22.2500 Du        
   4915 ****         7.0000  20.5000  22.5000 Du        
   4916 ****         7.0000  20.5000  22.7500 Du        
   4917 ****         7.0000  20.5000  23.0000 Du        
   4918 ****         7.0000  20.5000  23.2500 Du        
   4919 ****         7.0000  20.5000  23.5000 Du        
   4920 ****         7.0000  20.5000  23.7500 Du        
   4921 ****         7.0000  20.5000  24.0000 Du        
   4922 ****         7.0000  20.5000  24.2500 Du        
   4923 ****         7.0000  20.7500  20.7500 Du        
   4924 ****         7.0000  20.7500  21.0000 Du        
   4925 ****         7.0000  20.7500  21.2500 Du        
   4926 ****         7.0000  20.7500  21.5000 Du        
   4927 ****         7.0000  20.7500  21.7500 Du        
   4928 ****         7.0000  20.7500  22.0000 Du        
   4929 ****         7.0000  20.7500  22.2500 Du        
   4930 ****         7.0000  20.7500  22.5000 Du        
   4931 ****         7.0000  20.7500  22.7500 Du        
   4932 ****         7.0000  20.7500  23.0000 Du        
   4933 ****         7.0000  20.7500  23.2500 Du        
   4934 ****         7.0000  20.7500  23.5000 Du        
   4935 ****         7.0000  20.7500  23.7500 Du        
   4936 ****         7.0000  20.7500  24.0000 Du        
   4937 ****         7.0000  20.7500  24.2500 Du        
   4938 ****         7.0000  21.0000  20.7500 Du        
   4939 ****         7.0000  21.0000  21.0000 Du        
   4940 ****         7.0000  21.0000  21.2500 Du        
   4941 ****         7.0000  21.0000  21.5000 Du        
   4942 ****         7.0000  21.0000  21.7500 Du        
   4943 ****         7.0000  21.0000  22.0000 Du        
   4944 ****         7.0000  21.0000  22.2500 Du        
   4945 ****         7.0000  21.0000  22.5000 Du        
   4946 ****         7.0000  21.0000  22.7500 Du        
   4947 ****         7.0000  21.0000  23.0000 Du        
   4948 ****         7.0000  21.0000  23.2500 Du        
   4949 ****         7.0000  21.0000  23.5000 Du        
   4950 ****         7.0000  21.0000  23.7500 Du        
   4951 ****         7.0000  21.0000  24.0000 Du        
   4952 ****         7.0000  21.0000  24.2500 Du        
   4953 ****         7.0000  21.2500  21.0000 Du        
   4954 ****         7.0000  21.2500  21.2500 Du        
   4955 ****         7.0000  21.2500  21.5000 Du        
   4956 ****         7.0000  21.2500  21.7500 Du        
   4957 ****         7.0000  21.2500  22.0000 Du        
   4958 ****         7.0000  21.2500  22.2500 Du        
   4959 ****         7.0000  21.2500  22.5000 Du        
   4960 ****         7.0000  21.2500  22.7500 Du        
   4961 ****         7.0000  21.2500  23.0000 Du        
   4962 ****         7.0000  21.2500  23.2500 Du        
   4963 ****         7.0000  21.2500  23.5000 Du        
   4964 ****         7.0000  21.2500  23.7500 Du        
   4965 ****         7.0000  21.2500  24.0000 Du        
   4966 ****         7.0000  21.5000  21.7500 Du        
   4967 ****         7.0000  21.5000  22.0000 Du        
   4968 ****         7.0000  21.5000  22.2500 Du        
   4969 ****         7.0000  21.5000  22.5000 Du        
   4970 ****         7.0000  21.5000  22.7500 Du        
   4971 ****         7.0000  21.5000  23.0000 Du        
   4972 ****         7.0000  21.5000  23.2500 Du        
   4973 ****         7.0000  21.5000  23.5000 Du        
   4974 ****         7.0000  21.7500  22.0000 Du        
   4975 ****         7.0000  21.7500  22.2500 Du        
   4976 ****         7.0000  21.7500  22.5000 Du        
   4977 ****         7.0000  21.7500  22.7500 Du        
   4978 ****         7.0000  21.7500  23.0000 Du        
   4979 ****         7.0000  22.0000  22.5000 Du        
   4980 ****         7.0000  22.0000  22.7500 Du        
   4981 ****         7.0000  31.5000  13.2500 Du        
   4982 ****         7.0000  31.5000  13.5000 Du        
   4983 ****         7.0000  31.7500  12.7500 Du        
   4984 ****         7.0000  31.7500  13.0000 Du        
   4985 ****         7.0000  31.7500  13.2500 Du        
   4986 ****         7.0000  31.7500  13.5000 Du        
   4987 ****         7.0000  31.7500  13.7500 Du        
   4988 ****         7.0000  32.0000  12.2500 Du        
   4989 ****         7.0000  32.0000  12.5000 Du        
   4990 ****         7.0000  32.0000  12.7500 Du        
   4991 ****         7.0000  32.0000  13.0000 Du        
   4992 ****         7.0000  32.0000  13.2500 Du        
   4993 ****         7.0000  32.0000  13.5000 Du        
   4994 ****         7.0000  32.0000  13.7500 Du        
   4995 ****         7.0000  32.0000  14.0000 Du        
   4996 ****         7.0000  32.2500  11.7500 Du        
   4997 ****         7.0000  32.2500  12.0000 Du        
   4998 ****         7.0000  32.2500  12.2500 Du        
   4999 ****         7.0000  32.2500  12.5000 Du        
   5000 ****         7.0000  32.2500  12.7500 Du        
   5001 ****         7.0000  32.2500  13.0000 Du        
   5002 ****         7.0000  32.2500  13.2500 Du        
   5003 ****         7.0000  32.2500  13.5000 Du        
   5004 ****         7.0000  32.2500  13.7500 Du        
   5005 ****         7.0000  32.2500  14.0000 Du        
   5006 ****         7.0000  32.5000  11.5000 Du        
   5007 ****         7.0000  32.5000  11.7500 Du        
   5008 ****         7.0000  32.5000  12.0000 Du        
   5009 ****         7.0000  32.5000  12.2500 Du        
   5010 ****         7.0000  32.5000  12.5000 Du        
   5011 ****         7.0000  32.5000  12.7500 Du        
   5012 ****         7.0000  32.5000  13.0000 Du        
   5013 ****         7.0000  32.5000  13.2500 Du        
   5014 ****         7.0000  32.5000  13.5000 Du        
   5015 ****         7.0000  32.5000  13.7500 Du        
   5016 ****         7.0000  32.5000  14.0000 Du        
   5017 ****         7.0000  32.7500  11.2500 Du        
   5018 ****         7.0000  32.7500  11.5000 Du        
   5019 ****         7.0000  32.7500  11.7500 Du        
   5020 ****         7.0000  32.7500  12.0000 Du        
   5021 ****         7.0000  32.7500  12.2500 Du        
   5022 ****         7.0000  32.7500  12.5000 Du        
   5023 ****         7.0000  32.7500  12.7500 Du        
   5024 ****         7.0000  32.7500  13.0000 Du        
   5025 ****         7.0000  32.7500  13.2500 Du        
   5026 ****         7.0000  32.7500  13.5000 Du        
   5027 ****         7.0000  32.7500  13.7500 Du        
   5028 ****         7.0000  33.0000  11.2500 Du        
   5029 ****         7.0000  33.0000  11.5000 Du        
   5030 ****         7.0000  33.0000  11.7500 Du        
   5031 ****         7.0000  33.0000  12.0000 Du        
   5032 ****         7.0000  33.0000  12.2500 Du        
   5033 ****         7.0000  33.0000  12.5000 Du        
   5034 ****         7.0000  33.0000  12.7500 Du        
   5035 ****         7.0000  33.0000  13.0000 Du        
   5036 ****         7.0000  33.0000  13.2500 Du        
   5037 ****         7.0000  33.0000  13.5000 Du        
   5038 ****         7.0000  33.2500  11.2500 Du        
   5039 ****         7.0000  33.2500  11.5000 Du        
   5040 ****         7.0000  33.2500  11.7500 Du        
   5041 ****         7.0000  33.2500  12.0000 Du        
   5042 ****         7.0000  33.2500  12.2500 Du        
   5043 ****         7.0000  33.2500  12.5000 Du        
   5044 ****         7.0000  33.2500  12.7500 Du        
   5045 ****         7.0000  33.2500  13.0000 Du        
   5046 ****         7.0000  33.2500  13.2500 Du        
   5047 ****         7.0000  33.2500  13.5000 Du        
   5048 ****         7.0000  33.5000  11.2500 Du        
   5049 ****         7.0000  33.5000  11.5000 Du        
   5050 ****         7.0000  33.5000  11.7500 Du        
   5051 ****         7.0000  33.5000  12.0000 Du        
   5052 ****         7.0000  33.5000  12.2500 Du        
   5053 ****         7.0000  33.5000  12.5000 Du        
   5054 ****         7.0000  33.5000  12.7500 Du        
   5055 ****         7.0000  33.5000  13.0000 Du        
   5056 ****         7.0000  33.5000  13.2500 Du        
   5057 ****         7.0000  33.7500  11.2500 Du        
   5058 ****         7.0000  33.7500  11.5000 Du        
   5059 ****         7.0000  33.7500  11.7500 Du        
   5060 ****         7.0000  33.7500  12.0000 Du        
   5061 ****         7.0000  33.7500  12.2500 Du        
   5062 ****         7.0000  33.7500  12.5000 Du        
   5063 ****         7.0000  33.7500  12.7500 Du        
   5064 ****         7.0000  33.7500  13.0000 Du        
   5065 ****         7.0000  33.7500  13.2500 Du        
   5066 ****         7.0000  34.0000  11.2500 Du        
   5067 ****         7.0000  34.0000  11.5000 Du        
   5068 ****         7.0000  34.0000  11.7500 Du        
   5069 ****         7.0000  34.0000  12.0000 Du        
   5070 ****         7.0000  34.0000  12.2500 Du        
   5071 ****         7.0000  34.0000  12.5000 Du        
   5072 ****         7.0000  34.0000  12.7500 Du        
   5073 ****         7.0000  34.0000  13.0000 Du        
   5074 ****         7.0000  34.0000  13.2500 Du        
   5075 ****         7.0000  34.2500  11.2500 Du        
   5076 ****         7.0000  34.2500  11.5000 Du        
   5077 ****         7.0000  34.2500  11.7500 Du        
   5078 ****         7.0000  34.2500  12.0000 Du        
   5079 ****         7.0000  34.2500  12.2500 Du        
   5080 ****         7.0000  34.2500  12.5000 Du        
   5081 ****         7.0000  34.2500  12.7500 Du        
   5082 ****         7.0000  34.2500  13.0000 Du        
   5083 ****         7.0000  34.5000  11.2500 Du        
   5084 ****         7.0000  34.5000  11.5000 Du        
   5085 ****         7.0000  34.5000  11.7500 Du        
   5086 ****         7.0000  34.5000  12.0000 Du        
   5087 ****         7.0000  34.5000  12.2500 Du        
   5088 ****         7.0000  34.5000  12.5000 Du        
   5089 ****         7.0000  34.5000  12.7500 Du        
   5090 ****         7.0000  34.5000  13.0000 Du        
   5091 ****         7.0000  34.7500  11.5000 Du        
   5092 ****         7.0000  34.7500  11.7500 Du        
   5093 ****         7.0000  34.7500  12.0000 Du        
   5094 ****         7.0000  34.7500  12.2500 Du        
   5095 ****         7.0000  34.7500  12.5000 Du        
   5096 ****         7.0000  34.7500  12.7500 Du        
   5097 ****         7.0000  34.7500  13.0000 Du        
   5098 ****         7.0000  35.0000  11.5000 Du        
   5099 ****         7.0000  35.0000  11.7500 Du        
   5100 ****         7.0000  35.0000  12.0000 Du        
   5101 ****         7.0000  35.0000  12.2500 Du        
   5102 ****         7.0000  35.0000  12.5000 Du        
   5103 ****         7.0000  35.0000  12.7500 Du        
   5104 ****         7.0000  35.0000  13.0000 Du        
   5105 ****         7.0000  35.2500  11.7500 Du        
   5106 ****         7.0000  35.2500  12.0000 Du        
   5107 ****         7.0000  35.2500  12.2500 Du        
   5108 ****         7.0000  35.2500  12.5000 Du        
   5109 ****         7.0000  35.2500  12.7500 Du        
   5110 ****         7.0000  35.2500  13.0000 Du        
   5111 ****         7.0000  35.5000  11.7500 Du        
   5112 ****         7.0000  35.5000  12.0000 Du        
   5113 ****         7.0000  35.5000  12.2500 Du        
   5114 ****         7.0000  35.5000  12.5000 Du        
   5115 ****         7.0000  35.5000  12.7500 Du        
   5116 ****         7.0000  35.5000  13.0000 Du        
   5117 ****         7.0000  35.7500  11.7500 Du        
   5118 ****         7.0000  35.7500  12.0000 Du        
   5119 ****         7.0000  35.7500  12.2500 Du        
   5120 ****         7.0000  35.7500  12.5000 Du        
   5121 ****         7.0000  35.7500  12.7500 Du        
   5122 ****         7.0000  35.7500  13.0000 Du        
   5123 ****         7.0000  36.0000  12.0000 Du        
   5124 ****         7.0000  36.0000  12.2500 Du        
   5125 ****         7.0000  36.0000  12.5000 Du        
   5126 ****         7.0000  36.0000  12.7500 Du        
   5127 ****         7.0000  36.0000  13.0000 Du        
   5128 ****         7.0000  36.0000  13.2500 Du        
   5129 ****         7.0000  36.2500  12.0000 Du        
   5130 ****         7.0000  36.2500  12.2500 Du        
   5131 ****         7.0000  36.2500  12.5000 Du        
   5132 ****         7.0000  36.2500  12.7500 Du        
   5133 ****         7.0000  36.2500  13.0000 Du        
   5134 ****         7.0000  36.2500  13.2500 Du        
   5135 ****         7.0000  36.5000  12.0000 Du        
   5136 ****         7.0000  36.5000  12.2500 Du        
   5137 ****         7.0000  36.5000  12.5000 Du        
   5138 ****         7.0000  36.5000  12.7500 Du        
   5139 ****         7.0000  36.5000  13.0000 Du        
   5140 ****         7.0000  36.5000  13.2500 Du        
   5141 ****         7.0000  36.7500  12.0000 Du        
   5142 ****         7.0000  36.7500  12.2500 Du        
   5143 ****         7.0000  36.7500  12.5000 Du        
   5144 ****         7.0000  36.7500  12.7500 Du        
   5145 ****         7.0000  36.7500  13.0000 Du        
   5146 ****         7.0000  36.7500  13.2500 Du        
   5147 ****         7.0000  36.7500  13.5000 Du        
   5148 ****         7.0000  37.0000  12.2500 Du        
   5149 ****         7.0000  37.0000  12.5000 Du        
   5150 ****         7.0000  37.0000  12.7500 Du        
   5151 ****         7.0000  37.0000  13.0000 Du        
   5152 ****         7.0000  37.0000  13.2500 Du        
   5153 ****         7.0000  37.0000  13.5000 Du        
   5154 ****         7.0000  37.2500  12.2500 Du        
   5155 ****         7.0000  37.2500  12.5000 Du        
   5156 ****         7.0000  37.2500  12.7500 Du        
   5157 ****         7.0000  37.2500  13.0000 Du        
   5158 ****         7.0000  37.2500  13.2500 Du        
   5159 ****         7.0000  37.2500  13.5000 Du        
   5160 ****         7.0000  37.5000  12.2500 Du        
   5161 ****         7.0000  37.5000  12.5000 Du        
   5162 ****         7.0000  37.5000  12.7500 Du        
   5163 ****         7.0000  37.5000  13.0000 Du        
   5164 ****         7.0000  37.5000  13.2500 Du        
   5165 ****         7.0000  37.5000  13.5000 Du        
   5166 ****         7.0000  37.7500  12.2500 Du        
   5167 ****         7.0000  37.7500  12.5000 Du        
   5168 ****         7.0000  37.7500  12.7500 Du        
   5169 ****         7.0000  37.7500  13.0000 Du        
   5170 ****         7.0000  37.7500  13.2500 Du        
   5171 ****         7.0000  38.0000  12.2500 Du        
   5172 ****         7.0000  38.0000  12.5000 Du        
   5173 ****         7.0000  38.0000  12.7500 Du        
   5174 ****         7.0000  38.0000  13.0000 Du        
   5175 ****         7.0000  38.0000  13.2500 Du        
   5176 ****         7.0000  38.2500  12.0000 Du        
   5177 ****         7.0000  38.2500  12.2500 Du        
   5178 ****         7.0000  38.2500  12.5000 Du        
   5179 ****         7.0000  38.2500  12.7500 Du        
   5180 ****         7.0000  38.2500  13.0000 Du        
   5181 ****         7.0000  38.2500  13.2500 Du        
   5182 ****         7.0000  38.5000  12.2500 Du        
   5183 ****         7.0000  38.5000  12.5000 Du        
   5184 ****         7.0000  38.5000  12.7500 Du        
   5185 ****         7.0000  38.5000  13.0000 Du        
   5186 ****         7.0000  38.7500  12.2500 Du        
   5187 ****         7.0000  38.7500  12.5000 Du        
   5188 ****         7.0000  38.7500  12.7500 Du        
   5189 ****         7.0000  38.7500  13.0000 Du        
   5190 ****         7.2500  12.5000  22.0000 Du        
   5191 ****         7.2500  12.7500  22.0000 Du        
   5192 ****         7.2500  18.2500  23.7500 Du        
   5193 ****         7.2500  18.2500  24.0000 Du        
   5194 ****         7.2500  18.5000  23.7500 Du        
   5195 ****         7.2500  18.5000  24.0000 Du        
   5196 ****         7.2500  18.5000  24.2500 Du        
   5197 ****         7.2500  18.7500  23.2500 Du        
   5198 ****         7.2500  18.7500  23.5000 Du        
   5199 ****         7.2500  18.7500  23.7500 Du        
   5200 ****         7.2500  18.7500  24.0000 Du        
   5201 ****         7.2500  18.7500  24.2500 Du        
   5202 ****         7.2500  19.0000  23.0000 Du        
   5203 ****         7.2500  19.0000  23.2500 Du        
   5204 ****         7.2500  19.0000  23.5000 Du        
   5205 ****         7.2500  19.0000  23.7500 Du        
   5206 ****         7.2500  19.0000  24.0000 Du        
   5207 ****         7.2500  19.0000  24.2500 Du        
   5208 ****         7.2500  19.2500  22.7500 Du        
   5209 ****         7.2500  19.2500  23.0000 Du        
   5210 ****         7.2500  19.2500  23.2500 Du        
   5211 ****         7.2500  19.2500  23.5000 Du        
   5212 ****         7.2500  19.2500  23.7500 Du        
   5213 ****         7.2500  19.2500  24.0000 Du        
   5214 ****         7.2500  19.2500  24.2500 Du        
   5215 ****         7.2500  19.5000  22.2500 Du        
   5216 ****         7.2500  19.5000  22.5000 Du        
   5217 ****         7.2500  19.5000  22.7500 Du        
   5218 ****         7.2500  19.5000  23.0000 Du        
   5219 ****         7.2500  19.5000  23.2500 Du        
   5220 ****         7.2500  19.5000  23.5000 Du        
   5221 ****         7.2500  19.5000  23.7500 Du        
   5222 ****         7.2500  19.5000  24.0000 Du        
   5223 ****         7.2500  19.5000  24.2500 Du        
   5224 ****         7.2500  19.7500  21.7500 Du        
   5225 ****         7.2500  19.7500  22.0000 Du        
   5226 ****         7.2500  19.7500  22.2500 Du        
   5227 ****         7.2500  19.7500  22.5000 Du        
   5228 ****         7.2500  19.7500  22.7500 Du        
   5229 ****         7.2500  19.7500  23.0000 Du        
   5230 ****         7.2500  19.7500  23.2500 Du        
   5231 ****         7.2500  19.7500  23.5000 Du        
   5232 ****         7.2500  19.7500  23.7500 Du        
   5233 ****         7.2500  19.7500  24.0000 Du        
   5234 ****         7.2500  19.7500  24.2500 Du        
   5235 ****         7.2500  20.0000  21.2500 Du        
   5236 ****         7.2500  20.0000  21.5000 Du        
   5237 ****         7.2500  20.0000  21.7500 Du        
   5238 ****         7.2500  20.0000  22.0000 Du        
   5239 ****         7.2500  20.0000  22.2500 Du        
   5240 ****         7.2500  20.0000  22.5000 Du        
   5241 ****         7.2500  20.0000  22.7500 Du        
   5242 ****         7.2500  20.0000  23.0000 Du        
   5243 ****         7.2500  20.0000  23.2500 Du        
   5244 ****         7.2500  20.0000  23.5000 Du        
   5245 ****         7.2500  20.0000  23.7500 Du        
   5246 ****         7.2500  20.0000  24.0000 Du        
   5247 ****         7.2500  20.0000  24.2500 Du        
   5248 ****         7.2500  20.2500  21.0000 Du        
   5249 ****         7.2500  20.2500  21.2500 Du        
   5250 ****         7.2500  20.2500  21.5000 Du        
   5251 ****         7.2500  20.2500  21.7500 Du        
   5252 ****         7.2500  20.2500  22.0000 Du        
   5253 ****         7.2500  20.2500  22.2500 Du        
   5254 ****         7.2500  20.2500  22.5000 Du        
   5255 ****         7.2500  20.2500  22.7500 Du        
   5256 ****         7.2500  20.2500  23.0000 Du        
   5257 ****         7.2500  20.2500  23.2500 Du        
   5258 ****         7.2500  20.2500  23.5000 Du        
   5259 ****         7.2500  20.2500  23.7500 Du        
   5260 ****         7.2500  20.2500  24.0000 Du        
   5261 ****         7.2500  20.2500  24.2500 Du        
   5262 ****         7.2500  20.5000  21.0000 Du        
   5263 ****         7.2500  20.5000  21.2500 Du        
   5264 ****         7.2500  20.5000  21.5000 Du        
   5265 ****         7.2500  20.5000  21.7500 Du        
   5266 ****         7.2500  20.5000  22.0000 Du        
   5267 ****         7.2500  20.5000  22.2500 Du        
   5268 ****         7.2500  20.5000  22.5000 Du        
   5269 ****         7.2500  20.5000  22.7500 Du        
   5270 ****         7.2500  20.5000  23.0000 Du        
   5271 ****         7.2500  20.5000  23.2500 Du        
   5272 ****         7.2500  20.5000  23.5000 Du        
   5273 ****         7.2500  20.5000  23.7500 Du        
   5274 ****         7.2500  20.5000  24.0000 Du        
   5275 ****         7.2500  20.5000  24.2500 Du        
   5276 ****         7.2500  20.7500  20.7500 Du        
   5277 ****         7.2500  20.7500  21.0000 Du        
   5278 ****         7.2500  20.7500  21.2500 Du        
   5279 ****         7.2500  20.7500  21.5000 Du        
   5280 ****         7.2500  20.7500  21.7500 Du        
   5281 ****         7.2500  20.7500  22.0000 Du        
   5282 ****         7.2500  20.7500  22.2500 Du        
   5283 ****         7.2500  20.7500  22.5000 Du        
   5284 ****         7.2500  20.7500  22.7500 Du        
   5285 ****         7.2500  20.7500  23.0000 Du        
   5286 ****         7.2500  20.7500  23.2500 Du        
   5287 ****         7.2500  20.7500  23.5000 Du        
   5288 ****         7.2500  20.7500  23.7500 Du        
   5289 ****         7.2500  20.7500  24.0000 Du        
   5290 ****         7.2500  20.7500  24.2500 Du        
   5291 ****         7.2500  21.0000  20.7500 Du        
   5292 ****         7.2500  21.0000  21.0000 Du        
   5293 ****         7.2500  21.0000  21.2500 Du        
   5294 ****         7.2500  21.0000  21.5000 Du        
   5295 ****         7.2500  21.0000  21.7500 Du        
   5296 ****         7.2500  21.0000  22.0000 Du        
   5297 ****         7.2500  21.0000  22.2500 Du        
   5298 ****         7.2500  21.0000  22.5000 Du        
   5299 ****         7.2500  21.0000  22.7500 Du        
   5300 ****         7.2500  21.0000  23.0000 Du        
   5301 ****         7.2500  21.0000  23.2500 Du        
   5302 ****         7.2500  21.0000  23.5000 Du        
   5303 ****         7.2500  21.0000  23.7500 Du        
   5304 ****         7.2500  21.0000  24.0000 Du        
   5305 ****         7.2500  21.0000  24.2500 Du        
   5306 ****         7.2500  21.0000  24.5000 Du        
   5307 ****         7.2500  21.2500  21.0000 Du        
   5308 ****         7.2500  21.2500  21.2500 Du        
   5309 ****         7.2500  21.2500  21.5000 Du        
   5310 ****         7.2500  21.2500  21.7500 Du        
   5311 ****         7.2500  21.2500  22.0000 Du        
   5312 ****         7.2500  21.2500  22.2500 Du        
   5313 ****         7.2500  21.2500  22.5000 Du        
   5314 ****         7.2500  21.2500  22.7500 Du        
   5315 ****         7.2500  21.2500  23.0000 Du        
   5316 ****         7.2500  21.2500  23.2500 Du        
   5317 ****         7.2500  21.2500  23.5000 Du        
   5318 ****         7.2500  21.2500  23.7500 Du        
   5319 ****         7.2500  21.2500  24.0000 Du        
   5320 ****         7.2500  21.2500  24.2500 Du        
   5321 ****         7.2500  21.5000  21.2500 Du        
   5322 ****         7.2500  21.5000  21.5000 Du        
   5323 ****         7.2500  21.5000  21.7500 Du        
   5324 ****         7.2500  21.5000  22.0000 Du        
   5325 ****         7.2500  21.5000  22.2500 Du        
   5326 ****         7.2500  21.5000  22.5000 Du        
   5327 ****         7.2500  21.5000  22.7500 Du        
   5328 ****         7.2500  21.5000  23.0000 Du        
   5329 ****         7.2500  21.5000  23.2500 Du        
   5330 ****         7.2500  21.5000  23.5000 Du        
   5331 ****         7.2500  21.5000  23.7500 Du        
   5332 ****         7.2500  21.7500  21.7500 Du        
   5333 ****         7.2500  21.7500  22.0000 Du        
   5334 ****         7.2500  21.7500  22.2500 Du        
   5335 ****         7.2500  21.7500  22.5000 Du        
   5336 ****         7.2500  21.7500  22.7500 Du        
   5337 ****         7.2500  21.7500  23.0000 Du        
   5338 ****         7.2500  21.7500  23.2500 Du        
   5339 ****         7.2500  22.0000  22.2500 Du        
   5340 ****         7.2500  22.0000  22.5000 Du        
   5341 ****         7.2500  22.0000  22.7500 Du        
   5342 ****         7.2500  22.0000  23.0000 Du        
   5343 ****         7.2500  31.5000  13.5000 Du        
   5344 ****         7.2500  31.7500  13.0000 Du        
   5345 ****         7.2500  31.7500  13.2500 Du        
   5346 ****         7.2500  31.7500  13.5000 Du        
   5347 ****         7.2500  31.7500  13.7500 Du        
   5348 ****         7.2500  32.0000  12.7500 Du        
   5349 ****         7.2500  32.0000  13.0000 Du        
   5350 ****         7.2500  32.0000  13.2500 Du        
   5351 ****         7.2500  32.0000  13.5000 Du        
   5352 ****         7.2500  32.0000  13.7500 Du        
   5353 ****         7.2500  32.0000  14.0000 Du        
   5354 ****         7.2500  32.2500  12.0000 Du        
   5355 ****         7.2500  32.2500  12.2500 Du        
   5356 ****         7.2500  32.2500  12.5000 Du        
   5357 ****         7.2500  32.2500  12.7500 Du        
   5358 ****         7.2500  32.2500  13.0000 Du        
   5359 ****         7.2500  32.2500  13.2500 Du        
   5360 ****         7.2500  32.2500  13.5000 Du        
   5361 ****         7.2500  32.2500  13.7500 Du        
   5362 ****         7.2500  32.2500  14.0000 Du        
   5363 ****         7.2500  32.5000  11.5000 Du        
   5364 ****         7.2500  32.5000  11.7500 Du        
   5365 ****         7.2500  32.5000  12.0000 Du        
   5366 ****         7.2500  32.5000  12.2500 Du        
   5367 ****         7.2500  32.5000  12.5000 Du        
   5368 ****         7.2500  32.5000  12.7500 Du        
   5369 ****         7.2500  32.5000  13.0000 Du        
   5370 ****         7.2500  32.5000  13.2500 Du        
   5371 ****         7.2500  32.5000  13.5000 Du        
   5372 ****         7.2500  32.5000  13.7500 Du        
   5373 ****         7.2500  32.5000  14.0000 Du        
   5374 ****         7.2500  32.7500  11.2500 Du        
   5375 ****         7.2500  32.7500  11.5000 Du        
   5376 ****         7.2500  32.7500  11.7500 Du        
   5377 ****         7.2500  32.7500  12.0000 Du        
   5378 ****         7.2500  32.7500  12.2500 Du        
   5379 ****         7.2500  32.7500  12.5000 Du        
   5380 ****         7.2500  32.7500  12.7500 Du        
   5381 ****         7.2500  32.7500  13.0000 Du        
   5382 ****         7.2500  32.7500  13.2500 Du        
   5383 ****         7.2500  32.7500  13.5000 Du        
   5384 ****         7.2500  32.7500  13.7500 Du        
   5385 ****         7.2500  32.7500  14.0000 Du        
   5386 ****         7.2500  33.0000  11.2500 Du        
   5387 ****         7.2500  33.0000  11.5000 Du        
   5388 ****         7.2500  33.0000  11.7500 Du        
   5389 ****         7.2500  33.0000  12.0000 Du        
   5390 ****         7.2500  33.0000  12.2500 Du        
   5391 ****         7.2500  33.0000  12.5000 Du        
   5392 ****         7.2500  33.0000  12.7500 Du        
   5393 ****         7.2500  33.0000  13.0000 Du        
   5394 ****         7.2500  33.0000  13.2500 Du        
   5395 ****         7.2500  33.0000  13.5000 Du        
   5396 ****         7.2500  33.0000  13.7500 Du        
   5397 ****         7.2500  33.2500  11.2500 Du        
   5398 ****         7.2500  33.2500  11.5000 Du        
   5399 ****         7.2500  33.2500  11.7500 Du        
   5400 ****         7.2500  33.2500  12.0000 Du        
   5401 ****         7.2500  33.2500  12.2500 Du        
   5402 ****         7.2500  33.2500  12.5000 Du        
   5403 ****         7.2500  33.2500  12.7500 Du        
   5404 ****         7.2500  33.2500  13.0000 Du        
   5405 ****         7.2500  33.2500  13.2500 Du        
   5406 ****         7.2500  33.2500  13.5000 Du        
   5407 ****         7.2500  33.5000  11.2500 Du        
   5408 ****         7.2500  33.5000  11.5000 Du        
   5409 ****         7.2500  33.5000  11.7500 Du        
   5410 ****         7.2500  33.5000  12.0000 Du        
   5411 ****         7.2500  33.5000  12.2500 Du        
   5412 ****         7.2500  33.5000  12.5000 Du        
   5413 ****         7.2500  33.5000  12.7500 Du        
   5414 ****         7.2500  33.5000  13.0000 Du        
   5415 ****         7.2500  33.5000  13.2500 Du        
   5416 ****         7.2500  33.5000  13.5000 Du        
   5417 ****         7.2500  33.7500  11.2500 Du        
   5418 ****         7.2500  33.7500  11.5000 Du        
   5419 ****         7.2500  33.7500  11.7500 Du        
   5420 ****         7.2500  33.7500  12.0000 Du        
   5421 ****         7.2500  33.7500  12.2500 Du        
   5422 ****         7.2500  33.7500  12.5000 Du        
   5423 ****         7.2500  33.7500  12.7500 Du        
   5424 ****         7.2500  33.7500  13.0000 Du        
   5425 ****         7.2500  33.7500  13.2500 Du        
   5426 ****         7.2500  34.0000  11.2500 Du        
   5427 ****         7.2500  34.0000  11.5000 Du        
   5428 ****         7.2500  34.0000  11.7500 Du        
   5429 ****         7.2500  34.0000  12.0000 Du        
   5430 ****         7.2500  34.0000  12.2500 Du        
   5431 ****         7.2500  34.0000  12.5000 Du        
   5432 ****         7.2500  34.0000  12.7500 Du        
   5433 ****         7.2500  34.0000  13.0000 Du        
   5434 ****         7.2500  34.2500  11.2500 Du        
   5435 ****         7.2500  34.2500  11.5000 Du        
   5436 ****         7.2500  34.2500  11.7500 Du        
   5437 ****         7.2500  34.2500  12.0000 Du        
   5438 ****         7.2500  34.2500  12.2500 Du        
   5439 ****         7.2500  34.2500  12.5000 Du        
   5440 ****         7.2500  34.2500  12.7500 Du        
   5441 ****         7.2500  34.5000  11.2500 Du        
   5442 ****         7.2500  34.5000  11.5000 Du        
   5443 ****         7.2500  34.5000  11.7500 Du        
   5444 ****         7.2500  34.5000  12.0000 Du        
   5445 ****         7.2500  34.5000  12.2500 Du        
   5446 ****         7.2500  34.7500  11.5000 Du        
   5447 ****         7.2500  34.7500  11.7500 Du        
   5448 ****         7.2500  34.7500  12.0000 Du        
   5449 ****         7.2500  34.7500  12.2500 Du        
   5450 ****         7.2500  35.0000  11.5000 Du        
   5451 ****         7.2500  35.0000  11.7500 Du        
   5452 ****         7.2500  35.0000  12.0000 Du        
   5453 ****         7.2500  35.0000  12.2500 Du        
   5454 ****         7.2500  35.2500  11.7500 Du        
   5455 ****         7.2500  35.2500  12.0000 Du        
   5456 ****         7.2500  35.2500  12.2500 Du        
   5457 ****         7.2500  35.2500  12.5000 Du        
   5458 ****         7.2500  35.5000  11.7500 Du        
   5459 ****         7.2500  35.5000  12.0000 Du        
   5460 ****         7.2500  35.5000  12.2500 Du        
   5461 ****         7.2500  35.5000  12.5000 Du        
   5462 ****         7.2500  35.7500  12.0000 Du        
   5463 ****         7.2500  35.7500  12.2500 Du        
   5464 ****         7.2500  35.7500  12.5000 Du        
   5465 ****         7.2500  35.7500  12.7500 Du        
   5466 ****         7.2500  35.7500  13.0000 Du        
   5467 ****         7.2500  36.0000  12.0000 Du        
   5468 ****         7.2500  36.0000  12.2500 Du        
   5469 ****         7.2500  36.0000  12.5000 Du        
   5470 ****         7.2500  36.0000  12.7500 Du        
   5471 ****         7.2500  36.0000  13.0000 Du        
   5472 ****         7.2500  36.0000  13.2500 Du        
   5473 ****         7.2500  36.2500  12.0000 Du        
   5474 ****         7.2500  36.2500  12.2500 Du        
   5475 ****         7.2500  36.2500  12.5000 Du        
   5476 ****         7.2500  36.2500  12.7500 Du        
   5477 ****         7.2500  36.2500  13.0000 Du        
   5478 ****         7.2500  36.2500  13.2500 Du        
   5479 ****         7.2500  36.5000  12.2500 Du        
   5480 ****         7.2500  36.5000  12.5000 Du        
   5481 ****         7.2500  36.5000  12.7500 Du        
   5482 ****         7.2500  36.5000  13.0000 Du        
   5483 ****         7.2500  36.5000  13.2500 Du        
   5484 ****         7.2500  36.7500  12.2500 Du        
   5485 ****         7.2500  36.7500  12.5000 Du        
   5486 ****         7.2500  36.7500  12.7500 Du        
   5487 ****         7.2500  36.7500  13.0000 Du        
   5488 ****         7.2500  36.7500  13.2500 Du        
   5489 ****         7.2500  37.0000  12.2500 Du        
   5490 ****         7.2500  37.0000  12.5000 Du        
   5491 ****         7.2500  37.0000  12.7500 Du        
   5492 ****         7.2500  37.0000  13.0000 Du        
   5493 ****         7.2500  37.0000  13.2500 Du        
   5494 ****         7.2500  37.2500  12.2500 Du        
   5495 ****         7.2500  37.2500  12.5000 Du        
   5496 ****         7.2500  37.2500  12.7500 Du        
   5497 ****         7.2500  37.2500  13.0000 Du        
   5498 ****         7.2500  37.5000  12.2500 Du        
   5499 ****         7.2500  37.5000  12.5000 Du        
   5500 ****         7.2500  37.5000  12.7500 Du        
   5501 ****         7.2500  37.7500  12.2500 Du        
   5502 ****         7.2500  37.7500  12.5000 Du        
   5503 ****         7.2500  37.7500  12.7500 Du        
   5504 ****         7.2500  38.0000  12.2500 Du        
   5505 ****         7.2500  38.0000  12.5000 Du        
   5506 ****         7.2500  38.0000  12.7500 Du        
   5507 ****         7.2500  38.2500  12.2500 Du        
   5508 ****         7.2500  38.2500  12.5000 Du        
   5509 ****         7.2500  38.2500  12.7500 Du        
   5510 ****         7.2500  38.5000  12.5000 Du        
   5511 ****         7.5000  12.5000  21.7500 Du        
   5512 ****         7.5000  12.5000  22.0000 Du        
   5513 ****         7.5000  12.7500  22.0000 Du        
   5514 ****         7.5000  19.0000  23.2500 Du        
   5515 ****         7.5000  19.0000  24.0000 Du        
   5516 ****         7.5000  19.2500  22.7500 Du        
   5517 ****         7.5000  19.2500  23.0000 Du        
   5518 ****         7.5000  19.2500  23.2500 Du        
   5519 ****         7.5000  19.2500  23.7500 Du        
   5520 ****         7.5000  19.2500  24.0000 Du        
   5521 ****         7.5000  19.5000  22.7500 Du        
   5522 ****         7.5000  19.5000  23.0000 Du        
   5523 ****         7.5000  19.5000  23.2500 Du        
   5524 ****         7.5000  19.5000  23.5000 Du        
   5525 ****         7.5000  19.5000  23.7500 Du        
   5526 ****         7.5000  19.5000  24.0000 Du        
   5527 ****         7.5000  19.7500  22.0000 Du        
   5528 ****         7.5000  19.7500  22.2500 Du        
   5529 ****         7.5000  19.7500  22.5000 Du        
   5530 ****         7.5000  19.7500  22.7500 Du        
   5531 ****         7.5000  19.7500  23.0000 Du        
   5532 ****         7.5000  19.7500  23.2500 Du        
   5533 ****         7.5000  19.7500  23.5000 Du        
   5534 ****         7.5000  19.7500  23.7500 Du        
   5535 ****         7.5000  19.7500  24.0000 Du        
   5536 ****         7.5000  19.7500  24.2500 Du        
   5537 ****         7.5000  20.0000  21.7500 Du        
   5538 ****         7.5000  20.0000  22.0000 Du        
   5539 ****         7.5000  20.0000  22.2500 Du        
   5540 ****         7.5000  20.0000  22.5000 Du        
   5541 ****         7.5000  20.0000  22.7500 Du        
   5542 ****         7.5000  20.0000  23.0000 Du        
   5543 ****         7.5000  20.0000  23.2500 Du        
   5544 ****         7.5000  20.0000  23.5000 Du        
   5545 ****         7.5000  20.0000  23.7500 Du        
   5546 ****         7.5000  20.0000  24.0000 Du        
   5547 ****         7.5000  20.0000  24.2500 Du        
   5548 ****         7.5000  20.2500  21.5000 Du        
   5549 ****         7.5000  20.2500  21.7500 Du        
   5550 ****         7.5000  20.2500  22.0000 Du        
   5551 ****         7.5000  20.2500  22.2500 Du        
   5552 ****         7.5000  20.2500  22.5000 Du        
   5553 ****         7.5000  20.2500  22.7500 Du        
   5554 ****         7.5000  20.2500  23.0000 Du        
   5555 ****         7.5000  20.2500  23.2500 Du        
   5556 ****         7.5000  20.2500  23.5000 Du        
   5557 ****         7.5000  20.2500  23.7500 Du        
   5558 ****         7.5000  20.2500  24.0000 Du        
   5559 ****         7.5000  20.2500  24.2500 Du        
   5560 ****         7.5000  20.5000  21.5000 Du        
   5561 ****         7.5000  20.5000  21.7500 Du        
   5562 ****         7.5000  20.5000  22.0000 Du        
   5563 ****         7.5000  20.5000  22.2500 Du        
   5564 ****         7.5000  20.5000  22.5000 Du        
   5565 ****         7.5000  20.5000  22.7500 Du        
   5566 ****         7.5000  20.5000  23.0000 Du        
   5567 ****         7.5000  20.5000  23.2500 Du        
   5568 ****         7.5000  20.5000  23.5000 Du        
   5569 ****         7.5000  20.5000  23.7500 Du        
   5570 ****         7.5000  20.5000  24.0000 Du        
   5571 ****         7.5000  20.5000  24.2500 Du        
   5572 ****         7.5000  20.5000  24.5000 Du        
   5573 ****         7.5000  20.7500  21.2500 Du        
   5574 ****         7.5000  20.7500  21.5000 Du        
   5575 ****         7.5000  20.7500  21.7500 Du        
   5576 ****         7.5000  20.7500  22.0000 Du        
   5577 ****         7.5000  20.7500  22.2500 Du        
   5578 ****         7.5000  20.7500  22.5000 Du        
   5579 ****         7.5000  20.7500  22.7500 Du        
   5580 ****         7.5000  20.7500  23.0000 Du        
   5581 ****         7.5000  20.7500  23.2500 Du        
   5582 ****         7.5000  20.7500  23.5000 Du        
   5583 ****         7.5000  20.7500  23.7500 Du        
   5584 ****         7.5000  20.7500  24.0000 Du        
   5585 ****         7.5000  20.7500  24.2500 Du        
   5586 ****         7.5000  20.7500  24.5000 Du        
   5587 ****         7.5000  21.0000  21.0000 Du        
   5588 ****         7.5000  21.0000  21.2500 Du        
   5589 ****         7.5000  21.0000  21.5000 Du        
   5590 ****         7.5000  21.0000  21.7500 Du        
   5591 ****         7.5000  21.0000  22.0000 Du        
   5592 ****         7.5000  21.0000  22.2500 Du        
   5593 ****         7.5000  21.0000  22.5000 Du        
   5594 ****         7.5000  21.0000  22.7500 Du        
   5595 ****         7.5000  21.0000  23.0000 Du        
   5596 ****         7.5000  21.0000  23.2500 Du        
   5597 ****         7.5000  21.0000  23.5000 Du        
   5598 ****         7.5000  21.0000  23.7500 Du        
   5599 ****         7.5000  21.0000  24.0000 Du        
   5600 ****         7.5000  21.0000  24.2500 Du        
   5601 ****         7.5000  21.2500  21.0000 Du        
   5602 ****         7.5000  21.2500  21.2500 Du        
   5603 ****         7.5000  21.2500  21.5000 Du        
   5604 ****         7.5000  21.2500  21.7500 Du        
   5605 ****         7.5000  21.2500  22.0000 Du        
   5606 ****         7.5000  21.2500  22.2500 Du        
   5607 ****         7.5000  21.2500  22.5000 Du        
   5608 ****         7.5000  21.2500  22.7500 Du        
   5609 ****         7.5000  21.2500  23.0000 Du        
   5610 ****         7.5000  21.2500  23.2500 Du        
   5611 ****         7.5000  21.2500  23.5000 Du        
   5612 ****         7.5000  21.2500  23.7500 Du        
   5613 ****         7.5000  21.2500  24.0000 Du        
   5614 ****         7.5000  21.5000  21.2500 Du        
   5615 ****         7.5000  21.5000  21.5000 Du        
   5616 ****         7.5000  21.5000  21.7500 Du        
   5617 ****         7.5000  21.5000  22.0000 Du        
   5618 ****         7.5000  21.5000  22.2500 Du        
   5619 ****         7.5000  21.5000  22.5000 Du        
   5620 ****         7.5000  21.5000  22.7500 Du        
   5621 ****         7.5000  21.5000  23.0000 Du        
   5622 ****         7.5000  21.5000  23.2500 Du        
   5623 ****         7.5000  21.5000  23.5000 Du        
   5624 ****         7.5000  21.7500  21.7500 Du        
   5625 ****         7.5000  21.7500  22.0000 Du        
   5626 ****         7.5000  21.7500  22.2500 Du        
   5627 ****         7.5000  21.7500  22.5000 Du        
   5628 ****         7.5000  21.7500  22.7500 Du        
   5629 ****         7.5000  21.7500  23.0000 Du        
   5630 ****         7.5000  22.0000  22.0000 Du        
   5631 ****         7.5000  22.0000  22.2500 Du        
   5632 ****         7.5000  22.0000  22.5000 Du        
   5633 ****         7.5000  22.0000  22.7500 Du        
   5634 ****         7.5000  31.7500  13.2500 Du        
   5635 ****         7.5000  31.7500  13.5000 Du        
   5636 ****         7.5000  31.7500  13.7500 Du        
   5637 ****         7.5000  32.0000  13.0000 Du        
   5638 ****         7.5000  32.0000  13.2500 Du        
   5639 ****         7.5000  32.0000  13.5000 Du        
   5640 ****         7.5000  32.0000  13.7500 Du        
   5641 ****         7.5000  32.2500  12.5000 Du        
   5642 ****         7.5000  32.2500  12.7500 Du        
   5643 ****         7.5000  32.2500  13.0000 Du        
   5644 ****         7.5000  32.2500  13.2500 Du        
   5645 ****         7.5000  32.2500  13.5000 Du        
   5646 ****         7.5000  32.2500  13.7500 Du        
   5647 ****         7.5000  32.2500  14.0000 Du        
   5648 ****         7.5000  32.5000  11.7500 Du        
   5649 ****         7.5000  32.5000  12.0000 Du        
   5650 ****         7.5000  32.5000  12.2500 Du        
   5651 ****         7.5000  32.5000  12.5000 Du        
   5652 ****         7.5000  32.5000  12.7500 Du        
   5653 ****         7.5000  32.5000  13.0000 Du        
   5654 ****         7.5000  32.5000  13.2500 Du        
   5655 ****         7.5000  32.5000  13.5000 Du        
   5656 ****         7.5000  32.5000  13.7500 Du        
   5657 ****         7.5000  32.5000  14.0000 Du        
   5658 ****         7.5000  32.7500  11.5000 Du        
   5659 ****         7.5000  32.7500  11.7500 Du        
   5660 ****         7.5000  32.7500  12.0000 Du        
   5661 ****         7.5000  32.7500  12.2500 Du        
   5662 ****         7.5000  32.7500  12.5000 Du        
   5663 ****         7.5000  32.7500  12.7500 Du        
   5664 ****         7.5000  32.7500  13.0000 Du        
   5665 ****         7.5000  32.7500  13.2500 Du        
   5666 ****         7.5000  32.7500  13.5000 Du        
   5667 ****         7.5000  32.7500  13.7500 Du        
   5668 ****         7.5000  32.7500  14.0000 Du        
   5669 ****         7.5000  33.0000  11.2500 Du        
   5670 ****         7.5000  33.0000  11.5000 Du        
   5671 ****         7.5000  33.0000  11.7500 Du        
   5672 ****         7.5000  33.0000  12.0000 Du        
   5673 ****         7.5000  33.0000  12.2500 Du        
   5674 ****         7.5000  33.0000  12.5000 Du        
   5675 ****         7.5000  33.0000  12.7500 Du        
   5676 ****         7.5000  33.0000  13.0000 Du        
   5677 ****         7.5000  33.0000  13.2500 Du        
   5678 ****         7.5000  33.0000  13.5000 Du        
   5679 ****         7.5000  33.0000  13.7500 Du        
   5680 ****         7.5000  33.0000  14.0000 Du        
   5681 ****         7.5000  33.2500  11.2500 Du        
   5682 ****         7.5000  33.2500  11.5000 Du        
   5683 ****         7.5000  33.2500  11.7500 Du        
   5684 ****         7.5000  33.2500  12.0000 Du        
   5685 ****         7.5000  33.2500  12.2500 Du        
   5686 ****         7.5000  33.2500  12.5000 Du        
   5687 ****         7.5000  33.2500  12.7500 Du        
   5688 ****         7.5000  33.2500  13.0000 Du        
   5689 ****         7.5000  33.2500  13.2500 Du        
   5690 ****         7.5000  33.2500  13.5000 Du        
   5691 ****         7.5000  33.2500  13.7500 Du        
   5692 ****         7.5000  33.5000  11.2500 Du        
   5693 ****         7.5000  33.5000  11.5000 Du        
   5694 ****         7.5000  33.5000  11.7500 Du        
   5695 ****         7.5000  33.5000  12.0000 Du        
   5696 ****         7.5000  33.5000  12.2500 Du        
   5697 ****         7.5000  33.5000  12.5000 Du        
   5698 ****         7.5000  33.7500  11.2500 Du        
   5699 ****         7.5000  33.7500  11.5000 Du        
   5700 ****         7.5000  33.7500  11.7500 Du        
   5701 ****         7.5000  33.7500  12.0000 Du        
   5702 ****         7.5000  33.7500  12.2500 Du        
   5703 ****         7.5000  34.0000  11.2500 Du        
   5704 ****         7.5000  34.0000  11.5000 Du        
   5705 ****         7.5000  34.0000  11.7500 Du        
   5706 ****         7.5000  34.0000  12.0000 Du        
   5707 ****         7.5000  34.2500  11.2500 Du        
   5708 ****         7.5000  34.2500  11.5000 Du        
   5709 ****         7.5000  34.2500  11.7500 Du        
   5710 ****         7.5000  34.2500  12.0000 Du        
   5711 ****         7.5000  34.5000  11.2500 Du        
   5712 ****         7.5000  34.5000  11.5000 Du        
   5713 ****         7.5000  34.5000  11.7500 Du        
   5714 ****         7.5000  34.7500  11.5000 Du        
   5715 ****         7.5000  34.7500  11.7500 Du        
   5716 ****         7.5000  35.0000  11.5000 Du        
   5717 ****         7.5000  35.0000  11.7500 Du        
   5718 ****         7.7500  12.5000  21.7500 Du        
   5719 ****         7.7500  12.5000  22.0000 Du        
   5720 ****         7.7500  12.7500  22.0000 Du        
   5721 ****         7.7500  19.0000   4.0000 Du        
   5722 ****         7.7500  19.0000  23.2500 Du        
   5723 ****         7.7500  19.0000  24.0000 Du        
   5724 ****         7.7500  19.2500  23.0000 Du        
   5725 ****         7.7500  19.2500  23.2500 Du        
   5726 ****         7.7500  19.2500  23.7500 Du        
   5727 ****         7.7500  19.2500  24.0000 Du        
   5728 ****         7.7500  19.5000  23.0000 Du        
   5729 ****         7.7500  19.5000  23.2500 Du        
   5730 ****         7.7500  19.5000  23.7500 Du        
   5731 ****         7.7500  19.5000  24.0000 Du        
   5732 ****         7.7500  19.5000  24.2500 Du        
   5733 ****         7.7500  19.7500  22.7500 Du        
   5734 ****         7.7500  19.7500  23.0000 Du        
   5735 ****         7.7500  19.7500  23.2500 Du        
   5736 ****         7.7500  19.7500  23.5000 Du        
   5737 ****         7.7500  19.7500  23.7500 Du        
   5738 ****         7.7500  19.7500  24.0000 Du        
   5739 ****         7.7500  19.7500  24.2500 Du        
   5740 ****         7.7500  20.0000  22.2500 Du        
   5741 ****         7.7500  20.0000  22.5000 Du        
   5742 ****         7.7500  20.0000  22.7500 Du        
   5743 ****         7.7500  20.0000  23.0000 Du        
   5744 ****         7.7500  20.0000  23.2500 Du        
   5745 ****         7.7500  20.0000  23.5000 Du        
   5746 ****         7.7500  20.0000  23.7500 Du        
   5747 ****         7.7500  20.0000  24.0000 Du        
   5748 ****         7.7500  20.0000  24.2500 Du        
   5749 ****         7.7500  20.2500  22.0000 Du        
   5750 ****         7.7500  20.2500  22.2500 Du        
   5751 ****         7.7500  20.2500  22.5000 Du        
   5752 ****         7.7500  20.2500  22.7500 Du        
   5753 ****         7.7500  20.2500  23.0000 Du        
   5754 ****         7.7500  20.2500  23.2500 Du        
   5755 ****         7.7500  20.2500  23.5000 Du        
   5756 ****         7.7500  20.2500  23.7500 Du        
   5757 ****         7.7500  20.2500  24.0000 Du        
   5758 ****         7.7500  20.2500  24.2500 Du        
   5759 ****         7.7500  20.5000  22.0000 Du        
   5760 ****         7.7500  20.5000  22.2500 Du        
   5761 ****         7.7500  20.5000  22.5000 Du        
   5762 ****         7.7500  20.5000  22.7500 Du        
   5763 ****         7.7500  20.5000  23.0000 Du        
   5764 ****         7.7500  20.5000  23.2500 Du        
   5765 ****         7.7500  20.5000  23.5000 Du        
   5766 ****         7.7500  20.5000  23.7500 Du        
   5767 ****         7.7500  20.5000  24.0000 Du        
   5768 ****         7.7500  20.5000  24.2500 Du        
   5769 ****         7.7500  20.5000  24.5000 Du        
   5770 ****         7.7500  20.7500  21.7500 Du        
   5771 ****         7.7500  20.7500  22.0000 Du        
   5772 ****         7.7500  20.7500  22.2500 Du        
   5773 ****         7.7500  20.7500  22.5000 Du        
   5774 ****         7.7500  20.7500  22.7500 Du        
   5775 ****         7.7500  20.7500  23.0000 Du        
   5776 ****         7.7500  20.7500  23.2500 Du        
   5777 ****         7.7500  20.7500  23.5000 Du        
   5778 ****         7.7500  20.7500  23.7500 Du        
   5779 ****         7.7500  20.7500  24.0000 Du        
   5780 ****         7.7500  20.7500  24.2500 Du        
   5781 ****         7.7500  20.7500  24.5000 Du        
   5782 ****         7.7500  20.7500  24.7500 Du        
   5783 ****         7.7500  21.0000  21.2500 Du        
   5784 ****         7.7500  21.0000  21.5000 Du        
   5785 ****         7.7500  21.0000  21.7500 Du        
   5786 ****         7.7500  21.0000  22.0000 Du        
   5787 ****         7.7500  21.0000  22.2500 Du        
   5788 ****         7.7500  21.0000  22.5000 Du        
   5789 ****         7.7500  21.0000  22.7500 Du        
   5790 ****         7.7500  21.0000  23.0000 Du        
   5791 ****         7.7500  21.0000  23.2500 Du        
   5792 ****         7.7500  21.0000  23.5000 Du        
   5793 ****         7.7500  21.0000  23.7500 Du        
   5794 ****         7.7500  21.0000  24.0000 Du        
   5795 ****         7.7500  21.0000  24.2500 Du        
   5796 ****         7.7500  21.0000  24.5000 Du        
   5797 ****         7.7500  21.0000  24.7500 Du        
   5798 ****         7.7500  21.2500  21.0000 Du        
   5799 ****         7.7500  21.2500  21.2500 Du        
   5800 ****         7.7500  21.2500  21.5000 Du        
   5801 ****         7.7500  21.2500  21.7500 Du        
   5802 ****         7.7500  21.2500  22.0000 Du        
   5803 ****         7.7500  21.2500  22.2500 Du        
   5804 ****         7.7500  21.2500  22.5000 Du        
   5805 ****         7.7500  21.2500  22.7500 Du        
   5806 ****         7.7500  21.2500  23.0000 Du        
   5807 ****         7.7500  21.2500  23.2500 Du        
   5808 ****         7.7500  21.2500  23.5000 Du        
   5809 ****         7.7500  21.2500  23.7500 Du        
   5810 ****         7.7500  21.2500  24.0000 Du        
   5811 ****         7.7500  21.5000  21.2500 Du        
   5812 ****         7.7500  21.5000  21.5000 Du        
   5813 ****         7.7500  21.5000  21.7500 Du        
   5814 ****         7.7500  21.5000  22.0000 Du        
   5815 ****         7.7500  21.5000  22.2500 Du        
   5816 ****         7.7500  21.5000  22.5000 Du        
   5817 ****         7.7500  21.5000  22.7500 Du        
   5818 ****         7.7500  21.5000  23.0000 Du        
   5819 ****         7.7500  21.5000  23.2500 Du        
   5820 ****         7.7500  21.5000  23.5000 Du        
   5821 ****         7.7500  21.7500  21.5000 Du        
   5822 ****         7.7500  21.7500  21.7500 Du        
   5823 ****         7.7500  21.7500  22.0000 Du        
   5824 ****         7.7500  21.7500  22.2500 Du        
   5825 ****         7.7500  21.7500  22.5000 Du        
   5826 ****         7.7500  21.7500  22.7500 Du        
   5827 ****         7.7500  21.7500  23.0000 Du        
   5828 ****         7.7500  22.0000  22.0000 Du        
   5829 ****         7.7500  22.0000  22.2500 Du        
   5830 ****         7.7500  22.0000  22.5000 Du        
   5831 ****         7.7500  22.0000  22.7500 Du        
   5832 ****         7.7500  22.2500  22.2500 Du        
   5833 ****         7.7500  31.7500  13.5000 Du        
   5834 ****         7.7500  32.0000  13.2500 Du        
   5835 ****         7.7500  32.0000  13.5000 Du        
   5836 ****         7.7500  32.0000  13.7500 Du        
   5837 ****         7.7500  32.2500  12.7500 Du        
   5838 ****         7.7500  32.2500  13.0000 Du        
   5839 ****         7.7500  32.2500  13.2500 Du        
   5840 ****         7.7500  32.2500  13.5000 Du        
   5841 ****         7.7500  32.2500  13.7500 Du        
   5842 ****         7.7500  32.5000  12.2500 Du        
   5843 ****         7.7500  32.5000  12.5000 Du        
   5844 ****         7.7500  32.5000  12.7500 Du        
   5845 ****         7.7500  32.5000  13.0000 Du        
   5846 ****         7.7500  32.5000  13.2500 Du        
   5847 ****         7.7500  32.5000  13.5000 Du        
   5848 ****         7.7500  32.5000  13.7500 Du        
   5849 ****         7.7500  32.5000  14.0000 Du        
   5850 ****         7.7500  32.7500  11.5000 Du        
   5851 ****         7.7500  32.7500  11.7500 Du        
   5852 ****         7.7500  32.7500  12.0000 Du        
   5853 ****         7.7500  32.7500  12.2500 Du        
   5854 ****         7.7500  32.7500  12.5000 Du        
   5855 ****         7.7500  32.7500  12.7500 Du        
   5856 ****         7.7500  32.7500  13.0000 Du        
   5857 ****         7.7500  32.7500  13.2500 Du        
   5858 ****         7.7500  32.7500  13.5000 Du        
   5859 ****         7.7500  32.7500  13.7500 Du        
   5860 ****         7.7500  32.7500  14.0000 Du        
   5861 ****         7.7500  33.0000  11.2500 Du        
   5862 ****         7.7500  33.0000  11.5000 Du        
   5863 ****         7.7500  33.0000  11.7500 Du        
   5864 ****         7.7500  33.0000  12.0000 Du        
   5865 ****         7.7500  33.0000  12.2500 Du        
   5866 ****         7.7500  33.0000  12.5000 Du        
   5867 ****         7.7500  33.0000  12.7500 Du        
   5868 ****         7.7500  33.0000  13.0000 Du        
   5869 ****         7.7500  33.0000  13.2500 Du        
   5870 ****         7.7500  33.0000  13.5000 Du        
   5871 ****         7.7500  33.0000  13.7500 Du        
   5872 ****         7.7500  33.2500  11.2500 Du        
   5873 ****         7.7500  33.2500  11.5000 Du        
   5874 ****         7.7500  33.2500  11.7500 Du        
   5875 ****         7.7500  33.2500  12.0000 Du        
   5876 ****         7.7500  33.2500  12.2500 Du        
   5877 ****         7.7500  33.5000  11.2500 Du        
   5878 ****         7.7500  33.5000  11.5000 Du        
   5879 ****         7.7500  33.5000  11.7500 Du        
   5880 ****         7.7500  33.5000  12.0000 Du        
   5881 ****         7.7500  33.7500  11.2500 Du        
   5882 ****         7.7500  33.7500  11.5000 Du        
   5883 ****         7.7500  33.7500  11.7500 Du        
   5884 ****         7.7500  34.0000  11.2500 Du        
   5885 ****         7.7500  34.0000  11.5000 Du        
   5886 ****         7.7500  34.2500  11.2500 Du        
   5887 ****         7.7500  34.2500  11.5000 Du        
   5888 ****         8.0000  12.0000  21.2500 Du        
   5889 ****         8.0000  12.2500  21.2500 Du        
   5890 ****         8.0000  12.2500  21.7500 Du        
   5891 ****         8.0000  12.5000  21.7500 Du        
   5892 ****         8.0000  12.5000  22.0000 Du        
   5893 ****         8.0000  18.5000   4.5000 Du        
   5894 ****         8.0000  18.7500   3.7500 Du        
   5895 ****         8.0000  18.7500   4.0000 Du        
   5896 ****         8.0000  18.7500   4.2500 Du        
   5897 ****         8.0000  19.0000   3.7500 Du        
   5898 ****         8.0000  19.0000   4.0000 Du        
   5899 ****         8.0000  19.0000   4.2500 Du        
   5900 ****         8.0000  19.2500  23.2500 Du        
   5901 ****         8.0000  19.5000  23.2500 Du        
   5902 ****         8.0000  19.7500  23.0000 Du        
   5903 ****         8.0000  19.7500  23.2500 Du        
   5904 ****         8.0000  19.7500  23.5000 Du        
   5905 ****         8.0000  19.7500  23.7500 Du        
   5906 ****         8.0000  19.7500  24.0000 Du        
   5907 ****         8.0000  19.7500  24.2500 Du        
   5908 ****         8.0000  20.0000  22.7500 Du        
   5909 ****         8.0000  20.0000  23.0000 Du        
   5910 ****         8.0000  20.0000  23.2500 Du        
   5911 ****         8.0000  20.0000  23.5000 Du        
   5912 ****         8.0000  20.0000  23.7500 Du        
   5913 ****         8.0000  20.0000  24.0000 Du        
   5914 ****         8.0000  20.0000  24.2500 Du        
   5915 ****         8.0000  20.2500  22.7500 Du        
   5916 ****         8.0000  20.2500  23.0000 Du        
   5917 ****         8.0000  20.2500  23.2500 Du        
   5918 ****         8.0000  20.2500  23.5000 Du        
   5919 ****         8.0000  20.2500  23.7500 Du        
   5920 ****         8.0000  20.2500  24.0000 Du        
   5921 ****         8.0000  20.2500  24.2500 Du        
   5922 ****         8.0000  20.5000  22.7500 Du        
   5923 ****         8.0000  20.5000  23.0000 Du        
   5924 ****         8.0000  20.5000  23.2500 Du        
   5925 ****         8.0000  20.5000  23.5000 Du        
   5926 ****         8.0000  20.5000  23.7500 Du        
   5927 ****         8.0000  20.5000  24.0000 Du        
   5928 ****         8.0000  20.5000  24.2500 Du        
   5929 ****         8.0000  20.5000  24.5000 Du        
   5930 ****         8.0000  20.7500  22.2500 Du        
   5931 ****         8.0000  20.7500  22.5000 Du        
   5932 ****         8.0000  20.7500  22.7500 Du        
   5933 ****         8.0000  20.7500  23.0000 Du        
   5934 ****         8.0000  20.7500  23.2500 Du        
   5935 ****         8.0000  20.7500  23.5000 Du        
   5936 ****         8.0000  20.7500  23.7500 Du        
   5937 ****         8.0000  20.7500  24.0000 Du        
   5938 ****         8.0000  20.7500  24.2500 Du        
   5939 ****         8.0000  20.7500  24.5000 Du        
   5940 ****         8.0000  20.7500  24.7500 Du        
   5941 ****         8.0000  20.7500  25.0000 Du        
   5942 ****         8.0000  21.0000  22.0000 Du        
   5943 ****         8.0000  21.0000  22.2500 Du        
   5944 ****         8.0000  21.0000  22.5000 Du        
   5945 ****         8.0000  21.0000  22.7500 Du        
   5946 ****         8.0000  21.0000  23.0000 Du        
   5947 ****         8.0000  21.0000  23.2500 Du        
   5948 ****         8.0000  21.0000  23.5000 Du        
   5949 ****         8.0000  21.0000  23.7500 Du        
   5950 ****         8.0000  21.0000  24.0000 Du        
   5951 ****         8.0000  21.0000  24.2500 Du        
   5952 ****         8.0000  21.0000  24.5000 Du        
   5953 ****         8.0000  21.0000  24.7500 Du        
   5954 ****         8.0000  21.2500  21.5000 Du        
   5955 ****         8.0000  21.2500  21.7500 Du        
   5956 ****         8.0000  21.2500  22.0000 Du        
   5957 ****         8.0000  21.2500  22.2500 Du        
   5958 ****         8.0000  21.2500  22.5000 Du        
   5959 ****         8.0000  21.2500  22.7500 Du        
   5960 ****         8.0000  21.2500  23.0000 Du        
   5961 ****         8.0000  21.2500  23.2500 Du        
   5962 ****         8.0000  21.2500  23.5000 Du        
   5963 ****         8.0000  21.2500  23.7500 Du        
   5964 ****         8.0000  21.5000  21.2500 Du        
   5965 ****         8.0000  21.5000  21.5000 Du        
   5966 ****         8.0000  21.5000  21.7500 Du        
   5967 ****         8.0000  21.5000  22.0000 Du        
   5968 ****         8.0000  21.5000  22.2500 Du        
   5969 ****         8.0000  21.5000  22.5000 Du        
   5970 ****         8.0000  21.5000  22.7500 Du        
   5971 ****         8.0000  21.5000  23.0000 Du        
   5972 ****         8.0000  21.7500  21.2500 Du        
   5973 ****         8.0000  21.7500  21.5000 Du        
   5974 ****         8.0000  21.7500  21.7500 Du        
   5975 ****         8.0000  21.7500  22.0000 Du        
   5976 ****         8.0000  21.7500  22.2500 Du        
   5977 ****         8.0000  21.7500  22.5000 Du        
   5978 ****         8.0000  21.7500  22.7500 Du        
   5979 ****         8.0000  21.7500  23.0000 Du        
   5980 ****         8.0000  22.0000  21.7500 Du        
   5981 ****         8.0000  22.0000  22.0000 Du        
   5982 ****         8.0000  22.0000  22.2500 Du        
   5983 ****         8.0000  22.0000  22.5000 Du        
   5984 ****         8.0000  22.0000  22.7500 Du        
   5985 ****         8.0000  22.2500  22.0000 Du        
   5986 ****         8.0000  22.2500  22.2500 Du        
   5987 ****         8.0000  32.0000  13.2500 Du        
   5988 ****         8.0000  32.0000  13.5000 Du        
   5989 ****         8.0000  32.0000  13.7500 Du        
   5990 ****         8.0000  32.2500  13.0000 Du        
   5991 ****         8.0000  32.2500  13.2500 Du        
   5992 ****         8.0000  32.2500  13.5000 Du        
   5993 ****         8.0000  32.2500  13.7500 Du        
   5994 ****         8.0000  32.5000  12.7500 Du        
   5995 ****         8.0000  32.5000  13.0000 Du        
   5996 ****         8.0000  32.5000  13.2500 Du        
   5997 ****         8.0000  32.5000  13.5000 Du        
   5998 ****         8.0000  32.5000  13.7500 Du        
   5999 ****         8.0000  32.7500  12.2500 Du        
   6000 ****         8.0000  33.0000  11.5000 Du        
   6001 ****         8.0000  33.0000  11.7500 Du        
   6002 ****         8.0000  33.0000  12.0000 Du        
   6003 ****         8.0000  33.2500  11.5000 Du        
   6004 ****         8.0000  33.2500  11.7500 Du        
   6005 ****         8.0000  33.5000  11.2500 Du        
   6006 ****         8.0000  33.5000  11.5000 Du        
   6007 ****         8.0000  33.7500  11.2500 Du        
   6008 ****         8.2500  12.0000  21.0000 Du        
   6009 ****         8.2500  12.0000  21.2500 Du        
   6010 ****         8.2500  12.2500  21.0000 Du        
   6011 ****         8.2500  12.2500  21.2500 Du        
   6012 ****         8.2500  12.2500  21.5000 Du        
   6013 ****         8.2500  12.5000  21.2500 Du        
   6014 ****         8.2500  18.5000   3.7500 Du        
   6015 ****         8.2500  18.5000   4.0000 Du        
   6016 ****         8.2500  18.5000   4.2500 Du        
   6017 ****         8.2500  18.5000   4.5000 Du        
   6018 ****         8.2500  18.7500   3.5000 Du        
   6019 ****         8.2500  18.7500   3.7500 Du        
   6020 ****         8.2500  18.7500   4.0000 Du        
   6021 ****         8.2500  18.7500   4.2500 Du        
   6022 ****         8.2500  18.7500   4.5000 Du        
   6023 ****         8.2500  19.0000   3.7500 Du        
   6024 ****         8.2500  19.0000   4.0000 Du        
   6025 ****         8.2500  19.0000   4.2500 Du        
   6026 ****         8.2500  19.7500  23.7500 Du        
   6027 ****         8.2500  19.7500  24.0000 Du        
   6028 ****         8.2500  20.0000  23.2500 Du        
   6029 ****         8.2500  20.0000  23.7500 Du        
   6030 ****         8.2500  20.0000  24.0000 Du        
   6031 ****         8.2500  20.0000  24.2500 Du        
   6032 ****         8.2500  20.2500  23.0000 Du        
   6033 ****         8.2500  20.2500  23.2500 Du        
   6034 ****         8.2500  20.2500  23.5000 Du        
   6035 ****         8.2500  20.2500  23.7500 Du        
   6036 ****         8.2500  20.2500  24.0000 Du        
   6037 ****         8.2500  20.2500  24.2500 Du        
   6038 ****         8.2500  20.5000  23.0000 Du        
   6039 ****         8.2500  20.5000  23.7500 Du        
   6040 ****         8.2500  20.5000  24.0000 Du        
   6041 ****         8.2500  20.5000  24.2500 Du        
   6042 ****         8.2500  20.7500  22.7500 Du        
   6043 ****         8.2500  20.7500  23.0000 Du        
   6044 ****         8.2500  20.7500  23.5000 Du        
   6045 ****         8.2500  20.7500  23.7500 Du        
   6046 ****         8.2500  20.7500  24.0000 Du        
   6047 ****         8.2500  20.7500  24.2500 Du        
   6048 ****         8.2500  21.0000  22.2500 Du        
   6049 ****         8.2500  21.0000  22.5000 Du        
   6050 ****         8.2500  21.0000  22.7500 Du        
   6051 ****         8.2500  21.0000  23.0000 Du        
   6052 ****         8.2500  21.0000  23.5000 Du        
   6053 ****         8.2500  21.0000  23.7500 Du        
   6054 ****         8.2500  21.0000  24.0000 Du        
   6055 ****         8.2500  21.0000  24.2500 Du        
   6056 ****         8.2500  21.2500  22.0000 Du        
   6057 ****         8.2500  21.2500  22.2500 Du        
   6058 ****         8.2500  21.2500  22.5000 Du        
   6059 ****         8.2500  21.2500  22.7500 Du        
   6060 ****         8.2500  21.2500  23.0000 Du        
   6061 ****         8.2500  21.2500  23.2500 Du        
   6062 ****         8.2500  21.2500  23.5000 Du        
   6063 ****         8.2500  21.5000  21.7500 Du        
   6064 ****         8.2500  21.5000  22.0000 Du        
   6065 ****         8.2500  21.5000  22.2500 Du        
   6066 ****         8.2500  21.5000  22.5000 Du        
   6067 ****         8.2500  21.5000  22.7500 Du        
   6068 ****         8.2500  21.5000  23.0000 Du        
   6069 ****         8.2500  21.7500  21.2500 Du        
   6070 ****         8.2500  21.7500  21.5000 Du        
   6071 ****         8.2500  21.7500  21.7500 Du        
   6072 ****         8.2500  21.7500  22.0000 Du        
   6073 ****         8.2500  21.7500  22.2500 Du        
   6074 ****         8.2500  21.7500  22.5000 Du        
   6075 ****         8.2500  21.7500  22.7500 Du        
   6076 ****         8.2500  22.0000  21.5000 Du        
   6077 ****         8.2500  22.0000  21.7500 Du        
   6078 ****         8.2500  22.0000  22.0000 Du        
   6079 ****         8.2500  22.0000  22.2500 Du        
   6080 ****         8.2500  22.0000  22.5000 Du        
   6081 ****         8.2500  22.2500  21.7500 Du        
   6082 ****         8.2500  22.2500  22.0000 Du        
   6083 ****         8.2500  22.2500  22.2500 Du        
   6084 ****         8.2500  32.0000  13.5000 Du        
   6085 ****         8.2500  32.2500  13.5000 Du        
   6086 ****         8.2500  32.2500  13.7500 Du        
   6087 ****         8.2500  36.2500   4.2500 Du        
   6088 ****         8.5000  12.0000  20.0000 Du        
   6089 ****         8.5000  12.0000  20.2500 Du        
   6090 ****         8.5000  12.0000  20.5000 Du        
   6091 ****         8.5000  12.0000  20.7500 Du        
   6092 ****         8.5000  12.0000  21.0000 Du        
   6093 ****         8.5000  12.0000  21.2500 Du        
   6094 ****         8.5000  12.2500  20.7500 Du        
   6095 ****         8.5000  12.2500  21.0000 Du        
   6096 ****         8.5000  12.2500  21.2500 Du        
   6097 ****         8.5000  18.0000   4.5000 Du        
   6098 ****         8.5000  18.0000   4.7500 Du        
   6099 ****         8.5000  18.2500   4.2500 Du        
   6100 ****         8.5000  18.2500   4.5000 Du        
   6101 ****         8.5000  18.2500   4.7500 Du        
   6102 ****         8.5000  18.5000   3.7500 Du        
   6103 ****         8.5000  18.5000   4.0000 Du        
   6104 ****         8.5000  18.5000   4.2500 Du        
   6105 ****         8.5000  18.5000   4.5000 Du        
   6106 ****         8.5000  18.7500   3.5000 Du        
   6107 ****         8.5000  18.7500   3.7500 Du        
   6108 ****         8.5000  18.7500   4.0000 Du        
   6109 ****         8.5000  18.7500   4.2500 Du        
   6110 ****         8.5000  18.7500   4.5000 Du        
   6111 ****         8.5000  19.0000   3.5000 Du        
   6112 ****         8.5000  19.0000   3.7500 Du        
   6113 ****         8.5000  19.0000   4.0000 Du        
   6114 ****         8.5000  19.0000   4.2500 Du        
   6115 ****         8.5000  19.0000   4.5000 Du        
   6116 ****         8.5000  19.2500   3.7500 Du        
   6117 ****         8.5000  19.2500   4.0000 Du        
   6118 ****         8.5000  19.2500   4.2500 Du        
   6119 ****         8.5000  21.7500  22.0000 Du        
   6120 ****         8.5000  21.7500  22.2500 Du        
   6121 ****         8.5000  21.7500  22.5000 Du        
   6122 ****         8.5000  22.0000  21.7500 Du        
   6123 ****         8.5000  22.0000  22.0000 Du        
   6124 ****         8.5000  22.0000  22.2500 Du        
   6125 ****         8.5000  22.2500  22.0000 Du        
   6126 ****         8.5000  24.5000  18.0000 Du        
   6127 ****         8.5000  24.7500  17.7500 Du        
   6128 ****         8.5000  24.7500  18.0000 Du        
   6129 ****         8.5000  25.0000  17.7500 Du        
   6130 ****         8.5000  25.0000  18.0000 Du        
   6131 ****         8.5000  36.0000   4.2500 Du        
   6132 ****         8.5000  36.2500   4.2500 Du        
   6133 ****         8.7500  12.0000  19.5000 Du        
   6134 ****         8.7500  12.0000  19.7500 Du        
   6135 ****         8.7500  12.0000  20.0000 Du        
   6136 ****         8.7500  12.0000  20.2500 Du        
   6137 ****         8.7500  12.0000  20.5000 Du        
   6138 ****         8.7500  12.0000  20.7500 Du        
   6139 ****         8.7500  12.0000  21.0000 Du        
   6140 ****         8.7500  12.0000  21.2500 Du        
   6141 ****         8.7500  12.2500  20.7500 Du        
   6142 ****         8.7500  12.2500  21.0000 Du        
   6143 ****         8.7500  12.2500  21.2500 Du        
   6144 ****         8.7500  18.0000   4.2500 Du        
   6145 ****         8.7500  18.0000   4.5000 Du        
   6146 ****         8.7500  18.0000   4.7500 Du        
   6147 ****         8.7500  18.2500   4.2500 Du        
   6148 ****         8.7500  18.2500   4.5000 Du        
   6149 ****         8.7500  18.2500   4.7500 Du        
   6150 ****         8.7500  18.2500   5.0000 Du        
   6151 ****         8.7500  18.5000   3.5000 Du        
   6152 ****         8.7500  18.5000   3.7500 Du        
   6153 ****         8.7500  18.5000   4.0000 Du        
   6154 ****         8.7500  18.5000   4.2500 Du        
   6155 ****         8.7500  18.5000   4.5000 Du        
   6156 ****         8.7500  18.5000   4.7500 Du        
   6157 ****         8.7500  18.7500   3.5000 Du        
   6158 ****         8.7500  18.7500   3.7500 Du        
   6159 ****         8.7500  18.7500   4.0000 Du        
   6160 ****         8.7500  18.7500   4.2500 Du        
   6161 ****         8.7500  18.7500   4.5000 Du        
   6162 ****         8.7500  18.7500   4.7500 Du        
   6163 ****         8.7500  19.0000   3.2500 Du        
   6164 ****         8.7500  19.0000   3.5000 Du        
   6165 ****         8.7500  19.0000   3.7500 Du        
   6166 ****         8.7500  19.0000   4.0000 Du        
   6167 ****         8.7500  19.0000   4.2500 Du        
   6168 ****         8.7500  19.0000   4.5000 Du        
   6169 ****         8.7500  19.2500   3.5000 Du        
   6170 ****         8.7500  19.2500   3.7500 Du        
   6171 ****         8.7500  19.2500   4.0000 Du        
   6172 ****         8.7500  19.2500   4.2500 Du        
   6173 ****         8.7500  22.0000  21.7500 Du        
   6174 ****         8.7500  22.0000  22.0000 Du        
   6175 ****         8.7500  22.0000  22.2500 Du        
   6176 ****         8.7500  22.2500  21.5000 Du        
   6177 ****         8.7500  22.2500  21.7500 Du        
   6178 ****         8.7500  22.2500  22.0000 Du        
   6179 ****         8.7500  22.5000  21.7500 Du        
   6180 ****         8.7500  22.5000  22.0000 Du        
   6181 ****         8.7500  23.7500  18.0000 Du        
   6182 ****         8.7500  23.7500  18.2500 Du        
   6183 ****         8.7500  24.0000  18.0000 Du        
   6184 ****         8.7500  24.0000  18.2500 Du        
   6185 ****         8.7500  24.0000  18.5000 Du        
   6186 ****         8.7500  24.2500  17.7500 Du        
   6187 ****         8.7500  24.2500  18.0000 Du        
   6188 ****         8.7500  24.2500  18.2500 Du        
   6189 ****         8.7500  24.2500  18.5000 Du        
   6190 ****         8.7500  24.5000  17.7500 Du        
   6191 ****         8.7500  24.5000  18.0000 Du        
   6192 ****         8.7500  24.5000  18.2500 Du        
   6193 ****         8.7500  24.5000  18.5000 Du        
   6194 ****         8.7500  24.7500  17.5000 Du        
   6195 ****         8.7500  24.7500  17.7500 Du        
   6196 ****         8.7500  24.7500  18.0000 Du        
   6197 ****         8.7500  24.7500  18.2500 Du        
   6198 ****         8.7500  24.7500  18.5000 Du        
   6199 ****         8.7500  25.0000  17.5000 Du        
   6200 ****         8.7500  25.0000  17.7500 Du        
   6201 ****         8.7500  25.0000  18.0000 Du        
   6202 ****         8.7500  25.0000  18.2500 Du        
   6203 ****         8.7500  25.2500  17.7500 Du        
   6204 ****         8.7500  25.2500  18.0000 Du        
   6205 ****         8.7500  25.2500  18.2500 Du        
   6206 ****         8.7500  35.7500   3.7500 Du        
   6207 ****         8.7500  35.7500   4.0000 Du        
   6208 ****         8.7500  36.0000   3.7500 Du        
   6209 ****         8.7500  36.0000   4.0000 Du        
   6210 ****         8.7500  36.0000   4.2500 Du        
   6211 ****         8.7500  36.2500   4.2500 Du        
   6212 ****         9.0000  12.0000  19.2500 Du        
   6213 ****         9.0000  12.0000  19.5000 Du        
   6214 ****         9.0000  12.0000  19.7500 Du        
   6215 ****         9.0000  12.0000  20.0000 Du        
   6216 ****         9.0000  12.0000  20.2500 Du        
   6217 ****         9.0000  12.0000  20.5000 Du        
   6218 ****         9.0000  12.0000  20.7500 Du        
   6219 ****         9.0000  12.0000  21.0000 Du        
   6220 ****         9.0000  12.0000  21.2500 Du        
   6221 ****         9.0000  12.2500  20.7500 Du        
   6222 ****         9.0000  12.2500  21.0000 Du        
   6223 ****         9.0000  12.2500  21.2500 Du        
   6224 ****         9.0000  18.0000   4.2500 Du        
   6225 ****         9.0000  18.0000   4.5000 Du        
   6226 ****         9.0000  18.0000   4.7500 Du        
   6227 ****         9.0000  18.2500   4.0000 Du        
   6228 ****         9.0000  18.2500   4.2500 Du        
   6229 ****         9.0000  18.2500   4.5000 Du        
   6230 ****         9.0000  18.2500   4.7500 Du        
   6231 ****         9.0000  18.2500   5.0000 Du        
   6232 ****         9.0000  18.5000   3.5000 Du        
   6233 ****         9.0000  18.5000   3.7500 Du        
   6234 ****         9.0000  18.5000   4.0000 Du        
   6235 ****         9.0000  18.5000   4.2500 Du        
   6236 ****         9.0000  18.5000   4.5000 Du        
   6237 ****         9.0000  18.5000   4.7500 Du        
   6238 ****         9.0000  18.5000   5.0000 Du        
   6239 ****         9.0000  18.7500   3.2500 Du        
   6240 ****         9.0000  18.7500   3.5000 Du        
   6241 ****         9.0000  18.7500   3.7500 Du        
   6242 ****         9.0000  18.7500   4.0000 Du        
   6243 ****         9.0000  18.7500   4.2500 Du        
   6244 ****         9.0000  18.7500   4.5000 Du        
   6245 ****         9.0000  18.7500   4.7500 Du        
   6246 ****         9.0000  18.7500   5.0000 Du        
   6247 ****         9.0000  19.0000   2.7500 Du        
   6248 ****         9.0000  19.0000   3.0000 Du        
   6249 ****         9.0000  19.0000   3.2500 Du        
   6250 ****         9.0000  19.0000   3.5000 Du        
   6251 ****         9.0000  19.0000   3.7500 Du        
   6252 ****         9.0000  19.0000   4.0000 Du        
   6253 ****         9.0000  19.0000   4.2500 Du        
   6254 ****         9.0000  19.0000   4.5000 Du        
   6255 ****         9.0000  19.0000   4.7500 Du        
   6256 ****         9.0000  19.2500   2.7500 Du        
   6257 ****         9.0000  19.2500   3.0000 Du        
   6258 ****         9.0000  19.2500   3.2500 Du        
   6259 ****         9.0000  19.2500   3.5000 Du        
   6260 ****         9.0000  19.2500   3.7500 Du        
   6261 ****         9.0000  19.2500   4.0000 Du        
   6262 ****         9.0000  19.2500   4.2500 Du        
   6263 ****         9.0000  19.2500   4.5000 Du        
   6264 ****         9.0000  21.0000  26.5000 Du        
   6265 ****         9.0000  21.2500  26.5000 Du        
   6266 ****         9.0000  21.2500  26.7500 Du        
   6267 ****         9.0000  21.5000  26.2500 Du        
   6268 ****         9.0000  21.5000  26.5000 Du        
   6269 ****         9.0000  21.5000  26.7500 Du        
   6270 ****         9.0000  21.7500  26.7500 Du        
   6271 ****         9.0000  22.0000  22.0000 Du        
   6272 ****         9.0000  22.0000  22.2500 Du        
   6273 ****         9.0000  22.2500  21.2500 Du        
   6274 ****         9.0000  22.2500  21.5000 Du        
   6275 ****         9.0000  22.2500  21.7500 Du        
   6276 ****         9.0000  22.2500  22.0000 Du        
   6277 ****         9.0000  22.5000  21.0000 Du        
   6278 ****         9.0000  22.5000  21.2500 Du        
   6279 ****         9.0000  22.5000  21.5000 Du        
   6280 ****         9.0000  22.5000  21.7500 Du        
   6281 ****         9.0000  22.5000  22.0000 Du        
   6282 ****         9.0000  22.7500  21.0000 Du        
   6283 ****         9.0000  22.7500  21.2500 Du        
   6284 ****         9.0000  22.7500  21.5000 Du        
   6285 ****         9.0000  22.7500  21.7500 Du        
   6286 ****         9.0000  23.0000  18.7500 Du        
   6287 ****         9.0000  23.0000  19.0000 Du        
   6288 ****         9.0000  23.0000  19.2500 Du        
   6289 ****         9.0000  23.2500  18.0000 Du        
   6290 ****         9.0000  23.2500  18.2500 Du        
   6291 ****         9.0000  23.2500  18.5000 Du        
   6292 ****         9.0000  23.2500  18.7500 Du        
   6293 ****         9.0000  23.2500  19.0000 Du        
   6294 ****         9.0000  23.2500  19.2500 Du        
   6295 ****         9.0000  23.5000  18.0000 Du        
   6296 ****         9.0000  23.5000  18.2500 Du        
   6297 ****         9.0000  23.5000  18.5000 Du        
   6298 ****         9.0000  23.5000  18.7500 Du        
   6299 ****         9.0000  23.5000  19.0000 Du        
   6300 ****         9.0000  23.7500  17.7500 Du        
   6301 ****         9.0000  23.7500  18.0000 Du        
   6302 ****         9.0000  23.7500  18.2500 Du        
   6303 ****         9.0000  23.7500  18.5000 Du        
   6304 ****         9.0000  23.7500  18.7500 Du        
   6305 ****         9.0000  23.7500  19.0000 Du        
   6306 ****         9.0000  24.0000  17.7500 Du        
   6307 ****         9.0000  24.0000  18.0000 Du        
   6308 ****         9.0000  24.0000  18.2500 Du        
   6309 ****         9.0000  24.0000  18.5000 Du        
   6310 ****         9.0000  24.0000  18.7500 Du        
   6311 ****         9.0000  24.0000  19.0000 Du        
   6312 ****         9.0000  24.2500  17.7500 Du        
   6313 ****         9.0000  24.2500  18.0000 Du        
   6314 ****         9.0000  24.2500  18.2500 Du        
   6315 ****         9.0000  24.2500  18.5000 Du        
   6316 ****         9.0000  24.2500  18.7500 Du        
   6317 ****         9.0000  24.2500  19.0000 Du        
   6318 ****         9.0000  24.5000  17.5000 Du        
   6319 ****         9.0000  24.5000  17.7500 Du        
   6320 ****         9.0000  24.5000  18.0000 Du        
   6321 ****         9.0000  24.5000  18.2500 Du        
   6322 ****         9.0000  24.5000  18.5000 Du        
   6323 ****         9.0000  24.5000  18.7500 Du        
   6324 ****         9.0000  24.7500  17.5000 Du        
   6325 ****         9.0000  24.7500  17.7500 Du        
   6326 ****         9.0000  24.7500  18.0000 Du        
   6327 ****         9.0000  24.7500  18.2500 Du        
   6328 ****         9.0000  24.7500  18.5000 Du        
   6329 ****         9.0000  24.7500  18.7500 Du        
   6330 ****         9.0000  25.0000  17.5000 Du        
   6331 ****         9.0000  25.0000  17.7500 Du        
   6332 ****         9.0000  25.0000  18.0000 Du        
   6333 ****         9.0000  25.0000  18.2500 Du        
   6334 ****         9.0000  25.0000  18.5000 Du        
   6335 ****         9.0000  25.0000  18.7500 Du        
   6336 ****         9.0000  25.2500  17.5000 Du        
   6337 ****         9.0000  25.2500  17.7500 Du        
   6338 ****         9.0000  25.2500  18.0000 Du        
   6339 ****         9.0000  25.2500  18.2500 Du        
   6340 ****         9.0000  25.2500  18.5000 Du        
   6341 ****         9.0000  25.2500  18.7500 Du        
   6342 ****         9.0000  25.5000  18.0000 Du        
   6343 ****         9.0000  25.5000  18.2500 Du        
   6344 ****         9.0000  35.0000   3.2500 Du        
   6345 ****         9.0000  35.7500   3.7500 Du        
   6346 ****         9.0000  35.7500   4.0000 Du        
   6347 ****         9.0000  36.0000   3.7500 Du        
   6348 ****         9.0000  36.0000   4.0000 Du        
   6349 ****         9.0000  36.0000   4.2500 Du        
   6350 ****         9.2500  12.0000  19.5000 Du        
   6351 ****         9.2500  12.0000  19.7500 Du        
   6352 ****         9.2500  12.0000  20.0000 Du        
   6353 ****         9.2500  12.0000  20.2500 Du        
   6354 ****         9.2500  12.0000  20.5000 Du        
   6355 ****         9.2500  12.0000  20.7500 Du        
   6356 ****         9.2500  12.0000  21.0000 Du        
   6357 ****         9.2500  12.2500  20.7500 Du        
   6358 ****         9.2500  12.2500  21.0000 Du        
   6359 ****         9.2500  18.0000   4.0000 Du        
   6360 ****         9.2500  18.0000   4.2500 Du        
   6361 ****         9.2500  18.0000   4.5000 Du        
   6362 ****         9.2500  18.0000   4.7500 Du        
   6363 ****         9.2500  18.2500   4.0000 Du        
   6364 ****         9.2500  18.2500   4.2500 Du        
   6365 ****         9.2500  18.2500   4.5000 Du        
   6366 ****         9.2500  18.2500   4.7500 Du        
   6367 ****         9.2500  18.2500   5.0000 Du        
   6368 ****         9.2500  18.5000   3.5000 Du        
   6369 ****         9.2500  18.5000   3.7500 Du        
   6370 ****         9.2500  18.5000   4.0000 Du        
   6371 ****         9.2500  18.5000   4.2500 Du        
   6372 ****         9.2500  18.5000   4.5000 Du        
   6373 ****         9.2500  18.5000   4.7500 Du        
   6374 ****         9.2500  18.5000   5.0000 Du        
   6375 ****         9.2500  18.5000   5.2500 Du        
   6376 ****         9.2500  18.7500   3.2500 Du        
   6377 ****         9.2500  18.7500   3.5000 Du        
   6378 ****         9.2500  18.7500   3.7500 Du        
   6379 ****         9.2500  18.7500   4.0000 Du        
   6380 ****         9.2500  18.7500   4.2500 Du        
   6381 ****         9.2500  18.7500   4.5000 Du        
   6382 ****         9.2500  18.7500   4.7500 Du        
   6383 ****         9.2500  18.7500   5.0000 Du        
   6384 ****         9.2500  19.0000   3.0000 Du        
   6385 ****         9.2500  19.0000   3.2500 Du        
   6386 ****         9.2500  19.0000   3.5000 Du        
   6387 ****         9.2500  19.0000   3.7500 Du        
   6388 ****         9.2500  19.0000   4.0000 Du        
   6389 ****         9.2500  19.0000   4.2500 Du        
   6390 ****         9.2500  19.0000   4.5000 Du        
   6391 ****         9.2500  19.0000   4.7500 Du        
   6392 ****         9.2500  19.2500   2.2500 Du        
   6393 ****         9.2500  19.2500   3.0000 Du        
   6394 ****         9.2500  19.2500   3.2500 Du        
   6395 ****         9.2500  19.2500   3.5000 Du        
   6396 ****         9.2500  19.2500   3.7500 Du        
   6397 ****         9.2500  19.2500   4.0000 Du        
   6398 ****         9.2500  19.2500   4.2500 Du        
   6399 ****         9.2500  19.2500   4.5000 Du        
   6400 ****         9.2500  19.2500   4.7500 Du        
   6401 ****         9.2500  19.5000   2.2500 Du        
   6402 ****         9.2500  19.5000   2.7500 Du        
   6403 ****         9.2500  19.7500   1.7500 Du        
   6404 ****         9.2500  21.2500  26.7500 Du        
   6405 ****         9.2500  21.5000  26.5000 Du        
   6406 ****         9.2500  21.5000  26.7500 Du        
   6407 ****         9.2500  21.5000  27.0000 Du        
   6408 ****         9.2500  21.7500  26.7500 Du        
   6409 ****         9.2500  21.7500  27.0000 Du        
   6410 ****         9.2500  22.2500  21.5000 Du        
   6411 ****         9.2500  22.2500  21.7500 Du        
   6412 ****         9.2500  22.2500  22.0000 Du        
   6413 ****         9.2500  22.5000  21.0000 Du        
   6414 ****         9.2500  22.5000  21.2500 Du        
   6415 ****         9.2500  22.5000  21.5000 Du        
   6416 ****         9.2500  22.5000  21.7500 Du        
   6417 ****         9.2500  22.5000  22.0000 Du        
   6418 ****         9.2500  22.7500  19.0000 Du        
   6419 ****         9.2500  22.7500  19.2500 Du        
   6420 ****         9.2500  22.7500  20.0000 Du        
   6421 ****         9.2500  22.7500  20.2500 Du        
   6422 ****         9.2500  22.7500  20.5000 Du        
   6423 ****         9.2500  22.7500  20.7500 Du        
   6424 ****         9.2500  22.7500  21.0000 Du        
   6425 ****         9.2500  22.7500  21.2500 Du        
   6426 ****         9.2500  22.7500  21.5000 Du        
   6427 ****         9.2500  22.7500  21.7500 Du        
   6428 ****         9.2500  23.0000  18.0000 Du        
   6429 ****         9.2500  23.0000  18.2500 Du        
   6430 ****         9.2500  23.0000  18.5000 Du        
   6431 ****         9.2500  23.0000  18.7500 Du        
   6432 ****         9.2500  23.0000  19.0000 Du        
   6433 ****         9.2500  23.0000  19.2500 Du        
   6434 ****         9.2500  23.0000  19.5000 Du        
   6435 ****         9.2500  23.0000  19.7500 Du        
   6436 ****         9.2500  23.0000  20.0000 Du        
   6437 ****         9.2500  23.0000  20.2500 Du        
   6438 ****         9.2500  23.0000  20.5000 Du        
   6439 ****         9.2500  23.0000  20.7500 Du        
   6440 ****         9.2500  23.0000  21.0000 Du        
   6441 ****         9.2500  23.0000  21.2500 Du        
   6442 ****         9.2500  23.0000  21.5000 Du        
   6443 ****         9.2500  23.0000  21.7500 Du        
   6444 ****         9.2500  23.2500  17.7500 Du        
   6445 ****         9.2500  23.2500  18.0000 Du        
   6446 ****         9.2500  23.2500  18.2500 Du        
   6447 ****         9.2500  23.2500  18.5000 Du        
   6448 ****         9.2500  23.2500  18.7500 Du        
   6449 ****         9.2500  23.2500  19.0000 Du        
   6450 ****         9.2500  23.2500  19.2500 Du        
   6451 ****         9.2500  23.2500  19.5000 Du        
   6452 ****         9.2500  23.2500  19.7500 Du        
   6453 ****         9.2500  23.2500  21.0000 Du        
   6454 ****         9.2500  23.5000  17.7500 Du        
   6455 ****         9.2500  23.5000  18.0000 Du        
   6456 ****         9.2500  23.5000  18.2500 Du        
   6457 ****         9.2500  23.5000  18.5000 Du        
   6458 ****         9.2500  23.5000  18.7500 Du        
   6459 ****         9.2500  23.5000  19.0000 Du        
   6460 ****         9.2500  23.5000  19.2500 Du        
   6461 ****         9.2500  23.5000  19.5000 Du        
   6462 ****         9.2500  23.7500  17.7500 Du        
   6463 ****         9.2500  23.7500  18.0000 Du        
   6464 ****         9.2500  23.7500  18.2500 Du        
   6465 ****         9.2500  23.7500  18.5000 Du        
   6466 ****         9.2500  23.7500  18.7500 Du        
   6467 ****         9.2500  23.7500  19.0000 Du        
   6468 ****         9.2500  23.7500  19.2500 Du        
   6469 ****         9.2500  24.0000  17.5000 Du        
   6470 ****         9.2500  24.0000  17.7500 Du        
   6471 ****         9.2500  24.0000  18.0000 Du        
   6472 ****         9.2500  24.0000  18.2500 Du        
   6473 ****         9.2500  24.0000  18.5000 Du        
   6474 ****         9.2500  24.0000  18.7500 Du        
   6475 ****         9.2500  24.0000  19.0000 Du        
   6476 ****         9.2500  24.0000  19.2500 Du        
   6477 ****         9.2500  24.2500  17.5000 Du        
   6478 ****         9.2500  24.2500  17.7500 Du        
   6479 ****         9.2500  24.2500  18.0000 Du        
   6480 ****         9.2500  24.2500  18.2500 Du        
   6481 ****         9.2500  24.2500  18.5000 Du        
   6482 ****         9.2500  24.2500  18.7500 Du        
   6483 ****         9.2500  24.2500  19.0000 Du        
   6484 ****         9.2500  24.2500  19.2500 Du        
   6485 ****         9.2500  24.5000  17.5000 Du        
   6486 ****         9.2500  24.5000  17.7500 Du        
   6487 ****         9.2500  24.5000  18.0000 Du        
   6488 ****         9.2500  24.5000  18.2500 Du        
   6489 ****         9.2500  24.5000  18.5000 Du        
   6490 ****         9.2500  24.5000  18.7500 Du        
   6491 ****         9.2500  24.5000  19.0000 Du        
   6492 ****         9.2500  24.5000  19.2500 Du        
   6493 ****         9.2500  24.7500  17.5000 Du        
   6494 ****         9.2500  24.7500  17.7500 Du        
   6495 ****         9.2500  24.7500  18.0000 Du        
   6496 ****         9.2500  24.7500  18.2500 Du        
   6497 ****         9.2500  24.7500  18.5000 Du        
   6498 ****         9.2500  24.7500  18.7500 Du        
   6499 ****         9.2500  24.7500  19.0000 Du        
   6500 ****         9.2500  24.7500  19.2500 Du        
   6501 ****         9.2500  25.0000  17.2500 Du        
   6502 ****         9.2500  25.0000  17.5000 Du        
   6503 ****         9.2500  25.0000  17.7500 Du        
   6504 ****         9.2500  25.0000  18.0000 Du        
   6505 ****         9.2500  25.0000  18.2500 Du        
   6506 ****         9.2500  25.0000  18.5000 Du        
   6507 ****         9.2500  25.0000  18.7500 Du        
   6508 ****         9.2500  25.0000  19.0000 Du        
   6509 ****         9.2500  25.0000  19.2500 Du        
   6510 ****         9.2500  25.2500  17.5000 Du        
   6511 ****         9.2500  25.2500  17.7500 Du        
   6512 ****         9.2500  25.2500  18.0000 Du        
   6513 ****         9.2500  25.2500  18.2500 Du        
   6514 ****         9.2500  25.2500  18.5000 Du        
   6515 ****         9.2500  25.2500  18.7500 Du        
   6516 ****         9.2500  25.2500  19.0000 Du        
   6517 ****         9.2500  25.5000  17.7500 Du        
   6518 ****         9.2500  25.5000  18.0000 Du        
   6519 ****         9.2500  25.5000  18.2500 Du        
   6520 ****         9.2500  25.5000  18.5000 Du        
   6521 ****         9.2500  25.5000  18.7500 Du        
   6522 ****         9.2500  25.7500  18.2500 Du        
   6523 ****         9.2500  35.0000   3.2500 Du        
   6524 ****         9.2500  35.2500   3.2500 Du        
   6525 ****         9.2500  35.2500   3.5000 Du        
   6526 ****         9.2500  35.5000   3.2500 Du        
   6527 ****         9.2500  35.5000   3.5000 Du        
   6528 ****         9.2500  35.7500   3.7500 Du        
   6529 ****         9.5000  12.0000  20.0000 Du        
   6530 ****         9.5000  12.0000  20.2500 Du        
   6531 ****         9.5000  12.0000  20.5000 Du        
   6532 ****         9.5000  12.0000  20.7500 Du        
   6533 ****         9.5000  12.0000  21.0000 Du        
   6534 ****         9.5000  12.2500  21.0000 Du        
   6535 ****         9.5000  18.0000   4.2500 Du        
   6536 ****         9.5000  18.0000   4.5000 Du        
   6537 ****         9.5000  18.0000   4.7500 Du        
   6538 ****         9.5000  18.2500   4.0000 Du        
   6539 ****         9.5000  18.2500   4.2500 Du        
   6540 ****         9.5000  18.2500   4.5000 Du        
   6541 ****         9.5000  18.2500   4.7500 Du        
   6542 ****         9.5000  18.2500   5.0000 Du        
   6543 ****         9.5000  18.2500   5.2500 Du        
   6544 ****         9.5000  18.5000   3.5000 Du        
   6545 ****         9.5000  18.5000   3.7500 Du        
   6546 ****         9.5000  18.5000   4.0000 Du        
   6547 ****         9.5000  18.5000   4.2500 Du        
   6548 ****         9.5000  18.5000   4.5000 Du        
   6549 ****         9.5000  18.5000   4.7500 Du        
   6550 ****         9.5000  18.5000   5.0000 Du        
   6551 ****         9.5000  18.5000   5.2500 Du        
   6552 ****         9.5000  18.5000   5.5000 Du        
   6553 ****         9.5000  18.7500   3.0000 Du        
   6554 ****         9.5000  18.7500   3.2500 Du        
   6555 ****         9.5000  18.7500   3.5000 Du        
   6556 ****         9.5000  18.7500   3.7500 Du        
   6557 ****         9.5000  18.7500   4.0000 Du        
   6558 ****         9.5000  18.7500   4.2500 Du        
   6559 ****         9.5000  18.7500   4.5000 Du        
   6560 ****         9.5000  18.7500   4.7500 Du        
   6561 ****         9.5000  18.7500   5.0000 Du        
   6562 ****         9.5000  18.7500   5.2500 Du        
   6563 ****         9.5000  19.0000   2.7500 Du        
   6564 ****         9.5000  19.0000   3.0000 Du        
   6565 ****         9.5000  19.0000   3.2500 Du        
   6566 ****         9.5000  19.0000   3.5000 Du        
   6567 ****         9.5000  19.0000   3.7500 Du        
   6568 ****         9.5000  19.0000   4.0000 Du        
   6569 ****         9.5000  19.0000   4.2500 Du        
   6570 ****         9.5000  19.0000   4.5000 Du        
   6571 ****         9.5000  19.0000   4.7500 Du        
   6572 ****         9.5000  19.0000   5.0000 Du        
   6573 ****         9.5000  19.2500   3.0000 Du        
   6574 ****         9.5000  19.2500   3.7500 Du        
   6575 ****         9.5000  19.2500   4.0000 Du        
   6576 ****         9.5000  19.2500   4.2500 Du        
   6577 ****         9.5000  19.2500   4.5000 Du        
   6578 ****         9.5000  19.5000   2.2500 Du        
   6579 ****         9.5000  19.7500   1.7500 Du        
   6580 ****         9.5000  22.5000  21.2500 Du        
   6581 ****         9.5000  22.5000  21.5000 Du        
   6582 ****         9.5000  22.5000  21.7500 Du        
   6583 ****         9.5000  22.5000  22.0000 Du        
   6584 ****         9.5000  22.7500  19.0000 Du        
   6585 ****         9.5000  22.7500  20.2500 Du        
   6586 ****         9.5000  22.7500  20.7500 Du        
   6587 ****         9.5000  22.7500  21.0000 Du        
   6588 ****         9.5000  22.7500  21.2500 Du        
   6589 ****         9.5000  22.7500  21.5000 Du        
   6590 ****         9.5000  22.7500  21.7500 Du        
   6591 ****         9.5000  22.7500  22.0000 Du        
   6592 ****         9.5000  23.0000  17.7500 Du        
   6593 ****         9.5000  23.0000  18.0000 Du        
   6594 ****         9.5000  23.0000  18.2500 Du        
   6595 ****         9.5000  23.0000  18.5000 Du        
   6596 ****         9.5000  23.0000  18.7500 Du        
   6597 ****         9.5000  23.0000  19.0000 Du        
   6598 ****         9.5000  23.0000  19.2500 Du        
   6599 ****         9.5000  23.0000  19.5000 Du        
   6600 ****         9.5000  23.0000  19.7500 Du        
   6601 ****         9.5000  23.0000  20.0000 Du        
   6602 ****         9.5000  23.0000  20.2500 Du        
   6603 ****         9.5000  23.0000  20.5000 Du        
   6604 ****         9.5000  23.0000  20.7500 Du        
   6605 ****         9.5000  23.0000  21.0000 Du        
   6606 ****         9.5000  23.0000  21.2500 Du        
   6607 ****         9.5000  23.0000  21.5000 Du        
   6608 ****         9.5000  23.0000  21.7500 Du        
   6609 ****         9.5000  23.2500  17.7500 Du        
   6610 ****         9.5000  23.2500  18.0000 Du        
   6611 ****         9.5000  23.2500  18.2500 Du        
   6612 ****         9.5000  23.2500  18.5000 Du        
   6613 ****         9.5000  23.2500  18.7500 Du        
   6614 ****         9.5000  23.2500  19.0000 Du        
   6615 ****         9.5000  23.2500  19.2500 Du        
   6616 ****         9.5000  23.2500  19.5000 Du        
   6617 ****         9.5000  23.2500  19.7500 Du        
   6618 ****         9.5000  23.2500  20.0000 Du        
   6619 ****         9.5000  23.2500  20.2500 Du        
   6620 ****         9.5000  23.2500  20.5000 Du        
   6621 ****         9.5000  23.2500  20.7500 Du        
   6622 ****         9.5000  23.2500  21.0000 Du        
   6623 ****         9.5000  23.2500  21.2500 Du        
   6624 ****         9.5000  23.2500  21.5000 Du        
   6625 ****         9.5000  23.5000  17.7500 Du        
   6626 ****         9.5000  23.5000  18.0000 Du        
   6627 ****         9.5000  23.5000  18.2500 Du        
   6628 ****         9.5000  23.5000  18.5000 Du        
   6629 ****         9.5000  23.5000  18.7500 Du        
   6630 ****         9.5000  23.5000  19.0000 Du        
   6631 ****         9.5000  23.5000  19.2500 Du        
   6632 ****         9.5000  23.5000  19.5000 Du        
   6633 ****         9.5000  23.5000  19.7500 Du        
   6634 ****         9.5000  23.5000  20.0000 Du        
   6635 ****         9.5000  23.5000  20.2500 Du        
   6636 ****         9.5000  23.5000  21.0000 Du        
   6637 ****         9.5000  23.7500  17.5000 Du        
   6638 ****         9.5000  23.7500  17.7500 Du        
   6639 ****         9.5000  23.7500  18.0000 Du        
   6640 ****         9.5000  23.7500  18.2500 Du        
   6641 ****         9.5000  23.7500  18.5000 Du        
   6642 ****         9.5000  23.7500  18.7500 Du        
   6643 ****         9.5000  23.7500  19.0000 Du        
   6644 ****         9.5000  23.7500  19.2500 Du        
   6645 ****         9.5000  23.7500  19.5000 Du        
   6646 ****         9.5000  23.7500  19.7500 Du        
   6647 ****         9.5000  23.7500  20.0000 Du        
   6648 ****         9.5000  24.0000  17.5000 Du        
   6649 ****         9.5000  24.0000  17.7500 Du        
   6650 ****         9.5000  24.0000  18.0000 Du        
   6651 ****         9.5000  24.0000  18.2500 Du        
   6652 ****         9.5000  24.0000  18.5000 Du        
   6653 ****         9.5000  24.0000  18.7500 Du        
   6654 ****         9.5000  24.0000  19.0000 Du        
   6655 ****         9.5000  24.0000  19.2500 Du        
   6656 ****         9.5000  24.0000  19.5000 Du        
   6657 ****         9.5000  24.0000  19.7500 Du        
   6658 ****         9.5000  24.2500  17.5000 Du        
   6659 ****         9.5000  24.2500  17.7500 Du        
   6660 ****         9.5000  24.2500  18.0000 Du        
   6661 ****         9.5000  24.2500  18.2500 Du        
   6662 ****         9.5000  24.2500  18.5000 Du        
   6663 ****         9.5000  24.2500  18.7500 Du        
   6664 ****         9.5000  24.2500  19.0000 Du        
   6665 ****         9.5000  24.2500  19.2500 Du        
   6666 ****         9.5000  24.2500  19.5000 Du        
   6667 ****         9.5000  24.2500  19.7500 Du        
   6668 ****         9.5000  24.5000  17.5000 Du        
   6669 ****         9.5000  24.5000  17.7500 Du        
   6670 ****         9.5000  24.5000  18.0000 Du        
   6671 ****         9.5000  24.5000  18.2500 Du        
   6672 ****         9.5000  24.5000  18.5000 Du        
   6673 ****         9.5000  24.5000  18.7500 Du        
   6674 ****         9.5000  24.5000  19.0000 Du        
   6675 ****         9.5000  24.5000  19.2500 Du        
   6676 ****         9.5000  24.5000  19.5000 Du        
   6677 ****         9.5000  24.5000  19.7500 Du        
   6678 ****         9.5000  24.5000  20.0000 Du        
   6679 ****         9.5000  24.7500  17.5000 Du        
   6680 ****         9.5000  24.7500  17.7500 Du        
   6681 ****         9.5000  24.7500  18.0000 Du        
   6682 ****         9.5000  24.7500  18.2500 Du        
   6683 ****         9.5000  24.7500  18.5000 Du        
   6684 ****         9.5000  24.7500  18.7500 Du        
   6685 ****         9.5000  24.7500  19.0000 Du        
   6686 ****         9.5000  24.7500  19.2500 Du        
   6687 ****         9.5000  24.7500  19.5000 Du        
   6688 ****         9.5000  24.7500  19.7500 Du        
   6689 ****         9.5000  24.7500  20.0000 Du        
   6690 ****         9.5000  24.7500  20.2500 Du        
   6691 ****         9.5000  25.0000  17.5000 Du        
   6692 ****         9.5000  25.0000  17.7500 Du        
   6693 ****         9.5000  25.0000  18.0000 Du        
   6694 ****         9.5000  25.0000  18.2500 Du        
   6695 ****         9.5000  25.0000  18.5000 Du        
   6696 ****         9.5000  25.0000  18.7500 Du        
   6697 ****         9.5000  25.0000  19.0000 Du        
   6698 ****         9.5000  25.0000  19.2500 Du        
   6699 ****         9.5000  25.0000  19.5000 Du        
   6700 ****         9.5000  25.0000  19.7500 Du        
   6701 ****         9.5000  25.0000  20.0000 Du        
   6702 ****         9.5000  25.0000  20.2500 Du        
   6703 ****         9.5000  25.2500  17.5000 Du        
   6704 ****         9.5000  25.2500  17.7500 Du        
   6705 ****         9.5000  25.2500  18.0000 Du        
   6706 ****         9.5000  25.2500  18.2500 Du        
   6707 ****         9.5000  25.2500  18.5000 Du        
   6708 ****         9.5000  25.2500  18.7500 Du        
   6709 ****         9.5000  25.2500  19.0000 Du        
   6710 ****         9.5000  25.2500  19.2500 Du        
   6711 ****         9.5000  25.2500  19.5000 Du        
   6712 ****         9.5000  25.2500  19.7500 Du        
   6713 ****         9.5000  25.2500  20.0000 Du        
   6714 ****         9.5000  25.5000  17.7500 Du        
   6715 ****         9.5000  25.5000  18.0000 Du        
   6716 ****         9.5000  25.5000  18.2500 Du        
   6717 ****         9.5000  25.5000  18.5000 Du        
   6718 ****         9.5000  25.5000  18.7500 Du        
   6719 ****         9.5000  25.5000  19.0000 Du        
   6720 ****         9.5000  25.5000  19.2500 Du        
   6721 ****         9.5000  25.7500  18.0000 Du        
   6722 ****         9.5000  25.7500  18.2500 Du        
   6723 ****         9.5000  25.7500  18.5000 Du        
   6724 ****         9.5000  25.7500  18.7500 Du        
   6725 ****         9.5000  25.7500  19.0000 Du        
   6726 ****         9.5000  25.7500  19.2500 Du        
   6727 ****         9.5000  31.2500  25.7500 Du        
   6728 ****         9.5000  31.2500  26.0000 Du        
   6729 ****         9.5000  31.2500  26.2500 Du        
   6730 ****         9.5000  31.5000  25.2500 Du        
   6731 ****         9.5000  31.5000  25.5000 Du        
   6732 ****         9.5000  31.5000  25.7500 Du        
   6733 ****         9.5000  31.5000  26.0000 Du        
   6734 ****         9.5000  31.5000  26.2500 Du        
   6735 ****         9.5000  31.5000  26.5000 Du        
   6736 ****         9.5000  31.7500  25.2500 Du        
   6737 ****         9.5000  31.7500  25.5000 Du        
   6738 ****         9.5000  31.7500  25.7500 Du        
   6739 ****         9.5000  31.7500  26.0000 Du        
   6740 ****         9.5000  31.7500  26.2500 Du        
   6741 ****         9.5000  31.7500  26.5000 Du        
   6742 ****         9.5000  32.0000  25.2500 Du        
   6743 ****         9.5000  32.0000  25.5000 Du        
   6744 ****         9.5000  32.0000  25.7500 Du        
   6745 ****         9.5000  32.0000  26.0000 Du        
   6746 ****         9.5000  32.0000  26.2500 Du        
   6747 ****         9.5000  32.2500  25.2500 Du        
   6748 ****         9.5000  32.2500  25.5000 Du        
   6749 ****         9.5000  32.2500  25.7500 Du        
   6750 ****         9.5000  32.2500  26.0000 Du        
   6751 ****         9.5000  32.5000  25.2500 Du        
   6752 ****         9.5000  32.5000  25.5000 Du        
   6753 ****         9.5000  32.7500  25.2500 Du        
   6754 ****         9.5000  32.7500  25.5000 Du        
   6755 ****         9.5000  33.0000  25.2500 Du        
   6756 ****         9.5000  33.0000  25.5000 Du        
   6757 ****         9.5000  33.2500  25.2500 Du        
   6758 ****         9.5000  35.0000   3.2500 Du        
   6759 ****         9.5000  35.2500   3.2500 Du        
   6760 ****         9.5000  35.2500   3.5000 Du        
   6761 ****         9.7500  12.0000  20.2500 Du        
   6762 ****         9.7500  12.0000  20.5000 Du        
   6763 ****         9.7500  12.0000  20.7500 Du        
   6764 ****         9.7500  18.0000   4.0000 Du        
   6765 ****         9.7500  18.0000   4.2500 Du        
   6766 ****         9.7500  18.0000   4.5000 Du        
   6767 ****         9.7500  18.0000   4.7500 Du        
   6768 ****         9.7500  18.0000   5.0000 Du        
   6769 ****         9.7500  18.2500   3.7500 Du        
   6770 ****         9.7500  18.2500   4.0000 Du        
   6771 ****         9.7500  18.2500   4.2500 Du        
   6772 ****         9.7500  18.2500   4.5000 Du        
   6773 ****         9.7500  18.2500   4.7500 Du        
   6774 ****         9.7500  18.2500   5.0000 Du        
   6775 ****         9.7500  18.2500   5.2500 Du        
   6776 ****         9.7500  18.5000   3.5000 Du        
   6777 ****         9.7500  18.5000   3.7500 Du        
   6778 ****         9.7500  18.5000   4.0000 Du        
   6779 ****         9.7500  18.5000   4.2500 Du        
   6780 ****         9.7500  18.5000   4.5000 Du        
   6781 ****         9.7500  18.5000   4.7500 Du        
   6782 ****         9.7500  18.5000   5.0000 Du        
   6783 ****         9.7500  18.5000   5.2500 Du        
   6784 ****         9.7500  18.5000   5.5000 Du        
   6785 ****         9.7500  18.7500   3.0000 Du        
   6786 ****         9.7500  18.7500   3.2500 Du        
   6787 ****         9.7500  18.7500   3.5000 Du        
   6788 ****         9.7500  18.7500   3.7500 Du        
   6789 ****         9.7500  18.7500   4.0000 Du        
   6790 ****         9.7500  18.7500   4.2500 Du        
   6791 ****         9.7500  18.7500   4.5000 Du        
   6792 ****         9.7500  18.7500   4.7500 Du        
   6793 ****         9.7500  18.7500   5.0000 Du        
   6794 ****         9.7500  18.7500   5.2500 Du        
   6795 ****         9.7500  18.7500   5.5000 Du        
   6796 ****         9.7500  19.0000   2.5000 Du        
   6797 ****         9.7500  19.0000   2.7500 Du        
   6798 ****         9.7500  19.0000   3.0000 Du        
   6799 ****         9.7500  19.0000   3.2500 Du        
   6800 ****         9.7500  19.0000   3.5000 Du        
   6801 ****         9.7500  19.0000   3.7500 Du        
   6802 ****         9.7500  19.0000   4.0000 Du        
   6803 ****         9.7500  19.0000   4.2500 Du        
   6804 ****         9.7500  19.0000   4.5000 Du        
   6805 ****         9.7500  19.0000   4.7500 Du        
   6806 ****         9.7500  19.0000   5.0000 Du        
   6807 ****         9.7500  19.2500   2.5000 Du        
   6808 ****         9.7500  19.5000   2.2500 Du        
   6809 ****         9.7500  22.5000  21.7500 Du        
   6810 ****         9.7500  22.5000  22.0000 Du        
   6811 ****         9.7500  22.7500  20.7500 Du        
   6812 ****         9.7500  22.7500  21.0000 Du        
   6813 ****         9.7500  22.7500  21.2500 Du        
   6814 ****         9.7500  22.7500  21.5000 Du        
   6815 ****         9.7500  22.7500  21.7500 Du        
   6816 ****         9.7500  22.7500  22.0000 Du        
   6817 ****         9.7500  23.0000  17.7500 Du        
   6818 ****         9.7500  23.0000  18.0000 Du        
   6819 ****         9.7500  23.0000  18.2500 Du        
   6820 ****         9.7500  23.0000  18.5000 Du        
   6821 ****         9.7500  23.0000  18.7500 Du        
   6822 ****         9.7500  23.0000  19.0000 Du        
   6823 ****         9.7500  23.0000  19.2500 Du        
   6824 ****         9.7500  23.0000  19.5000 Du        
   6825 ****         9.7500  23.0000  19.7500 Du        
   6826 ****         9.7500  23.0000  20.0000 Du        
   6827 ****         9.7500  23.0000  20.2500 Du        
   6828 ****         9.7500  23.0000  20.5000 Du        
   6829 ****         9.7500  23.0000  20.7500 Du        
   6830 ****         9.7500  23.0000  21.0000 Du        
   6831 ****         9.7500  23.0000  21.2500 Du        
   6832 ****         9.7500  23.0000  21.5000 Du        
   6833 ****         9.7500  23.0000  21.7500 Du        
   6834 ****         9.7500  23.0000  22.0000 Du        
   6835 ****         9.7500  23.2500  17.5000 Du        
   6836 ****         9.7500  23.2500  17.7500 Du        
   6837 ****         9.7500  23.2500  18.0000 Du        
   6838 ****         9.7500  23.2500  18.2500 Du        
   6839 ****         9.7500  23.2500  18.5000 Du        
   6840 ****         9.7500  23.2500  18.7500 Du        
   6841 ****         9.7500  23.2500  19.0000 Du        
   6842 ****         9.7500  23.2500  19.2500 Du        
   6843 ****         9.7500  23.2500  19.5000 Du        
   6844 ****         9.7500  23.2500  19.7500 Du        
   6845 ****         9.7500  23.2500  20.0000 Du        
   6846 ****         9.7500  23.2500  20.2500 Du        
   6847 ****         9.7500  23.2500  20.5000 Du        
   6848 ****         9.7500  23.2500  20.7500 Du        
   6849 ****         9.7500  23.2500  21.0000 Du        
   6850 ****         9.7500  23.2500  21.2500 Du        
   6851 ****         9.7500  23.2500  21.5000 Du        
   6852 ****         9.7500  23.2500  21.7500 Du        
   6853 ****         9.7500  23.5000  17.5000 Du        
   6854 ****         9.7500  23.5000  17.7500 Du        
   6855 ****         9.7500  23.5000  18.0000 Du        
   6856 ****         9.7500  23.5000  18.2500 Du        
   6857 ****         9.7500  23.5000  18.5000 Du        
   6858 ****         9.7500  23.5000  18.7500 Du        
   6859 ****         9.7500  23.5000  19.0000 Du        
   6860 ****         9.7500  23.5000  19.2500 Du        
   6861 ****         9.7500  23.5000  19.5000 Du        
   6862 ****         9.7500  23.5000  19.7500 Du        
   6863 ****         9.7500  23.5000  20.0000 Du        
   6864 ****         9.7500  23.5000  20.2500 Du        
   6865 ****         9.7500  23.5000  20.5000 Du        
   6866 ****         9.7500  23.5000  20.7500 Du        
   6867 ****         9.7500  23.5000  21.0000 Du        
   6868 ****         9.7500  23.5000  21.2500 Du        
   6869 ****         9.7500  23.5000  29.2500 Du        
   6870 ****         9.7500  23.7500  17.5000 Du        
   6871 ****         9.7500  23.7500  17.7500 Du        
   6872 ****         9.7500  23.7500  18.0000 Du        
   6873 ****         9.7500  23.7500  18.2500 Du        
   6874 ****         9.7500  23.7500  18.5000 Du        
   6875 ****         9.7500  23.7500  18.7500 Du        
   6876 ****         9.7500  23.7500  19.0000 Du        
   6877 ****         9.7500  23.7500  19.2500 Du        
   6878 ****         9.7500  23.7500  19.5000 Du        
   6879 ****         9.7500  23.7500  19.7500 Du        
   6880 ****         9.7500  23.7500  20.0000 Du        
   6881 ****         9.7500  23.7500  20.2500 Du        
   6882 ****         9.7500  23.7500  20.5000 Du        
   6883 ****         9.7500  23.7500  20.7500 Du        
   6884 ****         9.7500  23.7500  21.0000 Du        
   6885 ****         9.7500  23.7500  21.2500 Du        
   6886 ****         9.7500  24.0000  17.2500 Du        
   6887 ****         9.7500  24.0000  17.5000 Du        
   6888 ****         9.7500  24.0000  17.7500 Du        
   6889 ****         9.7500  24.0000  18.0000 Du        
   6890 ****         9.7500  24.0000  18.2500 Du        
   6891 ****         9.7500  24.0000  18.5000 Du        
   6892 ****         9.7500  24.0000  18.7500 Du        
   6893 ****         9.7500  24.0000  19.0000 Du        
   6894 ****         9.7500  24.0000  19.2500 Du        
   6895 ****         9.7500  24.0000  19.5000 Du        
   6896 ****         9.7500  24.0000  19.7500 Du        
   6897 ****         9.7500  24.0000  20.0000 Du        
   6898 ****         9.7500  24.0000  20.2500 Du        
   6899 ****         9.7500  24.0000  20.5000 Du        
   6900 ****         9.7500  24.0000  20.7500 Du        
   6901 ****         9.7500  24.0000  21.0000 Du        
   6902 ****         9.7500  24.0000  21.2500 Du        
   6903 ****         9.7500  24.2500  17.2500 Du        
   6904 ****         9.7500  24.2500  17.5000 Du        
   6905 ****         9.7500  24.2500  17.7500 Du        
   6906 ****         9.7500  24.2500  18.0000 Du        
   6907 ****         9.7500  24.2500  18.2500 Du        
   6908 ****         9.7500  24.2500  18.5000 Du        
   6909 ****         9.7500  24.2500  18.7500 Du        
   6910 ****         9.7500  24.2500  19.0000 Du        
   6911 ****         9.7500  24.2500  19.2500 Du        
   6912 ****         9.7500  24.2500  19.5000 Du        
   6913 ****         9.7500  24.2500  19.7500 Du        
   6914 ****         9.7500  24.2500  20.0000 Du        
   6915 ****         9.7500  24.2500  20.2500 Du        
   6916 ****         9.7500  24.2500  20.5000 Du        
   6917 ****         9.7500  24.2500  20.7500 Du        
   6918 ****         9.7500  24.2500  21.0000 Du        
   6919 ****         9.7500  24.5000  17.2500 Du        
   6920 ****         9.7500  24.5000  17.5000 Du        
   6921 ****         9.7500  24.5000  17.7500 Du        
   6922 ****         9.7500  24.5000  18.0000 Du        
   6923 ****         9.7500  24.5000  18.2500 Du        
   6924 ****         9.7500  24.5000  18.5000 Du        
   6925 ****         9.7500  24.5000  18.7500 Du        
   6926 ****         9.7500  24.5000  19.0000 Du        
   6927 ****         9.7500  24.5000  19.2500 Du        
   6928 ****         9.7500  24.5000  19.5000 Du        
   6929 ****         9.7500  24.5000  19.7500 Du        
   6930 ****         9.7500  24.5000  20.0000 Du        
   6931 ****         9.7500  24.5000  20.2500 Du        
   6932 ****         9.7500  24.5000  20.5000 Du        
   6933 ****         9.7500  24.5000  20.7500 Du        
   6934 ****         9.7500  24.7500  17.2500 Du        
   6935 ****         9.7500  24.7500  17.5000 Du        
   6936 ****         9.7500  24.7500  17.7500 Du        
   6937 ****         9.7500  24.7500  18.0000 Du        
   6938 ****         9.7500  24.7500  18.2500 Du        
   6939 ****         9.7500  24.7500  18.5000 Du        
   6940 ****         9.7500  24.7500  18.7500 Du        
   6941 ****         9.7500  24.7500  19.0000 Du        
   6942 ****         9.7500  24.7500  19.2500 Du        
   6943 ****         9.7500  24.7500  19.5000 Du        
   6944 ****         9.7500  24.7500  19.7500 Du        
   6945 ****         9.7500  24.7500  20.0000 Du        
   6946 ****         9.7500  24.7500  20.2500 Du        
   6947 ****         9.7500  24.7500  20.5000 Du        
   6948 ****         9.7500  24.7500  20.7500 Du        
   6949 ****         9.7500  25.0000  17.2500 Du        
   6950 ****         9.7500  25.0000  17.5000 Du        
   6951 ****         9.7500  25.0000  17.7500 Du        
   6952 ****         9.7500  25.0000  18.0000 Du        
   6953 ****         9.7500  25.0000  18.2500 Du        
   6954 ****         9.7500  25.0000  18.5000 Du        
   6955 ****         9.7500  25.0000  18.7500 Du        
   6956 ****         9.7500  25.0000  19.0000 Du        
   6957 ****         9.7500  25.0000  19.2500 Du        
   6958 ****         9.7500  25.0000  19.5000 Du        
   6959 ****         9.7500  25.0000  19.7500 Du        
   6960 ****         9.7500  25.0000  20.0000 Du        
   6961 ****         9.7500  25.0000  20.2500 Du        
   6962 ****         9.7500  25.0000  20.5000 Du        
   6963 ****         9.7500  25.0000  20.7500 Du        
   6964 ****         9.7500  25.2500  17.5000 Du        
   6965 ****         9.7500  25.2500  17.7500 Du        
   6966 ****         9.7500  25.2500  18.0000 Du        
   6967 ****         9.7500  25.2500  18.2500 Du        
   6968 ****         9.7500  25.2500  18.5000 Du        
   6969 ****         9.7500  25.2500  18.7500 Du        
   6970 ****         9.7500  25.2500  19.0000 Du        
   6971 ****         9.7500  25.2500  19.2500 Du        
   6972 ****         9.7500  25.2500  19.5000 Du        
   6973 ****         9.7500  25.2500  19.7500 Du        
   6974 ****         9.7500  25.2500  20.0000 Du        
   6975 ****         9.7500  25.2500  20.2500 Du        
   6976 ****         9.7500  25.2500  20.5000 Du        
   6977 ****         9.7500  25.5000  17.7500 Du        
   6978 ****         9.7500  25.5000  18.0000 Du        
   6979 ****         9.7500  25.5000  18.2500 Du        
   6980 ****         9.7500  25.5000  18.5000 Du        
   6981 ****         9.7500  25.5000  18.7500 Du        
   6982 ****         9.7500  25.5000  19.0000 Du        
   6983 ****         9.7500  25.5000  19.2500 Du        
   6984 ****         9.7500  25.5000  19.5000 Du        
   6985 ****         9.7500  25.5000  19.7500 Du        
   6986 ****         9.7500  25.5000  20.0000 Du        
   6987 ****         9.7500  25.5000  20.2500 Du        
   6988 ****         9.7500  25.5000  20.5000 Du        
   6989 ****         9.7500  25.7500  18.0000 Du        
   6990 ****         9.7500  25.7500  18.2500 Du        
   6991 ****         9.7500  25.7500  18.5000 Du        
   6992 ****         9.7500  25.7500  18.7500 Du        
   6993 ****         9.7500  25.7500  19.0000 Du        
   6994 ****         9.7500  25.7500  19.2500 Du        
   6995 ****         9.7500  25.7500  19.5000 Du        
   6996 ****         9.7500  25.7500  19.7500 Du        
   6997 ****         9.7500  25.7500  20.0000 Du        
   6998 ****         9.7500  25.7500  20.2500 Du        
   6999 ****         9.7500  25.7500  20.5000 Du        
   7000 ****         9.7500  26.0000  18.7500 Du        
   7001 ****         9.7500  26.0000  19.0000 Du        
   7002 ****         9.7500  26.0000  19.2500 Du        
   7003 ****         9.7500  26.0000  19.5000 Du        
   7004 ****         9.7500  26.0000  19.7500 Du        
   7005 ****         9.7500  26.0000  20.0000 Du        
   7006 ****         9.7500  26.0000  20.2500 Du        
   7007 ****         9.7500  26.0000  20.5000 Du        
   7008 ****         9.7500  26.2500  19.5000 Du        
   7009 ****         9.7500  26.2500  19.7500 Du        
   7010 ****         9.7500  26.2500  20.0000 Du        
   7011 ****         9.7500  26.2500  20.2500 Du        
   7012 ****         9.7500  26.2500  20.5000 Du        
   7013 ****         9.7500  26.5000  19.7500 Du        
   7014 ****         9.7500  26.5000  20.0000 Du        
   7015 ****         9.7500  26.5000  20.2500 Du        
   7016 ****         9.7500  26.5000  20.5000 Du        
   7017 ****         9.7500  26.7500  19.7500 Du        
   7018 ****         9.7500  26.7500  20.0000 Du        
   7019 ****         9.7500  26.7500  20.2500 Du        
   7020 ****         9.7500  27.0000  20.0000 Du        
   7021 ****         9.7500  27.0000  20.2500 Du        
   7022 ****         9.7500  31.2500  25.2500 Du        
   7023 ****         9.7500  31.2500  25.5000 Du        
   7024 ****         9.7500  31.2500  25.7500 Du        
   7025 ****         9.7500  31.2500  26.0000 Du        
   7026 ****         9.7500  31.2500  26.2500 Du        
   7027 ****         9.7500  31.2500  26.5000 Du        
   7028 ****         9.7500  31.5000  25.0000 Du        
   7029 ****         9.7500  31.5000  25.2500 Du        
   7030 ****         9.7500  31.5000  25.5000 Du        
   7031 ****         9.7500  31.5000  25.7500 Du        
   7032 ****         9.7500  31.5000  26.0000 Du        
   7033 ****         9.7500  31.5000  26.2500 Du        
   7034 ****         9.7500  31.5000  26.5000 Du        
   7035 ****         9.7500  31.5000  26.7500 Du        
   7036 ****         9.7500  31.7500  24.7500 Du        
   7037 ****         9.7500  31.7500  25.0000 Du        
   7038 ****         9.7500  31.7500  25.2500 Du        
   7039 ****         9.7500  31.7500  25.5000 Du        
   7040 ****         9.7500  31.7500  25.7500 Du        
   7041 ****         9.7500  31.7500  26.0000 Du        
   7042 ****         9.7500  31.7500  26.2500 Du        
   7043 ****         9.7500  31.7500  26.5000 Du        
   7044 ****         9.7500  31.7500  26.7500 Du        
   7045 ****         9.7500  31.7500  27.0000 Du        
   7046 ****         9.7500  32.0000  25.0000 Du        
   7047 ****         9.7500  32.0000  25.2500 Du        
   7048 ****         9.7500  32.0000  25.5000 Du        
   7049 ****         9.7500  32.0000  25.7500 Du        
   7050 ****         9.7500  32.0000  26.0000 Du        
   7051 ****         9.7500  32.0000  26.2500 Du        
   7052 ****         9.7500  32.0000  26.5000 Du        
   7053 ****         9.7500  32.0000  26.7500 Du        
   7054 ****         9.7500  32.0000  27.0000 Du        
   7055 ****         9.7500  32.2500  25.0000 Du        
   7056 ****         9.7500  32.2500  25.2500 Du        
   7057 ****         9.7500  32.2500  25.5000 Du        
   7058 ****         9.7500  32.2500  25.7500 Du        
   7059 ****         9.7500  32.2500  26.0000 Du        
   7060 ****         9.7500  32.2500  26.2500 Du        
   7061 ****         9.7500  32.2500  26.5000 Du        
   7062 ****         9.7500  32.2500  26.7500 Du        
   7063 ****         9.7500  32.2500  27.0000 Du        
   7064 ****         9.7500  32.5000  25.0000 Du        
   7065 ****         9.7500  32.5000  25.2500 Du        
   7066 ****         9.7500  32.5000  25.5000 Du        
   7067 ****         9.7500  32.5000  25.7500 Du        
   7068 ****         9.7500  32.5000  26.0000 Du        
   7069 ****         9.7500  32.5000  26.2500 Du        
   7070 ****         9.7500  32.7500  25.0000 Du        
   7071 ****         9.7500  32.7500  25.2500 Du        
   7072 ****         9.7500  32.7500  25.5000 Du        
   7073 ****         9.7500  32.7500  25.7500 Du        
   7074 ****         9.7500  32.7500  26.0000 Du        
   7075 ****         9.7500  32.7500  26.2500 Du        
   7076 ****         9.7500  33.0000  25.2500 Du        
   7077 ****         9.7500  33.0000  25.5000 Du        
   7078 ****         9.7500  33.0000  25.7500 Du        
   7079 ****         9.7500  33.0000  26.0000 Du        
   7080 ****         9.7500  33.0000  26.2500 Du        
   7081 ****         9.7500  33.2500  25.2500 Du        
   7082 ****         9.7500  33.2500  25.5000 Du        
   7083 ****         9.7500  33.2500  25.7500 Du        
   7084 ****         9.7500  33.2500  26.0000 Du        
   7085 ****         9.7500  33.2500  26.2500 Du        
   7086 ****         9.7500  33.5000  25.7500 Du        
   7087 ****         9.7500  35.0000   3.2500 Du        
   7088 ****         9.7500  35.0000   3.5000 Du        
   7089 ****         9.7500  35.2500   3.2500 Du        
   7090 ****         9.7500  35.2500   3.5000 Du        
   7091 ****         9.7500  35.2500   3.7500 Du        
   7092 ****         9.7500  35.5000   3.2500 Du        
   7093 ****         9.7500  39.7500   9.5000 Du        
   7094 ****        10.0000  18.0000   4.0000 Du        
   7095 ****        10.0000  18.0000   4.2500 Du        
   7096 ****        10.0000  18.0000   4.5000 Du        
   7097 ****        10.0000  18.0000   4.7500 Du        
   7098 ****        10.0000  18.0000   5.0000 Du        
   7099 ****        10.0000  18.2500   3.7500 Du        
   7100 ****        10.0000  18.2500   4.0000 Du        
   7101 ****        10.0000  18.2500   4.2500 Du        
   7102 ****        10.0000  18.2500   4.5000 Du        
   7103 ****        10.0000  18.2500   4.7500 Du        
   7104 ****        10.0000  18.2500   5.0000 Du        
   7105 ****        10.0000  18.2500   5.2500 Du        
   7106 ****        10.0000  18.2500   5.5000 Du        
   7107 ****        10.0000  18.5000   3.5000 Du        
   7108 ****        10.0000  18.5000   3.7500 Du        
   7109 ****        10.0000  18.5000   4.0000 Du        
   7110 ****        10.0000  18.5000   4.2500 Du        
   7111 ****        10.0000  18.5000   4.5000 Du        
   7112 ****        10.0000  18.5000   4.7500 Du        
   7113 ****        10.0000  18.5000   5.0000 Du        
   7114 ****        10.0000  18.5000   5.2500 Du        
   7115 ****        10.0000  18.5000   5.5000 Du        
   7116 ****        10.0000  18.7500   3.5000 Du        
   7117 ****        10.0000  18.7500   3.7500 Du        
   7118 ****        10.0000  18.7500   4.0000 Du        
   7119 ****        10.0000  18.7500   4.2500 Du        
   7120 ****        10.0000  18.7500   4.5000 Du        
   7121 ****        10.0000  18.7500   4.7500 Du        
   7122 ****        10.0000  18.7500   5.0000 Du        
   7123 ****        10.0000  18.7500   5.2500 Du        
   7124 ****        10.0000  18.7500   5.5000 Du        
   7125 ****        10.0000  22.7500  21.0000 Du        
   7126 ****        10.0000  22.7500  21.2500 Du        
   7127 ****        10.0000  22.7500  21.5000 Du        
   7128 ****        10.0000  22.7500  21.7500 Du        
   7129 ****        10.0000  22.7500  22.0000 Du        
   7130 ****        10.0000  23.0000  17.5000 Du        
   7131 ****        10.0000  23.0000  17.7500 Du        
   7132 ****        10.0000  23.0000  18.0000 Du        
   7133 ****        10.0000  23.0000  18.2500 Du        
   7134 ****        10.0000  23.0000  18.5000 Du        
   7135 ****        10.0000  23.0000  18.7500 Du        
   7136 ****        10.0000  23.0000  19.0000 Du        
   7137 ****        10.0000  23.0000  19.2500 Du        
   7138 ****        10.0000  23.0000  19.5000 Du        
   7139 ****        10.0000  23.0000  19.7500 Du        
   7140 ****        10.0000  23.0000  20.0000 Du        
   7141 ****        10.0000  23.0000  20.2500 Du        
   7142 ****        10.0000  23.0000  20.5000 Du        
   7143 ****        10.0000  23.0000  20.7500 Du        
   7144 ****        10.0000  23.0000  21.0000 Du        
   7145 ****        10.0000  23.0000  21.2500 Du        
   7146 ****        10.0000  23.0000  21.5000 Du        
   7147 ****        10.0000  23.0000  21.7500 Du        
   7148 ****        10.0000  23.0000  22.0000 Du        
   7149 ****        10.0000  23.0000  28.7500 Du        
   7150 ****        10.0000  23.0000  29.0000 Du        
   7151 ****        10.0000  23.2500  17.2500 Du        
   7152 ****        10.0000  23.2500  17.5000 Du        
   7153 ****        10.0000  23.2500  17.7500 Du        
   7154 ****        10.0000  23.2500  18.0000 Du        
   7155 ****        10.0000  23.2500  18.2500 Du        
   7156 ****        10.0000  23.2500  18.5000 Du        
   7157 ****        10.0000  23.2500  18.7500 Du        
   7158 ****        10.0000  23.2500  19.0000 Du        
   7159 ****        10.0000  23.2500  19.2500 Du        
   7160 ****        10.0000  23.2500  19.5000 Du        
   7161 ****        10.0000  23.2500  19.7500 Du        
   7162 ****        10.0000  23.2500  20.0000 Du        
   7163 ****        10.0000  23.2500  20.2500 Du        
   7164 ****        10.0000  23.2500  20.5000 Du        
   7165 ****        10.0000  23.2500  20.7500 Du        
   7166 ****        10.0000  23.2500  21.0000 Du        
   7167 ****        10.0000  23.2500  21.2500 Du        
   7168 ****        10.0000  23.2500  21.5000 Du        
   7169 ****        10.0000  23.2500  21.7500 Du        
   7170 ****        10.0000  23.2500  29.0000 Du        
   7171 ****        10.0000  23.2500  29.2500 Du        
   7172 ****        10.0000  23.2500  29.5000 Du        
   7173 ****        10.0000  23.5000  17.2500 Du        
   7174 ****        10.0000  23.5000  17.5000 Du        
   7175 ****        10.0000  23.5000  17.7500 Du        
   7176 ****        10.0000  23.5000  18.0000 Du        
   7177 ****        10.0000  23.5000  18.2500 Du        
   7178 ****        10.0000  23.5000  18.5000 Du        
   7179 ****        10.0000  23.5000  18.7500 Du        
   7180 ****        10.0000  23.5000  19.0000 Du        
   7181 ****        10.0000  23.5000  19.2500 Du        
   7182 ****        10.0000  23.5000  19.5000 Du        
   7183 ****        10.0000  23.5000  19.7500 Du        
   7184 ****        10.0000  23.5000  20.0000 Du        
   7185 ****        10.0000  23.5000  20.2500 Du        
   7186 ****        10.0000  23.5000  20.5000 Du        
   7187 ****        10.0000  23.5000  20.7500 Du        
   7188 ****        10.0000  23.5000  21.0000 Du        
   7189 ****        10.0000  23.5000  21.2500 Du        
   7190 ****        10.0000  23.5000  29.0000 Du        
   7191 ****        10.0000  23.5000  29.2500 Du        
   7192 ****        10.0000  23.5000  29.5000 Du        
   7193 ****        10.0000  23.5000  29.7500 Du        
   7194 ****        10.0000  23.7500  17.2500 Du        
   7195 ****        10.0000  23.7500  17.5000 Du        
   7196 ****        10.0000  23.7500  17.7500 Du        
   7197 ****        10.0000  23.7500  18.0000 Du        
   7198 ****        10.0000  23.7500  18.2500 Du        
   7199 ****        10.0000  23.7500  18.5000 Du        
   7200 ****        10.0000  23.7500  18.7500 Du        
   7201 ****        10.0000  23.7500  19.0000 Du        
   7202 ****        10.0000  23.7500  19.2500 Du        
   7203 ****        10.0000  23.7500  19.5000 Du        
   7204 ****        10.0000  23.7500  19.7500 Du        
   7205 ****        10.0000  23.7500  20.0000 Du        
   7206 ****        10.0000  23.7500  20.2500 Du        
   7207 ****        10.0000  23.7500  20.5000 Du        
   7208 ****        10.0000  23.7500  20.7500 Du        
   7209 ****        10.0000  23.7500  21.0000 Du        
   7210 ****        10.0000  23.7500  21.2500 Du        
   7211 ****        10.0000  23.7500  29.2500 Du        
   7212 ****        10.0000  23.7500  29.5000 Du        
   7213 ****        10.0000  23.7500  29.7500 Du        
   7214 ****        10.0000  23.7500  30.0000 Du        
   7215 ****        10.0000  24.0000  17.2500 Du        
   7216 ****        10.0000  24.0000  17.5000 Du        
   7217 ****        10.0000  24.0000  17.7500 Du        
   7218 ****        10.0000  24.0000  18.0000 Du        
   7219 ****        10.0000  24.0000  18.2500 Du        
   7220 ****        10.0000  24.0000  18.5000 Du        
   7221 ****        10.0000  24.0000  18.7500 Du        
   7222 ****        10.0000  24.0000  19.0000 Du        
   7223 ****        10.0000  24.0000  19.2500 Du        
   7224 ****        10.0000  24.0000  19.5000 Du        
   7225 ****        10.0000  24.0000  19.7500 Du        
   7226 ****        10.0000  24.0000  20.0000 Du        
   7227 ****        10.0000  24.0000  20.2500 Du        
   7228 ****        10.0000  24.0000  20.5000 Du        
   7229 ****        10.0000  24.0000  20.7500 Du        
   7230 ****        10.0000  24.0000  21.0000 Du        
   7231 ****        10.0000  24.0000  21.2500 Du        
   7232 ****        10.0000  24.2500  17.2500 Du        
   7233 ****        10.0000  24.2500  17.5000 Du        
   7234 ****        10.0000  24.2500  17.7500 Du        
   7235 ****        10.0000  24.2500  18.0000 Du        
   7236 ****        10.0000  24.2500  18.2500 Du        
   7237 ****        10.0000  24.2500  18.5000 Du        
   7238 ****        10.0000  24.2500  18.7500 Du        
   7239 ****        10.0000  24.2500  19.0000 Du        
   7240 ****        10.0000  24.2500  19.2500 Du        
   7241 ****        10.0000  24.2500  19.5000 Du        
   7242 ****        10.0000  24.2500  19.7500 Du        
   7243 ****        10.0000  24.2500  20.0000 Du        
   7244 ****        10.0000  24.2500  20.2500 Du        
   7245 ****        10.0000  24.2500  20.5000 Du        
   7246 ****        10.0000  24.2500  20.7500 Du        
   7247 ****        10.0000  24.2500  21.0000 Du        
   7248 ****        10.0000  24.2500  21.2500 Du        
   7249 ****        10.0000  24.5000  17.2500 Du        
   7250 ****        10.0000  24.5000  17.5000 Du        
   7251 ****        10.0000  24.5000  17.7500 Du        
   7252 ****        10.0000  24.5000  18.0000 Du        
   7253 ****        10.0000  24.5000  18.2500 Du        
   7254 ****        10.0000  24.5000  18.5000 Du        
   7255 ****        10.0000  24.5000  18.7500 Du        
   7256 ****        10.0000  24.5000  19.0000 Du        
   7257 ****        10.0000  24.5000  19.2500 Du        
   7258 ****        10.0000  24.5000  19.5000 Du        
   7259 ****        10.0000  24.5000  19.7500 Du        
   7260 ****        10.0000  24.5000  20.0000 Du        
   7261 ****        10.0000  24.5000  20.2500 Du        
   7262 ****        10.0000  24.5000  20.5000 Du        
   7263 ****        10.0000  24.5000  20.7500 Du        
   7264 ****        10.0000  24.5000  21.0000 Du        
   7265 ****        10.0000  24.7500  17.2500 Du        
   7266 ****        10.0000  24.7500  17.5000 Du        
   7267 ****        10.0000  24.7500  17.7500 Du        
   7268 ****        10.0000  24.7500  18.0000 Du        
   7269 ****        10.0000  24.7500  18.2500 Du        
   7270 ****        10.0000  24.7500  18.5000 Du        
   7271 ****        10.0000  24.7500  18.7500 Du        
   7272 ****        10.0000  24.7500  19.0000 Du        
   7273 ****        10.0000  24.7500  19.2500 Du        
   7274 ****        10.0000  24.7500  19.5000 Du        
   7275 ****        10.0000  24.7500  19.7500 Du        
   7276 ****        10.0000  24.7500  20.0000 Du        
   7277 ****        10.0000  24.7500  20.2500 Du        
   7278 ****        10.0000  24.7500  20.5000 Du        
   7279 ****        10.0000  24.7500  20.7500 Du        
   7280 ****        10.0000  24.7500  21.0000 Du        
   7281 ****        10.0000  25.0000  17.2500 Du        
   7282 ****        10.0000  25.0000  17.5000 Du        
   7283 ****        10.0000  25.0000  17.7500 Du        
   7284 ****        10.0000  25.0000  18.0000 Du        
   7285 ****        10.0000  25.0000  18.2500 Du        
   7286 ****        10.0000  25.0000  18.5000 Du        
   7287 ****        10.0000  25.0000  18.7500 Du        
   7288 ****        10.0000  25.0000  19.0000 Du        
   7289 ****        10.0000  25.0000  19.2500 Du        
   7290 ****        10.0000  25.0000  19.5000 Du        
   7291 ****        10.0000  25.0000  19.7500 Du        
   7292 ****        10.0000  25.0000  20.0000 Du        
   7293 ****        10.0000  25.0000  20.2500 Du        
   7294 ****        10.0000  25.0000  20.5000 Du        
   7295 ****        10.0000  25.0000  20.7500 Du        
   7296 ****        10.0000  25.0000  21.0000 Du        
   7297 ****        10.0000  25.2500  17.2500 Du        
   7298 ****        10.0000  25.2500  17.5000 Du        
   7299 ****        10.0000  25.2500  17.7500 Du        
   7300 ****        10.0000  25.2500  18.0000 Du        
   7301 ****        10.0000  25.2500  18.2500 Du        
   7302 ****        10.0000  25.2500  18.5000 Du        
   7303 ****        10.0000  25.2500  18.7500 Du        
   7304 ****        10.0000  25.2500  19.0000 Du        
   7305 ****        10.0000  25.2500  19.2500 Du        
   7306 ****        10.0000  25.2500  19.5000 Du        
   7307 ****        10.0000  25.2500  19.7500 Du        
   7308 ****        10.0000  25.2500  20.0000 Du        
   7309 ****        10.0000  25.2500  20.2500 Du        
   7310 ****        10.0000  25.2500  20.5000 Du        
   7311 ****        10.0000  25.2500  20.7500 Du        
   7312 ****        10.0000  25.5000  17.7500 Du        
   7313 ****        10.0000  25.5000  18.0000 Du        
   7314 ****        10.0000  25.5000  18.2500 Du        
   7315 ****        10.0000  25.5000  18.5000 Du        
   7316 ****        10.0000  25.5000  18.7500 Du        
   7317 ****        10.0000  25.5000  19.0000 Du        
   7318 ****        10.0000  25.5000  19.2500 Du        
   7319 ****        10.0000  25.5000  19.5000 Du        
   7320 ****        10.0000  25.5000  19.7500 Du        
   7321 ****        10.0000  25.5000  20.0000 Du        
   7322 ****        10.0000  25.5000  20.2500 Du        
   7323 ****        10.0000  25.5000  20.5000 Du        
   7324 ****        10.0000  25.5000  20.7500 Du        
   7325 ****        10.0000  25.7500  18.0000 Du        
   7326 ****        10.0000  25.7500  18.2500 Du        
   7327 ****        10.0000  25.7500  18.5000 Du        
   7328 ****        10.0000  25.7500  18.7500 Du        
   7329 ****        10.0000  25.7500  19.0000 Du        
   7330 ****        10.0000  25.7500  19.2500 Du        
   7331 ****        10.0000  25.7500  19.5000 Du        
   7332 ****        10.0000  25.7500  19.7500 Du        
   7333 ****        10.0000  25.7500  20.0000 Du        
   7334 ****        10.0000  25.7500  20.2500 Du        
   7335 ****        10.0000  25.7500  20.5000 Du        
   7336 ****        10.0000  25.7500  20.7500 Du        
   7337 ****        10.0000  26.0000  18.7500 Du        
   7338 ****        10.0000  26.0000  19.0000 Du        
   7339 ****        10.0000  26.0000  19.2500 Du        
   7340 ****        10.0000  26.0000  19.5000 Du        
   7341 ****        10.0000  26.0000  19.7500 Du        
   7342 ****        10.0000  26.0000  20.0000 Du        
   7343 ****        10.0000  26.0000  20.2500 Du        
   7344 ****        10.0000  26.0000  20.5000 Du        
   7345 ****        10.0000  26.0000  20.7500 Du        
   7346 ****        10.0000  26.2500  19.0000 Du        
   7347 ****        10.0000  26.2500  19.2500 Du        
   7348 ****        10.0000  26.2500  19.5000 Du        
   7349 ****        10.0000  26.2500  19.7500 Du        
   7350 ****        10.0000  26.2500  20.0000 Du        
   7351 ****        10.0000  26.2500  20.2500 Du        
   7352 ****        10.0000  26.2500  20.5000 Du        
   7353 ****        10.0000  26.2500  20.7500 Du        
   7354 ****        10.0000  26.5000  19.5000 Du        
   7355 ****        10.0000  26.5000  19.7500 Du        
   7356 ****        10.0000  26.5000  20.0000 Du        
   7357 ****        10.0000  26.5000  20.2500 Du        
   7358 ****        10.0000  26.5000  20.5000 Du        
   7359 ****        10.0000  26.5000  20.7500 Du        
   7360 ****        10.0000  26.7500  19.5000 Du        
   7361 ****        10.0000  26.7500  19.7500 Du        
   7362 ****        10.0000  26.7500  20.0000 Du        
   7363 ****        10.0000  26.7500  20.2500 Du        
   7364 ****        10.0000  26.7500  20.5000 Du        
   7365 ****        10.0000  26.7500  20.7500 Du        
   7366 ****        10.0000  27.0000  19.7500 Du        
   7367 ****        10.0000  27.0000  20.0000 Du        
   7368 ****        10.0000  27.0000  20.2500 Du        
   7369 ****        10.0000  27.0000  20.5000 Du        
   7370 ****        10.0000  27.2500  19.7500 Du        
   7371 ****        10.0000  27.2500  20.0000 Du        
   7372 ****        10.0000  27.2500  20.2500 Du        
   7373 ****        10.0000  27.2500  20.5000 Du        
   7374 ****        10.0000  27.5000  20.0000 Du        
   7375 ****        10.0000  27.5000  20.2500 Du        
   7376 ****        10.0000  27.5000  20.5000 Du        
   7377 ****        10.0000  27.7500  20.0000 Du        
   7378 ****        10.0000  27.7500  20.2500 Du        
   7379 ****        10.0000  27.7500  20.5000 Du        
   7380 ****        10.0000  28.0000  20.2500 Du        
   7381 ****        10.0000  28.0000  20.5000 Du        
   7382 ****        10.0000  28.2500  20.2500 Du        
   7383 ****        10.0000  28.2500  20.5000 Du        
   7384 ****        10.0000  28.5000  20.2500 Du        
   7385 ****        10.0000  28.5000  20.5000 Du        
   7386 ****        10.0000  31.0000  26.2500 Du        
   7387 ****        10.0000  31.2500  25.0000 Du        
   7388 ****        10.0000  31.2500  25.2500 Du        
   7389 ****        10.0000  31.2500  25.5000 Du        
   7390 ****        10.0000  31.2500  25.7500 Du        
   7391 ****        10.0000  31.2500  26.0000 Du        
   7392 ****        10.0000  31.2500  26.2500 Du        
   7393 ****        10.0000  31.2500  26.5000 Du        
   7394 ****        10.0000  31.5000  24.7500 Du        
   7395 ****        10.0000  31.5000  25.0000 Du        
   7396 ****        10.0000  31.5000  25.2500 Du        
   7397 ****        10.0000  31.5000  25.5000 Du        
   7398 ****        10.0000  31.5000  25.7500 Du        
   7399 ****        10.0000  31.5000  26.0000 Du        
   7400 ****        10.0000  31.5000  26.2500 Du        
   7401 ****        10.0000  31.5000  26.5000 Du        
   7402 ****        10.0000  31.5000  26.7500 Du        
   7403 ****        10.0000  31.7500  24.7500 Du        
   7404 ****        10.0000  31.7500  25.0000 Du        
   7405 ****        10.0000  31.7500  25.2500 Du        
   7406 ****        10.0000  31.7500  25.5000 Du        
   7407 ****        10.0000  31.7500  25.7500 Du        
   7408 ****        10.0000  31.7500  26.0000 Du        
   7409 ****        10.0000  31.7500  26.2500 Du        
   7410 ****        10.0000  31.7500  26.5000 Du        
   7411 ****        10.0000  31.7500  26.7500 Du        
   7412 ****        10.0000  31.7500  27.0000 Du        
   7413 ****        10.0000  32.0000  24.7500 Du        
   7414 ****        10.0000  32.0000  25.0000 Du        
   7415 ****        10.0000  32.0000  25.2500 Du        
   7416 ****        10.0000  32.0000  25.5000 Du        
   7417 ****        10.0000  32.0000  25.7500 Du        
   7418 ****        10.0000  32.0000  26.0000 Du        
   7419 ****        10.0000  32.0000  26.2500 Du        
   7420 ****        10.0000  32.0000  26.5000 Du        
   7421 ****        10.0000  32.0000  26.7500 Du        
   7422 ****        10.0000  32.0000  27.0000 Du        
   7423 ****        10.0000  32.2500  24.7500 Du        
   7424 ****        10.0000  32.2500  25.0000 Du        
   7425 ****        10.0000  32.2500  25.2500 Du        
   7426 ****        10.0000  32.2500  25.5000 Du        
   7427 ****        10.0000  32.2500  25.7500 Du        
   7428 ****        10.0000  32.2500  26.0000 Du        
   7429 ****        10.0000  32.2500  26.2500 Du        
   7430 ****        10.0000  32.2500  26.5000 Du        
   7431 ****        10.0000  32.2500  26.7500 Du        
   7432 ****        10.0000  32.2500  27.0000 Du        
   7433 ****        10.0000  32.5000  25.0000 Du        
   7434 ****        10.0000  32.5000  25.2500 Du        
   7435 ****        10.0000  32.5000  25.5000 Du        
   7436 ****        10.0000  32.5000  25.7500 Du        
   7437 ****        10.0000  32.5000  26.0000 Du        
   7438 ****        10.0000  32.5000  26.2500 Du        
   7439 ****        10.0000  32.5000  26.5000 Du        
   7440 ****        10.0000  32.5000  26.7500 Du        
   7441 ****        10.0000  32.7500  25.0000 Du        
   7442 ****        10.0000  32.7500  25.2500 Du        
   7443 ****        10.0000  32.7500  25.5000 Du        
   7444 ****        10.0000  32.7500  25.7500 Du        
   7445 ****        10.0000  32.7500  26.0000 Du        
   7446 ****        10.0000  32.7500  26.2500 Du        
   7447 ****        10.0000  32.7500  26.5000 Du        
   7448 ****        10.0000  33.0000  25.2500 Du        
   7449 ****        10.0000  33.0000  25.5000 Du        
   7450 ****        10.0000  33.0000  25.7500 Du        
   7451 ****        10.0000  33.0000  26.0000 Du        
   7452 ****        10.0000  33.0000  26.2500 Du        
   7453 ****        10.0000  33.2500  25.2500 Du        
   7454 ****        10.0000  33.2500  25.5000 Du        
   7455 ****        10.0000  33.2500  25.7500 Du        
   7456 ****        10.0000  33.2500  26.0000 Du        
   7457 ****        10.0000  33.2500  26.2500 Du        
   7458 ****        10.0000  33.5000  25.7500 Du        
   7459 ****        10.0000  35.0000   3.2500 Du        
   7460 ****        10.0000  35.0000   3.5000 Du        
   7461 ****        10.0000  35.2500   3.2500 Du        
   7462 ****        10.0000  35.2500   3.5000 Du        
   7463 ****        10.0000  35.2500   3.7500 Du        
   7464 ****        10.0000  35.5000   3.2500 Du        
   7465 ****        10.0000  39.7500   9.0000 Du        
   7466 ****        10.0000  39.7500   9.2500 Du        
   7467 ****        10.0000  39.7500   9.5000 Du        
   7468 ****        10.0000  39.7500   9.7500 Du        
   7469 ****        10.2500  18.0000   4.0000 Du        
   7470 ****        10.2500  18.0000   4.2500 Du        
   7471 ****        10.2500  18.0000   4.5000 Du        
   7472 ****        10.2500  18.0000   4.7500 Du        
   7473 ****        10.2500  18.0000   5.0000 Du        
   7474 ****        10.2500  18.2500   4.0000 Du        
   7475 ****        10.2500  18.2500   4.2500 Du        
   7476 ****        10.2500  18.2500   4.5000 Du        
   7477 ****        10.2500  18.2500   4.7500 Du        
   7478 ****        10.2500  18.2500   5.0000 Du        
   7479 ****        10.2500  18.2500   5.2500 Du        
   7480 ****        10.2500  18.2500   5.5000 Du        
   7481 ****        10.2500  18.5000   3.5000 Du        
   7482 ****        10.2500  18.5000   3.7500 Du        
   7483 ****        10.2500  18.5000   4.0000 Du        
   7484 ****        10.2500  18.5000   4.2500 Du        
   7485 ****        10.2500  18.5000   4.5000 Du        
   7486 ****        10.2500  18.5000   4.7500 Du        
   7487 ****        10.2500  18.5000   5.0000 Du        
   7488 ****        10.2500  18.5000   5.2500 Du        
   7489 ****        10.2500  18.5000   5.5000 Du        
   7490 ****        10.2500  18.7500   5.5000 Du        
   7491 ****        10.2500  22.7500  21.0000 Du        
   7492 ****        10.2500  22.7500  21.2500 Du        
   7493 ****        10.2500  22.7500  21.5000 Du        
   7494 ****        10.2500  22.7500  21.7500 Du        
   7495 ****        10.2500  22.7500  22.0000 Du        
   7496 ****        10.2500  23.0000  17.2500 Du        
   7497 ****        10.2500  23.0000  17.5000 Du        
   7498 ****        10.2500  23.0000  17.7500 Du        
   7499 ****        10.2500  23.0000  18.0000 Du        
   7500 ****        10.2500  23.0000  18.2500 Du        
   7501 ****        10.2500  23.0000  18.5000 Du        
   7502 ****        10.2500  23.0000  18.7500 Du        
   7503 ****        10.2500  23.0000  19.0000 Du        
   7504 ****        10.2500  23.0000  19.2500 Du        
   7505 ****        10.2500  23.0000  20.0000 Du        
   7506 ****        10.2500  23.0000  20.2500 Du        
   7507 ****        10.2500  23.0000  20.5000 Du        
   7508 ****        10.2500  23.0000  20.7500 Du        
   7509 ****        10.2500  23.0000  21.0000 Du        
   7510 ****        10.2500  23.0000  21.2500 Du        
   7511 ****        10.2500  23.0000  21.5000 Du        
   7512 ****        10.2500  23.0000  21.7500 Du        
   7513 ****        10.2500  23.0000  22.0000 Du        
   7514 ****        10.2500  23.0000  29.0000 Du        
   7515 ****        10.2500  23.2500  17.0000 Du        
   7516 ****        10.2500  23.2500  17.2500 Du        
   7517 ****        10.2500  23.2500  17.5000 Du        
   7518 ****        10.2500  23.2500  17.7500 Du        
   7519 ****        10.2500  23.2500  18.0000 Du        
   7520 ****        10.2500  23.2500  18.2500 Du        
   7521 ****        10.2500  23.2500  18.5000 Du        
   7522 ****        10.2500  23.2500  18.7500 Du        
   7523 ****        10.2500  23.2500  19.0000 Du        
   7524 ****        10.2500  23.2500  19.2500 Du        
   7525 ****        10.2500  23.2500  19.5000 Du        
   7526 ****        10.2500  23.2500  19.7500 Du        
   7527 ****        10.2500  23.2500  20.0000 Du        
   7528 ****        10.2500  23.2500  20.2500 Du        
   7529 ****        10.2500  23.2500  20.5000 Du        
   7530 ****        10.2500  23.2500  20.7500 Du        
   7531 ****        10.2500  23.2500  21.0000 Du        
   7532 ****        10.2500  23.2500  21.2500 Du        
   7533 ****        10.2500  23.2500  21.5000 Du        
   7534 ****        10.2500  23.2500  21.7500 Du        
   7535 ****        10.2500  23.2500  29.0000 Du        
   7536 ****        10.2500  23.2500  29.2500 Du        
   7537 ****        10.2500  23.5000  17.0000 Du        
   7538 ****        10.2500  23.5000  17.2500 Du        
   7539 ****        10.2500  23.5000  17.5000 Du        
   7540 ****        10.2500  23.5000  17.7500 Du        
   7541 ****        10.2500  23.5000  18.0000 Du        
   7542 ****        10.2500  23.5000  18.2500 Du        
   7543 ****        10.2500  23.5000  18.5000 Du        
   7544 ****        10.2500  23.5000  18.7500 Du        
   7545 ****        10.2500  23.5000  19.0000 Du        
   7546 ****        10.2500  23.5000  19.2500 Du        
   7547 ****        10.2500  23.5000  19.5000 Du        
   7548 ****        10.2500  23.5000  19.7500 Du        
   7549 ****        10.2500  23.5000  20.0000 Du        
   7550 ****        10.2500  23.5000  20.2500 Du        
   7551 ****        10.2500  23.5000  20.5000 Du        
   7552 ****        10.2500  23.5000  20.7500 Du        
   7553 ****        10.2500  23.5000  21.0000 Du        
   7554 ****        10.2500  23.5000  21.2500 Du        
   7555 ****        10.2500  23.5000  29.2500 Du        
   7556 ****        10.2500  23.5000  29.5000 Du        
   7557 ****        10.2500  23.5000  29.7500 Du        
   7558 ****        10.2500  23.5000  30.0000 Du        
   7559 ****        10.2500  23.7500  17.0000 Du        
   7560 ****        10.2500  23.7500  17.2500 Du        
   7561 ****        10.2500  23.7500  17.5000 Du        
   7562 ****        10.2500  23.7500  17.7500 Du        
   7563 ****        10.2500  23.7500  18.0000 Du        
   7564 ****        10.2500  23.7500  18.2500 Du        
   7565 ****        10.2500  23.7500  18.5000 Du        
   7566 ****        10.2500  23.7500  18.7500 Du        
   7567 ****        10.2500  23.7500  19.0000 Du        
   7568 ****        10.2500  23.7500  19.2500 Du        
   7569 ****        10.2500  23.7500  19.5000 Du        
   7570 ****        10.2500  23.7500  19.7500 Du        
   7571 ****        10.2500  23.7500  20.0000 Du        
   7572 ****        10.2500  23.7500  20.2500 Du        
   7573 ****        10.2500  23.7500  20.5000 Du        
   7574 ****        10.2500  23.7500  20.7500 Du        
   7575 ****        10.2500  23.7500  21.0000 Du        
   7576 ****        10.2500  23.7500  21.2500 Du        
   7577 ****        10.2500  23.7500  29.2500 Du        
   7578 ****        10.2500  23.7500  29.5000 Du        
   7579 ****        10.2500  23.7500  29.7500 Du        
   7580 ****        10.2500  23.7500  30.0000 Du        
   7581 ****        10.2500  23.7500  30.2500 Du        
   7582 ****        10.2500  24.0000  17.0000 Du        
   7583 ****        10.2500  24.0000  17.2500 Du        
   7584 ****        10.2500  24.0000  17.5000 Du        
   7585 ****        10.2500  24.0000  17.7500 Du        
   7586 ****        10.2500  24.0000  18.0000 Du        
   7587 ****        10.2500  24.0000  18.2500 Du        
   7588 ****        10.2500  24.0000  18.5000 Du        
   7589 ****        10.2500  24.0000  18.7500 Du        
   7590 ****        10.2500  24.0000  19.0000 Du        
   7591 ****        10.2500  24.0000  19.2500 Du        
   7592 ****        10.2500  24.0000  19.5000 Du        
   7593 ****        10.2500  24.0000  19.7500 Du        
   7594 ****        10.2500  24.0000  20.0000 Du        
   7595 ****        10.2500  24.0000  20.2500 Du        
   7596 ****        10.2500  24.0000  20.5000 Du        
   7597 ****        10.2500  24.0000  20.7500 Du        
   7598 ****        10.2500  24.0000  21.0000 Du        
   7599 ****        10.2500  24.0000  21.2500 Du        
   7600 ****        10.2500  24.0000  21.5000 Du        
   7601 ****        10.2500  24.0000  29.7500 Du        
   7602 ****        10.2500  24.0000  30.0000 Du        
   7603 ****        10.2500  24.0000  30.2500 Du        
   7604 ****        10.2500  24.2500  17.0000 Du        
   7605 ****        10.2500  24.2500  17.2500 Du        
   7606 ****        10.2500  24.2500  17.5000 Du        
   7607 ****        10.2500  24.2500  17.7500 Du        
   7608 ****        10.2500  24.2500  18.0000 Du        
   7609 ****        10.2500  24.2500  18.2500 Du        
   7610 ****        10.2500  24.2500  18.5000 Du        
   7611 ****        10.2500  24.2500  18.7500 Du        
   7612 ****        10.2500  24.2500  19.0000 Du        
   7613 ****        10.2500  24.2500  19.2500 Du        
   7614 ****        10.2500  24.2500  19.5000 Du        
   7615 ****        10.2500  24.2500  19.7500 Du        
   7616 ****        10.2500  24.2500  20.0000 Du        
   7617 ****        10.2500  24.2500  20.2500 Du        
   7618 ****        10.2500  24.2500  20.5000 Du        
   7619 ****        10.2500  24.2500  20.7500 Du        
   7620 ****        10.2500  24.2500  21.0000 Du        
   7621 ****        10.2500  24.2500  21.2500 Du        
   7622 ****        10.2500  24.5000  17.2500 Du        
   7623 ****        10.2500  24.5000  17.5000 Du        
   7624 ****        10.2500  24.5000  17.7500 Du        
   7625 ****        10.2500  24.5000  18.0000 Du        
   7626 ****        10.2500  24.5000  18.2500 Du        
   7627 ****        10.2500  24.5000  18.5000 Du        
   7628 ****        10.2500  24.5000  18.7500 Du        
   7629 ****        10.2500  24.5000  19.0000 Du        
   7630 ****        10.2500  24.5000  19.2500 Du        
   7631 ****        10.2500  24.5000  19.5000 Du        
   7632 ****        10.2500  24.5000  19.7500 Du        
   7633 ****        10.2500  24.5000  20.0000 Du        
   7634 ****        10.2500  24.5000  20.2500 Du        
   7635 ****        10.2500  24.5000  20.7500 Du        
   7636 ****        10.2500  24.5000  21.0000 Du        
   7637 ****        10.2500  24.7500  17.2500 Du        
   7638 ****        10.2500  24.7500  17.5000 Du        
   7639 ****        10.2500  24.7500  17.7500 Du        
   7640 ****        10.2500  24.7500  18.0000 Du        
   7641 ****        10.2500  24.7500  18.2500 Du        
   7642 ****        10.2500  24.7500  18.5000 Du        
   7643 ****        10.2500  24.7500  18.7500 Du        
   7644 ****        10.2500  24.7500  19.0000 Du        
   7645 ****        10.2500  24.7500  19.2500 Du        
   7646 ****        10.2500  24.7500  19.5000 Du        
   7647 ****        10.2500  24.7500  19.7500 Du        
   7648 ****        10.2500  24.7500  20.0000 Du        
   7649 ****        10.2500  24.7500  20.2500 Du        
   7650 ****        10.2500  24.7500  20.5000 Du        
   7651 ****        10.2500  24.7500  20.7500 Du        
   7652 ****        10.2500  24.7500  21.0000 Du        
   7653 ****        10.2500  25.0000  17.2500 Du        
   7654 ****        10.2500  25.0000  17.5000 Du        
   7655 ****        10.2500  25.0000  17.7500 Du        
   7656 ****        10.2500  25.0000  18.0000 Du        
   7657 ****        10.2500  25.0000  18.2500 Du        
   7658 ****        10.2500  25.0000  18.5000 Du        
   7659 ****        10.2500  25.0000  18.7500 Du        
   7660 ****        10.2500  25.0000  19.0000 Du        
   7661 ****        10.2500  25.0000  19.2500 Du        
   7662 ****        10.2500  25.0000  19.5000 Du        
   7663 ****        10.2500  25.0000  19.7500 Du        
   7664 ****        10.2500  25.0000  20.0000 Du        
   7665 ****        10.2500  25.0000  20.2500 Du        
   7666 ****        10.2500  25.0000  20.5000 Du        
   7667 ****        10.2500  25.0000  20.7500 Du        
   7668 ****        10.2500  25.0000  21.0000 Du        
   7669 ****        10.2500  25.2500  17.2500 Du        
   7670 ****        10.2500  25.2500  17.5000 Du        
   7671 ****        10.2500  25.2500  17.7500 Du        
   7672 ****        10.2500  25.2500  18.0000 Du        
   7673 ****        10.2500  25.2500  18.2500 Du        
   7674 ****        10.2500  25.2500  18.5000 Du        
   7675 ****        10.2500  25.2500  18.7500 Du        
   7676 ****        10.2500  25.2500  19.0000 Du        
   7677 ****        10.2500  25.2500  19.2500 Du        
   7678 ****        10.2500  25.2500  19.5000 Du        
   7679 ****        10.2500  25.2500  19.7500 Du        
   7680 ****        10.2500  25.2500  20.0000 Du        
   7681 ****        10.2500  25.2500  20.2500 Du        
   7682 ****        10.2500  25.2500  20.5000 Du        
   7683 ****        10.2500  25.2500  20.7500 Du        
   7684 ****        10.2500  25.5000  18.0000 Du        
   7685 ****        10.2500  25.5000  18.2500 Du        
   7686 ****        10.2500  25.5000  18.5000 Du        
   7687 ****        10.2500  25.5000  18.7500 Du        
   7688 ****        10.2500  25.5000  19.0000 Du        
   7689 ****        10.2500  25.5000  19.2500 Du        
   7690 ****        10.2500  25.5000  19.7500 Du        
   7691 ****        10.2500  25.5000  20.0000 Du        
   7692 ****        10.2500  25.5000  20.2500 Du        
   7693 ****        10.2500  25.7500  18.0000 Du        
   7694 ****        10.2500  25.7500  18.2500 Du        
   7695 ****        10.2500  25.7500  18.5000 Du        
   7696 ****        10.2500  25.7500  18.7500 Du        
   7697 ****        10.2500  25.7500  19.0000 Du        
   7698 ****        10.2500  25.7500  19.2500 Du        
   7699 ****        10.2500  25.7500  19.5000 Du        
   7700 ****        10.2500  25.7500  19.7500 Du        
   7701 ****        10.2500  25.7500  20.0000 Du        
   7702 ****        10.2500  25.7500  20.2500 Du        
   7703 ****        10.2500  25.7500  20.5000 Du        
   7704 ****        10.2500  25.7500  20.7500 Du        
   7705 ****        10.2500  26.0000  18.7500 Du        
   7706 ****        10.2500  26.0000  19.0000 Du        
   7707 ****        10.2500  26.0000  19.2500 Du        
   7708 ****        10.2500  26.0000  19.5000 Du        
   7709 ****        10.2500  26.0000  19.7500 Du        
   7710 ****        10.2500  26.0000  20.0000 Du        
   7711 ****        10.2500  26.0000  20.2500 Du        
   7712 ****        10.2500  26.0000  20.5000 Du        
   7713 ****        10.2500  26.0000  20.7500 Du        
   7714 ****        10.2500  26.2500  19.0000 Du        
   7715 ****        10.2500  26.2500  19.2500 Du        
   7716 ****        10.2500  26.2500  19.5000 Du        
   7717 ****        10.2500  26.2500  19.7500 Du        
   7718 ****        10.2500  26.2500  20.0000 Du        
   7719 ****        10.2500  26.2500  20.2500 Du        
   7720 ****        10.2500  26.2500  20.5000 Du        
   7721 ****        10.2500  26.2500  20.7500 Du        
   7722 ****        10.2500  26.2500  21.0000 Du        
   7723 ****        10.2500  26.5000  19.2500 Du        
   7724 ****        10.2500  26.5000  19.5000 Du        
   7725 ****        10.2500  26.5000  19.7500 Du        
   7726 ****        10.2500  26.5000  20.0000 Du        
   7727 ****        10.2500  26.5000  20.2500 Du        
   7728 ****        10.2500  26.5000  20.5000 Du        
   7729 ****        10.2500  26.5000  20.7500 Du        
   7730 ****        10.2500  26.5000  21.0000 Du        
   7731 ****        10.2500  26.7500  19.5000 Du        
   7732 ****        10.2500  26.7500  19.7500 Du        
   7733 ****        10.2500  26.7500  20.0000 Du        
   7734 ****        10.2500  26.7500  20.2500 Du        
   7735 ****        10.2500  26.7500  20.5000 Du        
   7736 ****        10.2500  26.7500  20.7500 Du        
   7737 ****        10.2500  26.7500  21.0000 Du        
   7738 ****        10.2500  27.0000  19.7500 Du        
   7739 ****        10.2500  27.0000  20.0000 Du        
   7740 ****        10.2500  27.0000  20.2500 Du        
   7741 ****        10.2500  27.0000  20.5000 Du        
   7742 ****        10.2500  27.0000  20.7500 Du        
   7743 ****        10.2500  27.2500  19.7500 Du        
   7744 ****        10.2500  27.2500  20.0000 Du        
   7745 ****        10.2500  27.2500  20.2500 Du        
   7746 ****        10.2500  27.2500  20.5000 Du        
   7747 ****        10.2500  27.2500  20.7500 Du        
   7748 ****        10.2500  27.5000  19.7500 Du        
   7749 ****        10.2500  27.5000  20.0000 Du        
   7750 ****        10.2500  27.5000  20.2500 Du        
   7751 ****        10.2500  27.5000  20.5000 Du        
   7752 ****        10.2500  27.5000  20.7500 Du        
   7753 ****        10.2500  27.7500  20.0000 Du        
   7754 ****        10.2500  27.7500  20.2500 Du        
   7755 ****        10.2500  27.7500  20.5000 Du        
   7756 ****        10.2500  27.7500  20.7500 Du        
   7757 ****        10.2500  28.0000  20.0000 Du        
   7758 ****        10.2500  28.0000  20.2500 Du        
   7759 ****        10.2500  28.0000  20.5000 Du        
   7760 ****        10.2500  28.0000  20.7500 Du        
   7761 ****        10.2500  28.2500  20.0000 Du        
   7762 ****        10.2500  28.2500  20.2500 Du        
   7763 ****        10.2500  28.2500  20.5000 Du        
   7764 ****        10.2500  28.2500  20.7500 Du        
   7765 ****        10.2500  28.5000  20.0000 Du        
   7766 ****        10.2500  28.5000  20.2500 Du        
   7767 ****        10.2500  28.5000  20.5000 Du        
   7768 ****        10.2500  28.5000  20.7500 Du        
   7769 ****        10.2500  28.7500  20.0000 Du        
   7770 ****        10.2500  28.7500  20.2500 Du        
   7771 ****        10.2500  28.7500  20.5000 Du        
   7772 ****        10.2500  28.7500  20.7500 Du        
   7773 ****        10.2500  29.0000  20.2500 Du        
   7774 ****        10.2500  31.0000  26.2500 Du        
   7775 ****        10.2500  31.2500  25.0000 Du        
   7776 ****        10.2500  31.2500  25.2500 Du        
   7777 ****        10.2500  31.2500  25.5000 Du        
   7778 ****        10.2500  31.2500  25.7500 Du        
   7779 ****        10.2500  31.2500  26.0000 Du        
   7780 ****        10.2500  31.2500  26.2500 Du        
   7781 ****        10.2500  31.2500  26.5000 Du        
   7782 ****        10.2500  31.5000  24.5000 Du        
   7783 ****        10.2500  31.5000  24.7500 Du        
   7784 ****        10.2500  31.5000  25.0000 Du        
   7785 ****        10.2500  31.5000  25.2500 Du        
   7786 ****        10.2500  31.5000  25.5000 Du        
   7787 ****        10.2500  31.5000  25.7500 Du        
   7788 ****        10.2500  31.5000  26.0000 Du        
   7789 ****        10.2500  31.5000  26.2500 Du        
   7790 ****        10.2500  31.5000  26.5000 Du        
   7791 ****        10.2500  31.5000  26.7500 Du        
   7792 ****        10.2500  31.7500  24.5000 Du        
   7793 ****        10.2500  31.7500  24.7500 Du        
   7794 ****        10.2500  31.7500  25.0000 Du        
   7795 ****        10.2500  31.7500  25.2500 Du        
   7796 ****        10.2500  31.7500  25.5000 Du        
   7797 ****        10.2500  31.7500  25.7500 Du        
   7798 ****        10.2500  31.7500  26.0000 Du        
   7799 ****        10.2500  31.7500  26.2500 Du        
   7800 ****        10.2500  31.7500  26.5000 Du        
   7801 ****        10.2500  31.7500  26.7500 Du        
   7802 ****        10.2500  32.0000  24.7500 Du        
   7803 ****        10.2500  32.0000  25.0000 Du        
   7804 ****        10.2500  32.0000  25.2500 Du        
   7805 ****        10.2500  32.0000  25.5000 Du        
   7806 ****        10.2500  32.0000  25.7500 Du        
   7807 ****        10.2500  32.0000  26.0000 Du        
   7808 ****        10.2500  32.0000  26.2500 Du        
   7809 ****        10.2500  32.0000  26.5000 Du        
   7810 ****        10.2500  32.0000  26.7500 Du        
   7811 ****        10.2500  32.0000  27.0000 Du        
   7812 ****        10.2500  32.2500  24.7500 Du        
   7813 ****        10.2500  32.2500  25.0000 Du        
   7814 ****        10.2500  32.2500  25.2500 Du        
   7815 ****        10.2500  32.2500  25.5000 Du        
   7816 ****        10.2500  32.2500  25.7500 Du        
   7817 ****        10.2500  32.2500  26.0000 Du        
   7818 ****        10.2500  32.2500  26.2500 Du        
   7819 ****        10.2500  32.2500  26.5000 Du        
   7820 ****        10.2500  32.2500  26.7500 Du        
   7821 ****        10.2500  32.2500  27.0000 Du        
   7822 ****        10.2500  32.5000  25.0000 Du        
   7823 ****        10.2500  32.5000  25.2500 Du        
   7824 ****        10.2500  32.5000  25.5000 Du        
   7825 ****        10.2500  32.5000  25.7500 Du        
   7826 ****        10.2500  32.5000  26.0000 Du        
   7827 ****        10.2500  32.5000  26.2500 Du        
   7828 ****        10.2500  32.5000  26.5000 Du        
   7829 ****        10.2500  32.5000  26.7500 Du        
   7830 ****        10.2500  32.7500  25.0000 Du        
   7831 ****        10.2500  32.7500  25.2500 Du        
   7832 ****        10.2500  32.7500  25.5000 Du        
   7833 ****        10.2500  32.7500  25.7500 Du        
   7834 ****        10.2500  32.7500  26.0000 Du        
   7835 ****        10.2500  32.7500  26.2500 Du        
   7836 ****        10.2500  32.7500  26.5000 Du        
   7837 ****        10.2500  33.0000  25.0000 Du        
   7838 ****        10.2500  33.0000  25.2500 Du        
   7839 ****        10.2500  33.0000  25.5000 Du        
   7840 ****        10.2500  33.0000  25.7500 Du        
   7841 ****        10.2500  33.0000  26.0000 Du        
   7842 ****        10.2500  33.0000  26.2500 Du        
   7843 ****        10.2500  33.2500  25.2500 Du        
   7844 ****        10.2500  33.2500  25.5000 Du        
   7845 ****        10.2500  33.2500  25.7500 Du        
   7846 ****        10.2500  33.2500  26.0000 Du        
   7847 ****        10.2500  33.2500  26.2500 Du        
   7848 ****        10.2500  33.5000  25.7500 Du        
   7849 ****        10.2500  35.0000   3.2500 Du        
   7850 ****        10.2500  35.0000   3.5000 Du        
   7851 ****        10.2500  35.2500   3.2500 Du        
   7852 ****        10.2500  35.2500   3.5000 Du        
   7853 ****        10.2500  35.2500   3.7500 Du        
   7854 ****        10.2500  35.5000   3.2500 Du        
   7855 ****        10.2500  39.7500   8.5000 Du        
   7856 ****        10.2500  39.7500   9.0000 Du        
   7857 ****        10.5000  17.7500   4.5000 Du        
   7858 ****        10.5000  18.0000   4.0000 Du        
   7859 ****        10.5000  18.0000   4.2500 Du        
   7860 ****        10.5000  18.0000   4.5000 Du        
   7861 ****        10.5000  18.0000   4.7500 Du        
   7862 ****        10.5000  18.0000   5.0000 Du        
   7863 ****        10.5000  18.2500   4.0000 Du        
   7864 ****        10.5000  18.2500   4.2500 Du        
   7865 ****        10.5000  18.2500   4.5000 Du        
   7866 ****        10.5000  18.2500   4.7500 Du        
   7867 ****        10.5000  18.2500   5.0000 Du        
   7868 ****        10.5000  18.2500   5.2500 Du        
   7869 ****        10.5000  18.2500   5.5000 Du        
   7870 ****        10.5000  18.5000   3.5000 Du        
   7871 ****        10.5000  18.5000   4.5000 Du        
   7872 ****        10.5000  18.5000   4.7500 Du        
   7873 ****        10.5000  23.2500  17.0000 Du        
   7874 ****        10.5000  23.2500  17.2500 Du        
   7875 ****        10.5000  23.2500  17.5000 Du        
   7876 ****        10.5000  23.2500  17.7500 Du        
   7877 ****        10.5000  23.2500  18.0000 Du        
   7878 ****        10.5000  23.2500  18.2500 Du        
   7879 ****        10.5000  23.2500  18.5000 Du        
   7880 ****        10.5000  23.2500  18.7500 Du        
   7881 ****        10.5000  23.2500  19.0000 Du        
   7882 ****        10.5000  23.2500  19.7500 Du        
   7883 ****        10.5000  23.2500  20.0000 Du        
   7884 ****        10.5000  23.2500  20.2500 Du        
   7885 ****        10.5000  23.2500  20.7500 Du        
   7886 ****        10.5000  23.5000  17.0000 Du        
   7887 ****        10.5000  23.5000  17.2500 Du        
   7888 ****        10.5000  23.5000  17.5000 Du        
   7889 ****        10.5000  23.5000  17.7500 Du        
   7890 ****        10.5000  23.5000  18.0000 Du        
   7891 ****        10.5000  23.5000  18.2500 Du        
   7892 ****        10.5000  23.5000  18.5000 Du        
   7893 ****        10.5000  23.5000  18.7500 Du        
   7894 ****        10.5000  23.5000  19.0000 Du        
   7895 ****        10.5000  23.5000  19.2500 Du        
   7896 ****        10.5000  23.5000  19.5000 Du        
   7897 ****        10.5000  23.5000  19.7500 Du        
   7898 ****        10.5000  23.5000  20.0000 Du        
   7899 ****        10.5000  23.5000  20.2500 Du        
   7900 ****        10.5000  23.5000  20.5000 Du        
   7901 ****        10.5000  23.5000  20.7500 Du        
   7902 ****        10.5000  23.5000  21.0000 Du        
   7903 ****        10.5000  23.5000  21.2500 Du        
   7904 ****        10.5000  23.7500  17.0000 Du        
   7905 ****        10.5000  23.7500  17.2500 Du        
   7906 ****        10.5000  23.7500  17.5000 Du        
   7907 ****        10.5000  23.7500  17.7500 Du        
   7908 ****        10.5000  23.7500  18.0000 Du        
   7909 ****        10.5000  23.7500  18.2500 Du        
   7910 ****        10.5000  23.7500  18.5000 Du        
   7911 ****        10.5000  23.7500  18.7500 Du        
   7912 ****        10.5000  23.7500  19.0000 Du        
   7913 ****        10.5000  23.7500  19.2500 Du        
   7914 ****        10.5000  23.7500  19.5000 Du        
   7915 ****        10.5000  23.7500  19.7500 Du        
   7916 ****        10.5000  23.7500  20.0000 Du        
   7917 ****        10.5000  23.7500  20.2500 Du        
   7918 ****        10.5000  23.7500  20.5000 Du        
   7919 ****        10.5000  23.7500  20.7500 Du        
   7920 ****        10.5000  23.7500  21.0000 Du        
   7921 ****        10.5000  23.7500  21.2500 Du        
   7922 ****        10.5000  24.0000  17.0000 Du        
   7923 ****        10.5000  24.0000  17.2500 Du        
   7924 ****        10.5000  24.0000  17.5000 Du        
   7925 ****        10.5000  24.0000  17.7500 Du        
   7926 ****        10.5000  24.0000  18.0000 Du        
   7927 ****        10.5000  24.0000  18.2500 Du        
   7928 ****        10.5000  24.0000  18.5000 Du        
   7929 ****        10.5000  24.0000  18.7500 Du        
   7930 ****        10.5000  24.0000  19.0000 Du        
   7931 ****        10.5000  24.0000  19.2500 Du        
   7932 ****        10.5000  24.0000  19.5000 Du        
   7933 ****        10.5000  24.0000  19.7500 Du        
   7934 ****        10.5000  24.0000  20.0000 Du        
   7935 ****        10.5000  24.0000  20.2500 Du        
   7936 ****        10.5000  24.0000  20.5000 Du        
   7937 ****        10.5000  24.0000  20.7500 Du        
   7938 ****        10.5000  24.0000  21.0000 Du        
   7939 ****        10.5000  24.0000  21.2500 Du        
   7940 ****        10.5000  24.2500  17.0000 Du        
   7941 ****        10.5000  24.2500  17.2500 Du        
   7942 ****        10.5000  24.2500  17.5000 Du        
   7943 ****        10.5000  24.2500  17.7500 Du        
   7944 ****        10.5000  24.2500  18.0000 Du        
   7945 ****        10.5000  24.2500  18.2500 Du        
   7946 ****        10.5000  24.2500  18.5000 Du        
   7947 ****        10.5000  24.2500  18.7500 Du        
   7948 ****        10.5000  24.2500  19.0000 Du        
   7949 ****        10.5000  24.2500  19.2500 Du        
   7950 ****        10.5000  24.2500  19.7500 Du        
   7951 ****        10.5000  24.2500  20.0000 Du        
   7952 ****        10.5000  24.2500  20.2500 Du        
   7953 ****        10.5000  24.5000  17.0000 Du        
   7954 ****        10.5000  24.5000  17.2500 Du        
   7955 ****        10.5000  24.5000  17.5000 Du        
   7956 ****        10.5000  24.5000  17.7500 Du        
   7957 ****        10.5000  24.5000  18.0000 Du        
   7958 ****        10.5000  24.5000  18.2500 Du        
   7959 ****        10.5000  24.5000  18.5000 Du        
   7960 ****        10.5000  24.5000  18.7500 Du        
   7961 ****        10.5000  24.5000  19.0000 Du        
   7962 ****        10.5000  24.5000  19.2500 Du        
   7963 ****        10.5000  24.5000  19.5000 Du        
   7964 ****        10.5000  24.5000  19.7500 Du        
   7965 ****        10.5000  24.5000  20.0000 Du        
   7966 ****        10.5000  24.5000  20.2500 Du        
   7967 ****        10.5000  24.7500  17.0000 Du        
   7968 ****        10.5000  24.7500  17.2500 Du        
   7969 ****        10.5000  24.7500  17.5000 Du        
   7970 ****        10.5000  24.7500  17.7500 Du        
   7971 ****        10.5000  24.7500  18.0000 Du        
   7972 ****        10.5000  24.7500  18.2500 Du        
   7973 ****        10.5000  24.7500  18.5000 Du        
   7974 ****        10.5000  24.7500  18.7500 Du        
   7975 ****        10.5000  24.7500  19.0000 Du        
   7976 ****        10.5000  24.7500  19.2500 Du        
   7977 ****        10.5000  24.7500  19.5000 Du        
   7978 ****        10.5000  24.7500  19.7500 Du        
   7979 ****        10.5000  24.7500  20.0000 Du        
   7980 ****        10.5000  24.7500  20.2500 Du        
   7981 ****        10.5000  25.0000  17.2500 Du        
   7982 ****        10.5000  25.0000  17.5000 Du        
   7983 ****        10.5000  25.0000  17.7500 Du        
   7984 ****        10.5000  25.0000  18.0000 Du        
   7985 ****        10.5000  25.0000  18.2500 Du        
   7986 ****        10.5000  25.0000  18.5000 Du        
   7987 ****        10.5000  25.0000  18.7500 Du        
   7988 ****        10.5000  25.0000  19.0000 Du        
   7989 ****        10.5000  25.0000  19.2500 Du        
   7990 ****        10.5000  25.0000  19.7500 Du        
   7991 ****        10.5000  25.0000  20.0000 Du        
   7992 ****        10.5000  25.0000  20.2500 Du        
   7993 ****        10.5000  25.2500  17.2500 Du        
   7994 ****        10.5000  25.2500  17.5000 Du        
   7995 ****        10.5000  25.2500  17.7500 Du        
   7996 ****        10.5000  25.2500  18.0000 Du        
   7997 ****        10.5000  25.2500  18.2500 Du        
   7998 ****        10.5000  25.2500  18.5000 Du        
   7999 ****        10.5000  25.2500  18.7500 Du        
   8000 ****        10.5000  25.2500  19.0000 Du        
   8001 ****        10.5000  25.2500  19.7500 Du        
   8002 ****        10.5000  25.2500  20.0000 Du        
   8003 ****        10.5000  25.7500  20.2500 Du        
   8004 ****        10.5000  26.0000  20.2500 Du        
   8005 ****        10.5000  26.0000  20.7500 Du        
   8006 ****        10.5000  26.2500  19.7500 Du        
   8007 ****        10.5000  26.2500  20.0000 Du        
   8008 ****        10.5000  26.2500  20.2500 Du        
   8009 ****        10.5000  26.2500  20.5000 Du        
   8010 ****        10.5000  26.2500  20.7500 Du        
   8011 ****        10.5000  26.5000  19.5000 Du        
   8012 ****        10.5000  26.5000  19.7500 Du        
   8013 ****        10.5000  26.5000  20.0000 Du        
   8014 ****        10.5000  26.5000  20.2500 Du        
   8015 ****        10.5000  26.5000  20.5000 Du        
   8016 ****        10.5000  26.5000  20.7500 Du        
   8017 ****        10.5000  26.5000  21.0000 Du        
   8018 ****        10.5000  26.7500  19.5000 Du        
   8019 ****        10.5000  26.7500  19.7500 Du        
   8020 ****        10.5000  26.7500  20.0000 Du        
   8021 ****        10.5000  26.7500  20.2500 Du        
   8022 ****        10.5000  26.7500  20.5000 Du        
   8023 ****        10.5000  26.7500  20.7500 Du        
   8024 ****        10.5000  26.7500  21.0000 Du        
   8025 ****        10.5000  27.0000  19.7500 Du        
   8026 ****        10.5000  27.0000  20.0000 Du        
   8027 ****        10.5000  27.0000  20.2500 Du        
   8028 ****        10.5000  27.0000  20.5000 Du        
   8029 ****        10.5000  27.0000  20.7500 Du        
   8030 ****        10.5000  27.0000  21.0000 Du        
   8031 ****        10.5000  27.2500  19.7500 Du        
   8032 ****        10.5000  27.2500  20.0000 Du        
   8033 ****        10.5000  27.2500  20.2500 Du        
   8034 ****        10.5000  27.2500  20.5000 Du        
   8035 ****        10.5000  27.2500  20.7500 Du        
   8036 ****        10.5000  27.2500  21.0000 Du        
   8037 ****        10.5000  27.5000  19.7500 Du        
   8038 ****        10.5000  27.5000  20.0000 Du        
   8039 ****        10.5000  27.5000  20.2500 Du        
   8040 ****        10.5000  27.5000  20.5000 Du        
   8041 ****        10.5000  27.5000  20.7500 Du        
   8042 ****        10.5000  27.5000  21.0000 Du        
   8043 ****        10.5000  27.7500  20.0000 Du        
   8044 ****        10.5000  27.7500  20.2500 Du        
   8045 ****        10.5000  27.7500  20.5000 Du        
   8046 ****        10.5000  27.7500  20.7500 Du        
   8047 ****        10.5000  27.7500  21.0000 Du        
   8048 ****        10.5000  28.0000  20.0000 Du        
   8049 ****        10.5000  28.0000  20.2500 Du        
   8050 ****        10.5000  28.0000  20.5000 Du        
   8051 ****        10.5000  28.0000  20.7500 Du        
   8052 ****        10.5000  28.0000  21.0000 Du        
   8053 ****        10.5000  28.2500  20.0000 Du        
   8054 ****        10.5000  28.2500  20.2500 Du        
   8055 ****        10.5000  28.2500  20.5000 Du        
   8056 ****        10.5000  28.2500  20.7500 Du        
   8057 ****        10.5000  28.2500  21.0000 Du        
   8058 ****        10.5000  28.5000  20.0000 Du        
   8059 ****        10.5000  28.5000  20.2500 Du        
   8060 ****        10.5000  28.5000  20.5000 Du        
   8061 ****        10.5000  28.5000  20.7500 Du        
   8062 ****        10.5000  28.5000  21.0000 Du        
   8063 ****        10.5000  28.7500  20.0000 Du        
   8064 ****        10.5000  28.7500  20.2500 Du        
   8065 ****        10.5000  28.7500  20.5000 Du        
   8066 ****        10.5000  28.7500  20.7500 Du        
   8067 ****        10.5000  28.7500  21.0000 Du        
   8068 ****        10.5000  29.0000  20.0000 Du        
   8069 ****        10.5000  29.0000  20.2500 Du        
   8070 ****        10.5000  29.0000  20.5000 Du        
   8071 ****        10.5000  29.0000  20.7500 Du        
   8072 ****        10.5000  31.0000  26.2500 Du        
   8073 ****        10.5000  31.2500  25.0000 Du        
   8074 ****        10.5000  31.2500  25.2500 Du        
   8075 ****        10.5000  31.2500  25.5000 Du        
   8076 ****        10.5000  31.2500  25.7500 Du        
   8077 ****        10.5000  31.2500  26.0000 Du        
   8078 ****        10.5000  31.2500  26.2500 Du        
   8079 ****        10.5000  31.5000  24.5000 Du        
   8080 ****        10.5000  31.5000  24.7500 Du        
   8081 ****        10.5000  31.5000  25.0000 Du        
   8082 ****        10.5000  31.5000  25.2500 Du        
   8083 ****        10.5000  31.5000  25.5000 Du        
   8084 ****        10.5000  31.5000  25.7500 Du        
   8085 ****        10.5000  31.5000  26.0000 Du        
   8086 ****        10.5000  31.5000  26.2500 Du        
   8087 ****        10.5000  31.5000  26.5000 Du        
   8088 ****        10.5000  31.7500  24.7500 Du        
   8089 ****        10.5000  31.7500  25.0000 Du        
   8090 ****        10.5000  31.7500  25.2500 Du        
   8091 ****        10.5000  31.7500  25.5000 Du        
   8092 ****        10.5000  31.7500  25.7500 Du        
   8093 ****        10.5000  31.7500  26.0000 Du        
   8094 ****        10.5000  31.7500  26.2500 Du        
   8095 ****        10.5000  31.7500  26.5000 Du        
   8096 ****        10.5000  31.7500  26.7500 Du        
   8097 ****        10.5000  32.0000  24.7500 Du        
   8098 ****        10.5000  32.0000  25.0000 Du        
   8099 ****        10.5000  32.0000  25.2500 Du        
   8100 ****        10.5000  32.0000  25.5000 Du        
   8101 ****        10.5000  32.0000  25.7500 Du        
   8102 ****        10.5000  32.0000  26.0000 Du        
   8103 ****        10.5000  32.0000  26.2500 Du        
   8104 ****        10.5000  32.0000  26.5000 Du        
   8105 ****        10.5000  32.0000  26.7500 Du        
   8106 ****        10.5000  32.2500  24.7500 Du        
   8107 ****        10.5000  32.2500  25.0000 Du        
   8108 ****        10.5000  32.2500  25.2500 Du        
   8109 ****        10.5000  32.2500  25.5000 Du        
   8110 ****        10.5000  32.2500  25.7500 Du        
   8111 ****        10.5000  32.2500  26.0000 Du        
   8112 ****        10.5000  32.2500  26.2500 Du        
   8113 ****        10.5000  32.2500  26.5000 Du        
   8114 ****        10.5000  32.2500  26.7500 Du        
   8115 ****        10.5000  32.5000  25.0000 Du        
   8116 ****        10.5000  32.5000  25.2500 Du        
   8117 ****        10.5000  32.5000  25.5000 Du        
   8118 ****        10.5000  32.5000  25.7500 Du        
   8119 ****        10.5000  32.5000  26.0000 Du        
   8120 ****        10.5000  32.5000  26.2500 Du        
   8121 ****        10.5000  32.7500  25.0000 Du        
   8122 ****        10.5000  32.7500  25.2500 Du        
   8123 ****        10.5000  32.7500  25.5000 Du        
   8124 ****        10.5000  32.7500  25.7500 Du        
   8125 ****        10.5000  32.7500  26.0000 Du        
   8126 ****        10.5000  33.0000  25.2500 Du        
   8127 ****        10.5000  33.0000  25.5000 Du        
   8128 ****        10.5000  33.0000  25.7500 Du        
   8129 ****        10.5000  33.0000  26.0000 Du        
   8130 ****        10.5000  33.2500  25.2500 Du        
   8131 ****        10.5000  35.0000   3.2500 Du        
   8132 ****        10.5000  35.0000   3.5000 Du        
   8133 ****        10.5000  35.2500   3.2500 Du        
   8134 ****        10.5000  35.2500   3.5000 Du        
   8135 ****        10.5000  35.2500   3.7500 Du        
   8136 ****        10.5000  35.2500   4.0000 Du        
   8137 ****        10.5000  35.5000   3.2500 Du        
   8138 ****        10.7500  17.7500   4.2500 Du        
   8139 ****        10.7500  17.7500   4.5000 Du        
   8140 ****        10.7500  17.7500   4.7500 Du        
   8141 ****        10.7500  18.0000   3.7500 Du        
   8142 ****        10.7500  18.0000   4.0000 Du        
   8143 ****        10.7500  18.0000   4.2500 Du        
   8144 ****        10.7500  18.0000   4.5000 Du        
   8145 ****        10.7500  18.0000   4.7500 Du        
   8146 ****        10.7500  18.0000   5.0000 Du        
   8147 ****        10.7500  23.2500  16.7500 Du        
   8148 ****        10.7500  23.2500  17.0000 Du        
   8149 ****        10.7500  23.2500  17.2500 Du        
   8150 ****        10.7500  23.2500  17.5000 Du        
   8151 ****        10.7500  23.2500  17.7500 Du        
   8152 ****        10.7500  23.2500  18.0000 Du        
   8153 ****        10.7500  23.2500  18.2500 Du        
   8154 ****        10.7500  23.5000  16.7500 Du        
   8155 ****        10.7500  23.5000  17.0000 Du        
   8156 ****        10.7500  23.5000  17.2500 Du        
   8157 ****        10.7500  23.5000  17.5000 Du        
   8158 ****        10.7500  23.5000  17.7500 Du        
   8159 ****        10.7500  23.5000  18.0000 Du        
   8160 ****        10.7500  23.5000  18.2500 Du        
   8161 ****        10.7500  23.5000  18.5000 Du        
   8162 ****        10.7500  23.5000  18.7500 Du        
   8163 ****        10.7500  23.5000  19.0000 Du        
   8164 ****        10.7500  23.5000  19.2500 Du        
   8165 ****        10.7500  23.5000  19.5000 Du        
   8166 ****        10.7500  23.5000  19.7500 Du        
   8167 ****        10.7500  23.5000  20.0000 Du        
   8168 ****        10.7500  23.5000  20.2500 Du        
   8169 ****        10.7500  23.5000  20.5000 Du        
   8170 ****        10.7500  23.5000  20.7500 Du        
   8171 ****        10.7500  23.5000  21.0000 Du        
   8172 ****        10.7500  23.5000  21.2500 Du        
   8173 ****        10.7500  23.7500  16.7500 Du        
   8174 ****        10.7500  23.7500  17.0000 Du        
   8175 ****        10.7500  23.7500  17.2500 Du        
   8176 ****        10.7500  23.7500  17.5000 Du        
   8177 ****        10.7500  23.7500  17.7500 Du        
   8178 ****        10.7500  23.7500  18.0000 Du        
   8179 ****        10.7500  23.7500  18.2500 Du        
   8180 ****        10.7500  23.7500  18.5000 Du        
   8181 ****        10.7500  23.7500  18.7500 Du        
   8182 ****        10.7500  23.7500  19.0000 Du        
   8183 ****        10.7500  23.7500  19.2500 Du        
   8184 ****        10.7500  23.7500  19.5000 Du        
   8185 ****        10.7500  23.7500  19.7500 Du        
   8186 ****        10.7500  23.7500  20.0000 Du        
   8187 ****        10.7500  23.7500  20.2500 Du        
   8188 ****        10.7500  23.7500  20.5000 Du        
   8189 ****        10.7500  23.7500  20.7500 Du        
   8190 ****        10.7500  23.7500  21.0000 Du        
   8191 ****        10.7500  23.7500  21.2500 Du        
   8192 ****        10.7500  24.0000  16.7500 Du        
   8193 ****        10.7500  24.0000  17.0000 Du        
   8194 ****        10.7500  24.0000  17.2500 Du        
   8195 ****        10.7500  24.0000  17.5000 Du        
   8196 ****        10.7500  24.0000  17.7500 Du        
   8197 ****        10.7500  24.0000  18.0000 Du        
   8198 ****        10.7500  24.0000  18.2500 Du        
   8199 ****        10.7500  24.0000  18.5000 Du        
   8200 ****        10.7500  24.0000  18.7500 Du        
   8201 ****        10.7500  24.0000  19.0000 Du        
   8202 ****        10.7500  24.0000  19.2500 Du        
   8203 ****        10.7500  24.0000  19.7500 Du        
   8204 ****        10.7500  24.0000  20.0000 Du        
   8205 ****        10.7500  24.0000  20.2500 Du        
   8206 ****        10.7500  24.0000  20.7500 Du        
   8207 ****        10.7500  24.0000  21.0000 Du        
   8208 ****        10.7500  24.2500  17.0000 Du        
   8209 ****        10.7500  24.2500  17.2500 Du        
   8210 ****        10.7500  24.2500  17.5000 Du        
   8211 ****        10.7500  24.2500  17.7500 Du        
   8212 ****        10.7500  24.2500  18.0000 Du        
   8213 ****        10.7500  24.2500  18.2500 Du        
   8214 ****        10.7500  24.2500  18.5000 Du        
   8215 ****        10.7500  24.2500  18.7500 Du        
   8216 ****        10.7500  24.2500  19.0000 Du        
   8217 ****        10.7500  24.2500  19.2500 Du        
   8218 ****        10.7500  24.2500  19.7500 Du        
   8219 ****        10.7500  24.2500  20.0000 Du        
   8220 ****        10.7500  24.5000  17.0000 Du        
   8221 ****        10.7500  24.5000  17.2500 Du        
   8222 ****        10.7500  24.5000  17.5000 Du        
   8223 ****        10.7500  24.5000  17.7500 Du        
   8224 ****        10.7500  24.5000  18.0000 Du        
   8225 ****        10.7500  24.5000  18.2500 Du        
   8226 ****        10.7500  24.5000  18.5000 Du        
   8227 ****        10.7500  24.5000  18.7500 Du        
   8228 ****        10.7500  24.5000  19.0000 Du        
   8229 ****        10.7500  24.5000  19.2500 Du        
   8230 ****        10.7500  24.7500  17.0000 Du        
   8231 ****        10.7500  24.7500  17.2500 Du        
   8232 ****        10.7500  24.7500  17.5000 Du        
   8233 ****        10.7500  24.7500  17.7500 Du        
   8234 ****        10.7500  24.7500  18.0000 Du        
   8235 ****        10.7500  24.7500  18.2500 Du        
   8236 ****        10.7500  24.7500  19.0000 Du        
   8237 ****        10.7500  25.0000  17.0000 Du        
   8238 ****        10.7500  25.0000  17.2500 Du        
   8239 ****        10.7500  25.0000  17.5000 Du        
   8240 ****        10.7500  25.0000  17.7500 Du        
   8241 ****        10.7500  25.0000  18.0000 Du        
   8242 ****        10.7500  25.0000  18.2500 Du        
   8243 ****        10.7500  25.0000  18.7500 Du        
   8244 ****        10.7500  25.0000  19.0000 Du        
   8245 ****        10.7500  25.2500  17.2500 Du        
   8246 ****        10.7500  25.2500  17.5000 Du        
   8247 ****        10.7500  25.2500  17.7500 Du        
   8248 ****        10.7500  25.2500  18.0000 Du        
   8249 ****        10.7500  25.2500  18.2500 Du        
   8250 ****        10.7500  26.5000  19.7500 Du        
   8251 ****        10.7500  26.5000  20.0000 Du        
   8252 ****        10.7500  26.5000  20.2500 Du        
   8253 ****        10.7500  26.5000  20.5000 Du        
   8254 ****        10.7500  26.5000  20.7500 Du        
   8255 ****        10.7500  26.5000  21.0000 Du        
   8256 ****        10.7500  26.7500  19.5000 Du        
   8257 ****        10.7500  26.7500  19.7500 Du        
   8258 ****        10.7500  26.7500  20.0000 Du        
   8259 ****        10.7500  26.7500  20.2500 Du        
   8260 ****        10.7500  26.7500  20.5000 Du        
   8261 ****        10.7500  26.7500  20.7500 Du        
   8262 ****        10.7500  26.7500  21.0000 Du        
   8263 ****        10.7500  26.7500  21.2500 Du        
   8264 ****        10.7500  27.0000  19.5000 Du        
   8265 ****        10.7500  27.0000  19.7500 Du        
   8266 ****        10.7500  27.0000  20.0000 Du        
   8267 ****        10.7500  27.0000  20.2500 Du        
   8268 ****        10.7500  27.0000  20.5000 Du        
   8269 ****        10.7500  27.0000  20.7500 Du        
   8270 ****        10.7500  27.0000  21.0000 Du        
   8271 ****        10.7500  27.0000  21.2500 Du        
   8272 ****        10.7500  27.2500  19.7500 Du        
   8273 ****        10.7500  27.2500  20.0000 Du        
   8274 ****        10.7500  27.2500  20.2500 Du        
   8275 ****        10.7500  27.2500  20.5000 Du        
   8276 ****        10.7500  27.2500  20.7500 Du        
   8277 ****        10.7500  27.2500  21.0000 Du        
   8278 ****        10.7500  27.2500  21.2500 Du        
   8279 ****        10.7500  27.5000  19.7500 Du        
   8280 ****        10.7500  27.5000  20.0000 Du        
   8281 ****        10.7500  27.5000  20.2500 Du        
   8282 ****        10.7500  27.5000  20.5000 Du        
   8283 ****        10.7500  27.5000  20.7500 Du        
   8284 ****        10.7500  27.5000  21.0000 Du        
   8285 ****        10.7500  27.5000  21.2500 Du        
   8286 ****        10.7500  27.7500  19.7500 Du        
   8287 ****        10.7500  27.7500  20.0000 Du        
   8288 ****        10.7500  27.7500  20.2500 Du        
   8289 ****        10.7500  27.7500  20.5000 Du        
   8290 ****        10.7500  27.7500  20.7500 Du        
   8291 ****        10.7500  27.7500  21.0000 Du        
   8292 ****        10.7500  27.7500  21.2500 Du        
   8293 ****        10.7500  28.0000  19.7500 Du        
   8294 ****        10.7500  28.0000  20.0000 Du        
   8295 ****        10.7500  28.0000  20.2500 Du        
   8296 ****        10.7500  28.0000  20.5000 Du        
   8297 ****        10.7500  28.0000  20.7500 Du        
   8298 ****        10.7500  28.0000  21.0000 Du        
   8299 ****        10.7500  28.0000  21.2500 Du        
   8300 ****        10.7500  28.2500  19.7500 Du        
   8301 ****        10.7500  28.2500  20.0000 Du        
   8302 ****        10.7500  28.2500  20.2500 Du        
   8303 ****        10.7500  28.2500  20.5000 Du        
   8304 ****        10.7500  28.2500  20.7500 Du        
   8305 ****        10.7500  28.2500  21.0000 Du        
   8306 ****        10.7500  28.2500  21.2500 Du        
   8307 ****        10.7500  28.5000  19.7500 Du        
   8308 ****        10.7500  28.5000  20.0000 Du        
   8309 ****        10.7500  28.5000  20.2500 Du        
   8310 ****        10.7500  28.5000  20.5000 Du        
   8311 ****        10.7500  28.5000  20.7500 Du        
   8312 ****        10.7500  28.5000  21.0000 Du        
   8313 ****        10.7500  28.5000  21.2500 Du        
   8314 ****        10.7500  28.7500  19.7500 Du        
   8315 ****        10.7500  28.7500  20.0000 Du        
   8316 ****        10.7500  28.7500  20.2500 Du        
   8317 ****        10.7500  28.7500  20.5000 Du        
   8318 ****        10.7500  28.7500  20.7500 Du        
   8319 ****        10.7500  28.7500  21.0000 Du        
   8320 ****        10.7500  28.7500  21.2500 Du        
   8321 ****        10.7500  29.0000  19.7500 Du        
   8322 ****        10.7500  29.0000  20.0000 Du        
   8323 ****        10.7500  29.0000  20.2500 Du        
   8324 ****        10.7500  29.0000  20.5000 Du        
   8325 ****        10.7500  29.0000  20.7500 Du        
   8326 ****        10.7500  29.0000  21.0000 Du        
   8327 ****        10.7500  29.2500  19.7500 Du        
   8328 ****        10.7500  29.2500  20.0000 Du        
   8329 ****        10.7500  29.2500  20.2500 Du        
   8330 ****        10.7500  31.0000  26.0000 Du        
   8331 ****        10.7500  31.0000  26.2500 Du        
   8332 ****        10.7500  31.2500  24.5000 Du        
   8333 ****        10.7500  31.2500  24.7500 Du        
   8334 ****        10.7500  31.2500  25.0000 Du        
   8335 ****        10.7500  31.2500  25.2500 Du        
   8336 ****        10.7500  31.2500  25.5000 Du        
   8337 ****        10.7500  31.2500  25.7500 Du        
   8338 ****        10.7500  31.2500  26.0000 Du        
   8339 ****        10.7500  31.2500  26.2500 Du        
   8340 ****        10.7500  31.5000  24.5000 Du        
   8341 ****        10.7500  31.5000  24.7500 Du        
   8342 ****        10.7500  31.5000  25.0000 Du        
   8343 ****        10.7500  31.5000  25.2500 Du        
   8344 ****        10.7500  31.5000  25.5000 Du        
   8345 ****        10.7500  31.5000  25.7500 Du        
   8346 ****        10.7500  31.5000  26.0000 Du        
   8347 ****        10.7500  31.5000  26.2500 Du        
   8348 ****        10.7500  31.5000  26.5000 Du        
   8349 ****        10.7500  31.7500  24.5000 Du        
   8350 ****        10.7500  31.7500  24.7500 Du        
   8351 ****        10.7500  31.7500  25.0000 Du        
   8352 ****        10.7500  31.7500  25.2500 Du        
   8353 ****        10.7500  31.7500  25.5000 Du        
   8354 ****        10.7500  31.7500  25.7500 Du        
   8355 ****        10.7500  31.7500  26.0000 Du        
   8356 ****        10.7500  31.7500  26.2500 Du        
   8357 ****        10.7500  31.7500  26.5000 Du        
   8358 ****        10.7500  32.0000  24.7500 Du        
   8359 ****        10.7500  32.0000  25.0000 Du        
   8360 ****        10.7500  32.0000  25.2500 Du        
   8361 ****        10.7500  32.0000  25.5000 Du        
   8362 ****        10.7500  32.0000  25.7500 Du        
   8363 ****        10.7500  32.0000  26.0000 Du        
   8364 ****        10.7500  32.0000  26.2500 Du        
   8365 ****        10.7500  32.0000  26.5000 Du        
   8366 ****        10.7500  32.2500  24.7500 Du        
   8367 ****        10.7500  32.2500  25.0000 Du        
   8368 ****        10.7500  32.2500  25.2500 Du        
   8369 ****        10.7500  32.2500  25.5000 Du        
   8370 ****        10.7500  32.2500  25.7500 Du        
   8371 ****        10.7500  32.2500  26.0000 Du        
   8372 ****        10.7500  32.2500  26.2500 Du        
   8373 ****        10.7500  32.2500  26.5000 Du        
   8374 ****        10.7500  32.5000  25.0000 Du        
   8375 ****        10.7500  32.5000  25.2500 Du        
   8376 ****        10.7500  32.5000  25.5000 Du        
   8377 ****        10.7500  32.5000  25.7500 Du        
   8378 ****        10.7500  32.5000  26.0000 Du        
   8379 ****        10.7500  32.7500  25.0000 Du        
   8380 ****        10.7500  32.7500  25.2500 Du        
   8381 ****        10.7500  32.7500  25.5000 Du        
   8382 ****        10.7500  32.7500  25.7500 Du        
   8383 ****        10.7500  32.7500  26.0000 Du        
   8384 ****        10.7500  33.0000  25.2500 Du        
   8385 ****        10.7500  33.0000  25.5000 Du        
   8386 ****        10.7500  33.0000  25.7500 Du        
   8387 ****        10.7500  33.0000  26.0000 Du        
   8388 ****        10.7500  35.0000   2.7500 Du        
   8389 ****        10.7500  35.0000   3.0000 Du        
   8390 ****        10.7500  35.0000   3.2500 Du        
   8391 ****        10.7500  35.0000   3.5000 Du        
   8392 ****        10.7500  35.0000   3.7500 Du        
   8393 ****        10.7500  35.2500   3.2500 Du        
   8394 ****        10.7500  35.2500   3.5000 Du        
   8395 ****        10.7500  35.2500   3.7500 Du        
   8396 ****        10.7500  35.2500   4.0000 Du        
   8397 ****        10.7500  35.5000   3.2500 Du        
   8398 ****        10.7500  35.5000   3.7500 Du        
   8399 ****        10.7500  35.5000   4.0000 Du        
   8400 ****        10.7500  35.7500   4.0000 Du        
   8401 ****        11.0000  17.7500   4.2500 Du        
   8402 ****        11.0000  17.7500   4.5000 Du        
   8403 ****        11.0000  17.7500   4.7500 Du        
   8404 ****        11.0000  23.0000  16.2500 Du        
   8405 ****        11.0000  23.2500  16.2500 Du        
   8406 ****        11.0000  23.2500  16.5000 Du        
   8407 ****        11.0000  23.2500  16.7500 Du        
   8408 ****        11.0000  23.2500  17.0000 Du        
   8409 ****        11.0000  23.2500  17.2500 Du        
   8410 ****        11.0000  23.2500  17.5000 Du        
   8411 ****        11.0000  23.2500  17.7500 Du        
   8412 ****        11.0000  23.2500  18.0000 Du        
   8413 ****        11.0000  23.2500  18.2500 Du        
   8414 ****        11.0000  23.5000  16.2500 Du        
   8415 ****        11.0000  23.5000  16.5000 Du        
   8416 ****        11.0000  23.5000  16.7500 Du        
   8417 ****        11.0000  23.5000  17.0000 Du        
   8418 ****        11.0000  23.5000  17.2500 Du        
   8419 ****        11.0000  23.5000  17.5000 Du        
   8420 ****        11.0000  23.5000  17.7500 Du        
   8421 ****        11.0000  23.5000  18.0000 Du        
   8422 ****        11.0000  23.5000  18.2500 Du        
   8423 ****        11.0000  23.5000  18.5000 Du        
   8424 ****        11.0000  23.5000  18.7500 Du        
   8425 ****        11.0000  23.5000  19.0000 Du        
   8426 ****        11.0000  23.5000  19.2500 Du        
   8427 ****        11.0000  23.7500  16.2500 Du        
   8428 ****        11.0000  23.7500  16.5000 Du        
   8429 ****        11.0000  23.7500  16.7500 Du        
   8430 ****        11.0000  23.7500  17.0000 Du        
   8431 ****        11.0000  23.7500  17.2500 Du        
   8432 ****        11.0000  23.7500  17.5000 Du        
   8433 ****        11.0000  23.7500  17.7500 Du        
   8434 ****        11.0000  23.7500  18.0000 Du        
   8435 ****        11.0000  23.7500  18.2500 Du        
   8436 ****        11.0000  23.7500  18.5000 Du        
   8437 ****        11.0000  23.7500  18.7500 Du        
   8438 ****        11.0000  23.7500  19.0000 Du        
   8439 ****        11.0000  23.7500  19.2500 Du        
   8440 ****        11.0000  23.7500  19.7500 Du        
   8441 ****        11.0000  23.7500  20.2500 Du        
   8442 ****        11.0000  24.0000  16.7500 Du        
   8443 ****        11.0000  24.0000  17.0000 Du        
   8444 ****        11.0000  24.0000  17.2500 Du        
   8445 ****        11.0000  24.0000  17.5000 Du        
   8446 ****        11.0000  24.0000  17.7500 Du        
   8447 ****        11.0000  24.0000  18.0000 Du        
   8448 ****        11.0000  24.0000  18.2500 Du        
   8449 ****        11.0000  24.0000  18.5000 Du        
   8450 ****        11.0000  24.0000  18.7500 Du        
   8451 ****        11.0000  24.0000  19.0000 Du        
   8452 ****        11.0000  24.0000  19.2500 Du        
   8453 ****        11.0000  24.0000  20.0000 Du        
   8454 ****        11.0000  24.2500  16.7500 Du        
   8455 ****        11.0000  24.2500  17.0000 Du        
   8456 ****        11.0000  24.2500  17.2500 Du        
   8457 ****        11.0000  24.2500  17.5000 Du        
   8458 ****        11.0000  24.2500  17.7500 Du        
   8459 ****        11.0000  24.2500  18.0000 Du        
   8460 ****        11.0000  24.2500  18.2500 Du        
   8461 ****        11.0000  24.2500  18.7500 Du        
   8462 ****        11.0000  24.2500  19.0000 Du        
   8463 ****        11.0000  24.2500  19.2500 Du        
   8464 ****        11.0000  24.5000  17.0000 Du        
   8465 ****        11.0000  24.5000  17.2500 Du        
   8466 ****        11.0000  24.5000  17.5000 Du        
   8467 ****        11.0000  24.5000  17.7500 Du        
   8468 ****        11.0000  24.5000  18.0000 Du        
   8469 ****        11.0000  24.5000  18.2500 Du        
   8470 ****        11.0000  24.7500  17.0000 Du        
   8471 ****        11.0000  24.7500  17.2500 Du        
   8472 ****        11.0000  24.7500  17.5000 Du        
   8473 ****        11.0000  24.7500  17.7500 Du        
   8474 ****        11.0000  24.7500  18.0000 Du        
   8475 ****        11.0000  24.7500  18.2500 Du        
   8476 ****        11.0000  25.0000  17.0000 Du        
   8477 ****        11.0000  25.0000  17.2500 Du        
   8478 ****        11.0000  25.0000  17.5000 Du        
   8479 ****        11.0000  25.0000  17.7500 Du        
   8480 ****        11.0000  25.0000  18.0000 Du        
   8481 ****        11.0000  25.0000  18.2500 Du        
   8482 ****        11.0000  25.2500  17.2500 Du        
   8483 ****        11.0000  25.2500  17.5000 Du        
   8484 ****        11.0000  25.2500  17.7500 Du        
   8485 ****        11.0000  26.5000  20.5000 Du        
   8486 ****        11.0000  26.5000  20.7500 Du        
   8487 ****        11.0000  26.7500  19.7500 Du        
   8488 ****        11.0000  26.7500  20.0000 Du        
   8489 ****        11.0000  26.7500  20.2500 Du        
   8490 ****        11.0000  26.7500  20.5000 Du        
   8491 ****        11.0000  26.7500  20.7500 Du        
   8492 ****        11.0000  26.7500  21.0000 Du        
   8493 ****        11.0000  27.0000  19.7500 Du        
   8494 ****        11.0000  27.0000  20.0000 Du        
   8495 ****        11.0000  27.0000  20.2500 Du        
   8496 ****        11.0000  27.0000  20.5000 Du        
   8497 ****        11.0000  27.0000  20.7500 Du        
   8498 ****        11.0000  27.0000  21.0000 Du        
   8499 ****        11.0000  27.0000  21.2500 Du        
   8500 ****        11.0000  27.2500  19.5000 Du        
   8501 ****        11.0000  27.2500  19.7500 Du        
   8502 ****        11.0000  27.2500  20.0000 Du        
   8503 ****        11.0000  27.2500  20.2500 Du        
   8504 ****        11.0000  27.2500  20.5000 Du        
   8505 ****        11.0000  27.2500  20.7500 Du        
   8506 ****        11.0000  27.2500  21.0000 Du        
   8507 ****        11.0000  27.2500  21.2500 Du        
   8508 ****        11.0000  27.5000  19.7500 Du        
   8509 ****        11.0000  27.5000  20.0000 Du        
   8510 ****        11.0000  27.5000  20.2500 Du        
   8511 ****        11.0000  27.5000  20.5000 Du        
   8512 ****        11.0000  27.5000  20.7500 Du        
   8513 ****        11.0000  27.5000  21.0000 Du        
   8514 ****        11.0000  27.5000  21.2500 Du        
   8515 ****        11.0000  27.7500  19.7500 Du        
   8516 ****        11.0000  27.7500  20.0000 Du        
   8517 ****        11.0000  27.7500  20.2500 Du        
   8518 ****        11.0000  27.7500  20.5000 Du        
   8519 ****        11.0000  27.7500  20.7500 Du        
   8520 ****        11.0000  27.7500  21.0000 Du        
   8521 ****        11.0000  27.7500  21.2500 Du        
   8522 ****        11.0000  27.7500  21.5000 Du        
   8523 ****        11.0000  28.0000  19.7500 Du        
   8524 ****        11.0000  28.0000  20.0000 Du        
   8525 ****        11.0000  28.0000  20.2500 Du        
   8526 ****        11.0000  28.0000  20.5000 Du        
   8527 ****        11.0000  28.0000  20.7500 Du        
   8528 ****        11.0000  28.0000  21.0000 Du        
   8529 ****        11.0000  28.0000  21.2500 Du        
   8530 ****        11.0000  28.0000  21.5000 Du        
   8531 ****        11.0000  28.2500  19.7500 Du        
   8532 ****        11.0000  28.2500  20.0000 Du        
   8533 ****        11.0000  28.2500  20.2500 Du        
   8534 ****        11.0000  28.2500  20.5000 Du        
   8535 ****        11.0000  28.2500  20.7500 Du        
   8536 ****        11.0000  28.2500  21.0000 Du        
   8537 ****        11.0000  28.2500  21.2500 Du        
   8538 ****        11.0000  28.2500  21.5000 Du        
   8539 ****        11.0000  28.5000  19.5000 Du        
   8540 ****        11.0000  28.5000  19.7500 Du        
   8541 ****        11.0000  28.5000  20.0000 Du        
   8542 ****        11.0000  28.5000  20.2500 Du        
   8543 ****        11.0000  28.5000  20.5000 Du        
   8544 ****        11.0000  28.5000  20.7500 Du        
   8545 ****        11.0000  28.5000  21.0000 Du        
   8546 ****        11.0000  28.5000  21.2500 Du        
   8547 ****        11.0000  28.5000  21.5000 Du        
   8548 ****        11.0000  28.5000  21.7500 Du        
   8549 ****        11.0000  28.7500  19.5000 Du        
   8550 ****        11.0000  28.7500  19.7500 Du        
   8551 ****        11.0000  28.7500  20.0000 Du        
   8552 ****        11.0000  28.7500  20.2500 Du        
   8553 ****        11.0000  28.7500  20.5000 Du        
   8554 ****        11.0000  28.7500  20.7500 Du        
   8555 ****        11.0000  28.7500  21.0000 Du        
   8556 ****        11.0000  28.7500  21.2500 Du        
   8557 ****        11.0000  28.7500  21.5000 Du        
   8558 ****        11.0000  28.7500  21.7500 Du        
   8559 ****        11.0000  29.0000  19.5000 Du        
   8560 ****        11.0000  29.0000  19.7500 Du        
   8561 ****        11.0000  29.0000  20.0000 Du        
   8562 ****        11.0000  29.0000  20.2500 Du        
   8563 ****        11.0000  29.0000  20.5000 Du        
   8564 ****        11.0000  29.0000  20.7500 Du        
   8565 ****        11.0000  29.0000  21.0000 Du        
   8566 ****        11.0000  29.0000  21.2500 Du        
   8567 ****        11.0000  29.2500  19.5000 Du        
   8568 ****        11.0000  29.2500  19.7500 Du        
   8569 ****        11.0000  29.2500  20.0000 Du        
   8570 ****        11.0000  29.2500  20.2500 Du        
   8571 ****        11.0000  29.5000  19.5000 Du        
   8572 ****        11.0000  29.5000  19.7500 Du        
   8573 ****        11.0000  31.0000  25.7500 Du        
   8574 ****        11.0000  31.0000  26.0000 Du        
   8575 ****        11.0000  31.0000  26.2500 Du        
   8576 ****        11.0000  31.2500  24.2500 Du        
   8577 ****        11.0000  31.2500  24.5000 Du        
   8578 ****        11.0000  31.2500  24.7500 Du        
   8579 ****        11.0000  31.2500  25.0000 Du        
   8580 ****        11.0000  31.2500  25.2500 Du        
   8581 ****        11.0000  31.2500  25.5000 Du        
   8582 ****        11.0000  31.2500  25.7500 Du        
   8583 ****        11.0000  31.2500  26.0000 Du        
   8584 ****        11.0000  31.2500  26.2500 Du        
   8585 ****        11.0000  31.5000  24.5000 Du        
   8586 ****        11.0000  31.5000  24.7500 Du        
   8587 ****        11.0000  31.5000  25.0000 Du        
   8588 ****        11.0000  31.5000  25.2500 Du        
   8589 ****        11.0000  31.5000  25.5000 Du        
   8590 ****        11.0000  31.5000  25.7500 Du        
   8591 ****        11.0000  31.5000  26.0000 Du        
   8592 ****        11.0000  31.5000  26.2500 Du        
   8593 ****        11.0000  31.7500  24.5000 Du        
   8594 ****        11.0000  31.7500  24.7500 Du        
   8595 ****        11.0000  31.7500  25.0000 Du        
   8596 ****        11.0000  31.7500  25.2500 Du        
   8597 ****        11.0000  31.7500  25.5000 Du        
   8598 ****        11.0000  31.7500  25.7500 Du        
   8599 ****        11.0000  31.7500  26.0000 Du        
   8600 ****        11.0000  31.7500  26.2500 Du        
   8601 ****        11.0000  31.7500  26.5000 Du        
   8602 ****        11.0000  32.0000  24.7500 Du        
   8603 ****        11.0000  32.0000  25.0000 Du        
   8604 ****        11.0000  32.0000  25.2500 Du        
   8605 ****        11.0000  32.0000  25.5000 Du        
   8606 ****        11.0000  32.0000  25.7500 Du        
   8607 ****        11.0000  32.0000  26.0000 Du        
   8608 ****        11.0000  32.0000  26.2500 Du        
   8609 ****        11.0000  32.2500  24.7500 Du        
   8610 ****        11.0000  32.2500  25.0000 Du        
   8611 ****        11.0000  32.2500  25.2500 Du        
   8612 ****        11.0000  32.2500  25.5000 Du        
   8613 ****        11.0000  32.2500  25.7500 Du        
   8614 ****        11.0000  32.2500  26.0000 Du        
   8615 ****        11.0000  32.2500  26.2500 Du        
   8616 ****        11.0000  32.5000  25.0000 Du        
   8617 ****        11.0000  32.5000  25.2500 Du        
   8618 ****        11.0000  32.5000  25.5000 Du        
   8619 ****        11.0000  32.5000  25.7500 Du        
   8620 ****        11.0000  32.7500  25.0000 Du        
   8621 ****        11.0000  32.7500  25.2500 Du        
   8622 ****        11.0000  32.7500  25.5000 Du        
   8623 ****        11.0000  32.7500  25.7500 Du        
   8624 ****        11.0000  33.0000  25.2500 Du        
   8625 ****        11.0000  35.0000   2.7500 Du        
   8626 ****        11.0000  35.0000   3.0000 Du        
   8627 ****        11.0000  35.0000   3.2500 Du        
   8628 ****        11.0000  35.0000   3.5000 Du        
   8629 ****        11.0000  35.0000   3.7500 Du        
   8630 ****        11.0000  35.0000   4.0000 Du        
   8631 ****        11.0000  35.2500   3.2500 Du        
   8632 ****        11.0000  35.2500   3.5000 Du        
   8633 ****        11.0000  35.2500   3.7500 Du        
   8634 ****        11.0000  35.2500   4.0000 Du        
   8635 ****        11.0000  35.2500   4.2500 Du        
   8636 ****        11.0000  35.5000   3.2500 Du        
   8637 ****        11.0000  35.5000   3.5000 Du        
   8638 ****        11.0000  35.5000   3.7500 Du        
   8639 ****        11.0000  35.5000   4.0000 Du        
   8640 ****        11.0000  35.5000   4.2500 Du        
   8641 ****        11.0000  35.7500   4.0000 Du        
   8642 ****        11.0000  35.7500   4.5000 Du        
   8643 ****        11.0000  35.7500   4.7500 Du        
   8644 ****        11.0000  35.7500   5.0000 Du        
   8645 ****        11.0000  36.0000   4.7500 Du        
   8646 ****        11.0000  36.0000   5.0000 Du        
   8647 ****        11.0000  36.0000   5.2500 Du        
   8648 ****        11.0000  36.2500   5.0000 Du        
   8649 ****        11.0000  36.2500   5.2500 Du        
   8650 ****        11.2500  15.5000  21.7500 Du        
   8651 ****        11.2500  15.7500  21.7500 Du        
   8652 ****        11.2500  15.7500  22.0000 Du        
   8653 ****        11.2500  16.0000  21.7500 Du        
   8654 ****        11.2500  16.0000  22.0000 Du        
   8655 ****        11.2500  16.2500  22.0000 Du        
   8656 ****        11.2500  23.0000  15.7500 Du        
   8657 ****        11.2500  23.0000  16.0000 Du        
   8658 ****        11.2500  23.0000  16.2500 Du        
   8659 ****        11.2500  23.2500  15.7500 Du        
   8660 ****        11.2500  23.2500  16.0000 Du        
   8661 ****        11.2500  23.2500  16.2500 Du        
   8662 ****        11.2500  23.2500  16.5000 Du        
   8663 ****        11.2500  23.2500  16.7500 Du        
   8664 ****        11.2500  23.2500  17.0000 Du        
   8665 ****        11.2500  23.2500  17.2500 Du        
   8666 ****        11.2500  23.5000  15.7500 Du        
   8667 ****        11.2500  23.5000  16.0000 Du        
   8668 ****        11.2500  23.5000  16.2500 Du        
   8669 ****        11.2500  23.5000  16.5000 Du        
   8670 ****        11.2500  23.5000  16.7500 Du        
   8671 ****        11.2500  23.5000  17.0000 Du        
   8672 ****        11.2500  23.5000  17.2500 Du        
   8673 ****        11.2500  23.5000  17.5000 Du        
   8674 ****        11.2500  23.5000  17.7500 Du        
   8675 ****        11.2500  23.5000  18.0000 Du        
   8676 ****        11.2500  23.7500  16.0000 Du        
   8677 ****        11.2500  23.7500  16.2500 Du        
   8678 ****        11.2500  23.7500  16.5000 Du        
   8679 ****        11.2500  23.7500  16.7500 Du        
   8680 ****        11.2500  23.7500  17.0000 Du        
   8681 ****        11.2500  23.7500  17.2500 Du        
   8682 ****        11.2500  23.7500  17.5000 Du        
   8683 ****        11.2500  23.7500  17.7500 Du        
   8684 ****        11.2500  23.7500  18.0000 Du        
   8685 ****        11.2500  23.7500  18.2500 Du        
   8686 ****        11.2500  23.7500  18.5000 Du        
   8687 ****        11.2500  23.7500  18.7500 Du        
   8688 ****        11.2500  24.0000  16.2500 Du        
   8689 ****        11.2500  24.0000  16.5000 Du        
   8690 ****        11.2500  24.0000  16.7500 Du        
   8691 ****        11.2500  24.0000  17.0000 Du        
   8692 ****        11.2500  24.0000  17.2500 Du        
   8693 ****        11.2500  24.0000  17.5000 Du        
   8694 ****        11.2500  24.0000  17.7500 Du        
   8695 ****        11.2500  24.0000  18.0000 Du        
   8696 ****        11.2500  24.0000  18.2500 Du        
   8697 ****        11.2500  24.0000  18.5000 Du        
   8698 ****        11.2500  24.2500  16.7500 Du        
   8699 ****        11.2500  24.2500  17.0000 Du        
   8700 ****        11.2500  24.2500  17.2500 Du        
   8701 ****        11.2500  24.2500  17.5000 Du        
   8702 ****        11.2500  24.2500  17.7500 Du        
   8703 ****        11.2500  24.2500  18.0000 Du        
   8704 ****        11.2500  24.2500  18.2500 Du        
   8705 ****        11.2500  24.5000  17.0000 Du        
   8706 ****        11.2500  24.5000  17.2500 Du        
   8707 ****        11.2500  24.5000  17.5000 Du        
   8708 ****        11.2500  24.5000  17.7500 Du        
   8709 ****        11.2500  24.5000  18.0000 Du        
   8710 ****        11.2500  24.7500  17.2500 Du        
   8711 ****        11.2500  24.7500  17.5000 Du        
   8712 ****        11.2500  24.7500  17.7500 Du        
   8713 ****        11.2500  25.0000  17.0000 Du        
   8714 ****        11.2500  25.0000  17.2500 Du        
   8715 ****        11.2500  25.0000  17.5000 Du        
   8716 ****        11.2500  27.0000  20.0000 Du        
   8717 ****        11.2500  27.0000  20.2500 Du        
   8718 ****        11.2500  27.0000  20.5000 Du        
   8719 ****        11.2500  27.0000  20.7500 Du        
   8720 ****        11.2500  27.0000  21.0000 Du        
   8721 ****        11.2500  27.0000  21.2500 Du        
   8722 ****        11.2500  27.2500  20.0000 Du        
   8723 ****        11.2500  27.2500  20.2500 Du        
   8724 ****        11.2500  27.2500  20.5000 Du        
   8725 ****        11.2500  27.2500  20.7500 Du        
   8726 ****        11.2500  27.2500  21.0000 Du        
   8727 ****        11.2500  27.2500  21.2500 Du        
   8728 ****        11.2500  27.5000  19.7500 Du        
   8729 ****        11.2500  27.5000  20.0000 Du        
   8730 ****        11.2500  27.5000  20.2500 Du        
   8731 ****        11.2500  27.5000  20.5000 Du        
   8732 ****        11.2500  27.5000  20.7500 Du        
   8733 ****        11.2500  27.5000  21.0000 Du        
   8734 ****        11.2500  27.5000  21.2500 Du        
   8735 ****        11.2500  27.5000  21.5000 Du        
   8736 ****        11.2500  27.7500  19.7500 Du        
   8737 ****        11.2500  27.7500  20.0000 Du        
   8738 ****        11.2500  27.7500  20.2500 Du        
   8739 ****        11.2500  27.7500  20.5000 Du        
   8740 ****        11.2500  27.7500  20.7500 Du        
   8741 ****        11.2500  27.7500  21.0000 Du        
   8742 ****        11.2500  27.7500  21.2500 Du        
   8743 ****        11.2500  27.7500  21.5000 Du        
   8744 ****        11.2500  27.7500  21.7500 Du        
   8745 ****        11.2500  28.0000  19.5000 Du        
   8746 ****        11.2500  28.0000  19.7500 Du        
   8747 ****        11.2500  28.0000  20.0000 Du        
   8748 ****        11.2500  28.0000  20.2500 Du        
   8749 ****        11.2500  28.0000  20.5000 Du        
   8750 ****        11.2500  28.0000  20.7500 Du        
   8751 ****        11.2500  28.0000  21.0000 Du        
   8752 ****        11.2500  28.0000  21.2500 Du        
   8753 ****        11.2500  28.0000  21.5000 Du        
   8754 ****        11.2500  28.0000  21.7500 Du        
   8755 ****        11.2500  28.2500  19.5000 Du        
   8756 ****        11.2500  28.2500  19.7500 Du        
   8757 ****        11.2500  28.2500  20.0000 Du        
   8758 ****        11.2500  28.2500  20.2500 Du        
   8759 ****        11.2500  28.2500  20.5000 Du        
   8760 ****        11.2500  28.2500  20.7500 Du        
   8761 ****        11.2500  28.2500  21.0000 Du        
   8762 ****        11.2500  28.2500  21.2500 Du        
   8763 ****        11.2500  28.2500  21.5000 Du        
   8764 ****        11.2500  28.2500  21.7500 Du        
   8765 ****        11.2500  28.5000  19.5000 Du        
   8766 ****        11.2500  28.5000  19.7500 Du        
   8767 ****        11.2500  28.5000  20.0000 Du        
   8768 ****        11.2500  28.5000  20.2500 Du        
   8769 ****        11.2500  28.5000  20.5000 Du        
   8770 ****        11.2500  28.5000  20.7500 Du        
   8771 ****        11.2500  28.5000  21.0000 Du        
   8772 ****        11.2500  28.5000  21.2500 Du        
   8773 ****        11.2500  28.5000  21.5000 Du        
   8774 ****        11.2500  28.5000  21.7500 Du        
   8775 ****        11.2500  28.5000  22.0000 Du        
   8776 ****        11.2500  28.7500  19.2500 Du        
   8777 ****        11.2500  28.7500  19.5000 Du        
   8778 ****        11.2500  28.7500  19.7500 Du        
   8779 ****        11.2500  28.7500  20.0000 Du        
   8780 ****        11.2500  28.7500  20.2500 Du        
   8781 ****        11.2500  28.7500  20.5000 Du        
   8782 ****        11.2500  28.7500  20.7500 Du        
   8783 ****        11.2500  28.7500  21.0000 Du        
   8784 ****        11.2500  28.7500  21.2500 Du        
   8785 ****        11.2500  28.7500  21.5000 Du        
   8786 ****        11.2500  28.7500  21.7500 Du        
   8787 ****        11.2500  28.7500  22.0000 Du        
   8788 ****        11.2500  29.0000  19.2500 Du        
   8789 ****        11.2500  29.0000  19.5000 Du        
   8790 ****        11.2500  29.0000  19.7500 Du        
   8791 ****        11.2500  29.0000  20.0000 Du        
   8792 ****        11.2500  29.0000  20.2500 Du        
   8793 ****        11.2500  29.0000  20.5000 Du        
   8794 ****        11.2500  29.0000  20.7500 Du        
   8795 ****        11.2500  29.0000  21.0000 Du        
   8796 ****        11.2500  29.0000  21.2500 Du        
   8797 ****        11.2500  29.0000  21.5000 Du        
   8798 ****        11.2500  29.0000  21.7500 Du        
   8799 ****        11.2500  29.2500  19.2500 Du        
   8800 ****        11.2500  29.2500  19.5000 Du        
   8801 ****        11.2500  29.2500  19.7500 Du        
   8802 ****        11.2500  29.2500  20.0000 Du        
   8803 ****        11.2500  29.2500  20.2500 Du        
   8804 ****        11.2500  29.2500  20.5000 Du        
   8805 ****        11.2500  29.5000  19.2500 Du        
   8806 ****        11.2500  29.5000  19.5000 Du        
   8807 ****        11.2500  29.5000  19.7500 Du        
   8808 ****        11.2500  31.0000  25.5000 Du        
   8809 ****        11.2500  31.0000  25.7500 Du        
   8810 ****        11.2500  31.0000  26.0000 Du        
   8811 ****        11.2500  31.2500  24.2500 Du        
   8812 ****        11.2500  31.2500  24.5000 Du        
   8813 ****        11.2500  31.2500  24.7500 Du        
   8814 ****        11.2500  31.2500  25.0000 Du        
   8815 ****        11.2500  31.2500  25.2500 Du        
   8816 ****        11.2500  31.2500  25.5000 Du        
   8817 ****        11.2500  31.2500  25.7500 Du        
   8818 ****        11.2500  31.2500  26.0000 Du        
   8819 ****        11.2500  31.2500  26.2500 Du        
   8820 ****        11.2500  31.5000  24.5000 Du        
   8821 ****        11.2500  31.5000  24.7500 Du        
   8822 ****        11.2500  31.5000  25.0000 Du        
   8823 ****        11.2500  31.5000  25.2500 Du        
   8824 ****        11.2500  31.5000  25.5000 Du        
   8825 ****        11.2500  31.5000  25.7500 Du        
   8826 ****        11.2500  31.5000  26.0000 Du        
   8827 ****        11.2500  31.5000  26.2500 Du        
   8828 ****        11.2500  31.7500  24.5000 Du        
   8829 ****        11.2500  31.7500  24.7500 Du        
   8830 ****        11.2500  31.7500  25.0000 Du        
   8831 ****        11.2500  31.7500  25.2500 Du        
   8832 ****        11.2500  31.7500  25.5000 Du        
   8833 ****        11.2500  31.7500  25.7500 Du        
   8834 ****        11.2500  31.7500  26.0000 Du        
   8835 ****        11.2500  31.7500  26.2500 Du        
   8836 ****        11.2500  32.0000  24.5000 Du        
   8837 ****        11.2500  32.0000  24.7500 Du        
   8838 ****        11.2500  32.0000  25.0000 Du        
   8839 ****        11.2500  32.0000  25.2500 Du        
   8840 ****        11.2500  32.0000  25.5000 Du        
   8841 ****        11.2500  32.0000  25.7500 Du        
   8842 ****        11.2500  32.0000  26.0000 Du        
   8843 ****        11.2500  32.0000  26.2500 Du        
   8844 ****        11.2500  32.2500  24.7500 Du        
   8845 ****        11.2500  32.2500  25.0000 Du        
   8846 ****        11.2500  32.2500  25.2500 Du        
   8847 ****        11.2500  32.2500  25.5000 Du        
   8848 ****        11.2500  32.2500  25.7500 Du        
   8849 ****        11.2500  32.2500  26.0000 Du        
   8850 ****        11.2500  32.5000  25.0000 Du        
   8851 ****        11.2500  32.5000  25.2500 Du        
   8852 ****        11.2500  32.5000  25.5000 Du        
   8853 ****        11.2500  32.7500  25.0000 Du        
   8854 ****        11.2500  32.7500  25.2500 Du        
   8855 ****        11.2500  33.0000  25.2500 Du        
   8856 ****        11.2500  35.0000   2.7500 Du        
   8857 ****        11.2500  35.0000   3.0000 Du        
   8858 ****        11.2500  35.0000   3.2500 Du        
   8859 ****        11.2500  35.0000   3.5000 Du        
   8860 ****        11.2500  35.0000   3.7500 Du        
   8861 ****        11.2500  35.0000   4.0000 Du        
   8862 ****        11.2500  35.0000   4.2500 Du        
   8863 ****        11.2500  35.2500   3.2500 Du        
   8864 ****        11.2500  35.2500   3.5000 Du        
   8865 ****        11.2500  35.2500   3.7500 Du        
   8866 ****        11.2500  35.2500   4.0000 Du        
   8867 ****        11.2500  35.2500   4.2500 Du        
   8868 ****        11.2500  35.2500   4.5000 Du        
   8869 ****        11.2500  35.2500   4.7500 Du        
   8870 ****        11.2500  35.5000   3.2500 Du        
   8871 ****        11.2500  35.5000   3.5000 Du        
   8872 ****        11.2500  35.5000   3.7500 Du        
   8873 ****        11.2500  35.5000   4.0000 Du        
   8874 ****        11.2500  35.5000   4.2500 Du        
   8875 ****        11.2500  35.5000   4.5000 Du        
   8876 ****        11.2500  35.5000   4.7500 Du        
   8877 ****        11.2500  35.7500   3.7500 Du        
   8878 ****        11.2500  35.7500   4.2500 Du        
   8879 ****        11.2500  35.7500   4.5000 Du        
   8880 ****        11.2500  35.7500   4.7500 Du        
   8881 ****        11.2500  35.7500   5.0000 Du        
   8882 ****        11.2500  35.7500   5.2500 Du        
   8883 ****        11.2500  36.0000   4.5000 Du        
   8884 ****        11.2500  36.0000   4.7500 Du        
   8885 ****        11.2500  36.0000   5.0000 Du        
   8886 ****        11.2500  36.0000   5.2500 Du        
   8887 ****        11.2500  36.2500   5.0000 Du        
   8888 ****        11.2500  36.2500   5.2500 Du        
   8889 ****        11.5000  12.7500  10.7500 Du        
   8890 ****        11.5000  12.7500  11.0000 Du        
   8891 ****        11.5000  13.0000  10.7500 Du        
   8892 ****        11.5000  13.0000  11.0000 Du        
   8893 ****        11.5000  13.2500  11.0000 Du        
   8894 ****        11.5000  15.5000  21.2500 Du        
   8895 ****        11.5000  15.5000  21.5000 Du        
   8896 ****        11.5000  15.7500  21.2500 Du        
   8897 ****        11.5000  15.7500  21.5000 Du        
   8898 ****        11.5000  15.7500  21.7500 Du        
   8899 ****        11.5000  15.7500  22.0000 Du        
   8900 ****        11.5000  16.0000  21.2500 Du        
   8901 ****        11.5000  16.0000  21.5000 Du        
   8902 ****        11.5000  16.0000  21.7500 Du        
   8903 ****        11.5000  16.0000  22.0000 Du        
   8904 ****        11.5000  16.2500  21.5000 Du        
   8905 ****        11.5000  16.2500  21.7500 Du        
   8906 ****        11.5000  16.2500  22.0000 Du        
   8907 ****        11.5000  22.7500  15.5000 Du        
   8908 ****        11.5000  23.0000  15.2500 Du        
   8909 ****        11.5000  23.0000  15.5000 Du        
   8910 ****        11.5000  23.0000  15.7500 Du        
   8911 ****        11.5000  23.0000  16.0000 Du        
   8912 ****        11.5000  23.0000  16.2500 Du        
   8913 ****        11.5000  23.2500  15.5000 Du        
   8914 ****        11.5000  23.2500  15.7500 Du        
   8915 ****        11.5000  23.2500  16.0000 Du        
   8916 ****        11.5000  23.2500  16.2500 Du        
   8917 ****        11.5000  23.2500  16.5000 Du        
   8918 ****        11.5000  23.2500  16.7500 Du        
   8919 ****        11.5000  23.2500  17.0000 Du        
   8920 ****        11.5000  23.5000  15.5000 Du        
   8921 ****        11.5000  23.5000  15.7500 Du        
   8922 ****        11.5000  23.5000  16.0000 Du        
   8923 ****        11.5000  23.5000  16.2500 Du        
   8924 ****        11.5000  23.5000  16.5000 Du        
   8925 ****        11.5000  23.5000  16.7500 Du        
   8926 ****        11.5000  23.5000  17.0000 Du        
   8927 ****        11.5000  23.5000  17.2500 Du        
   8928 ****        11.5000  23.7500  15.7500 Du        
   8929 ****        11.5000  23.7500  16.0000 Du        
   8930 ****        11.5000  23.7500  16.2500 Du        
   8931 ****        11.5000  23.7500  16.5000 Du        
   8932 ****        11.5000  23.7500  16.7500 Du        
   8933 ****        11.5000  23.7500  17.0000 Du        
   8934 ****        11.5000  23.7500  17.2500 Du        
   8935 ****        11.5000  24.0000  16.0000 Du        
   8936 ****        11.5000  24.0000  16.2500 Du        
   8937 ****        11.5000  24.0000  16.5000 Du        
   8938 ****        11.5000  24.0000  16.7500 Du        
   8939 ****        11.5000  24.0000  17.0000 Du        
   8940 ****        11.5000  24.2500  16.7500 Du        
   8941 ****        11.5000  27.7500  20.5000 Du        
   8942 ****        11.5000  27.7500  20.7500 Du        
   8943 ****        11.5000  27.7500  21.0000 Du        
   8944 ****        11.5000  27.7500  21.2500 Du        
   8945 ****        11.5000  28.0000  19.5000 Du        
   8946 ****        11.5000  28.0000  19.7500 Du        
   8947 ****        11.5000  28.0000  20.0000 Du        
   8948 ****        11.5000  28.0000  20.2500 Du        
   8949 ****        11.5000  28.0000  20.5000 Du        
   8950 ****        11.5000  28.0000  20.7500 Du        
   8951 ****        11.5000  28.0000  21.0000 Du        
   8952 ****        11.5000  28.0000  21.2500 Du        
   8953 ****        11.5000  28.0000  21.5000 Du        
   8954 ****        11.5000  28.2500  19.5000 Du        
   8955 ****        11.5000  28.2500  19.7500 Du        
   8956 ****        11.5000  28.2500  20.0000 Du        
   8957 ****        11.5000  28.2500  20.2500 Du        
   8958 ****        11.5000  28.2500  20.5000 Du        
   8959 ****        11.5000  28.2500  20.7500 Du        
   8960 ****        11.5000  28.2500  21.0000 Du        
   8961 ****        11.5000  28.2500  21.2500 Du        
   8962 ****        11.5000  28.2500  21.5000 Du        
   8963 ****        11.5000  28.2500  21.7500 Du        
   8964 ****        11.5000  28.5000  19.2500 Du        
   8965 ****        11.5000  28.5000  19.5000 Du        
   8966 ****        11.5000  28.5000  19.7500 Du        
   8967 ****        11.5000  28.5000  20.0000 Du        
   8968 ****        11.5000  28.5000  20.2500 Du        
   8969 ****        11.5000  28.5000  20.5000 Du        
   8970 ****        11.5000  28.5000  20.7500 Du        
   8971 ****        11.5000  28.5000  21.0000 Du        
   8972 ****        11.5000  28.5000  21.2500 Du        
   8973 ****        11.5000  28.5000  21.5000 Du        
   8974 ****        11.5000  28.5000  21.7500 Du        
   8975 ****        11.5000  28.5000  22.0000 Du        
   8976 ****        11.5000  28.7500  19.2500 Du        
   8977 ****        11.5000  28.7500  19.5000 Du        
   8978 ****        11.5000  28.7500  19.7500 Du        
   8979 ****        11.5000  28.7500  20.0000 Du        
   8980 ****        11.5000  28.7500  20.2500 Du        
   8981 ****        11.5000  28.7500  20.5000 Du        
   8982 ****        11.5000  28.7500  20.7500 Du        
   8983 ****        11.5000  28.7500  21.0000 Du        
   8984 ****        11.5000  28.7500  21.2500 Du        
   8985 ****        11.5000  28.7500  21.5000 Du        
   8986 ****        11.5000  28.7500  21.7500 Du        
   8987 ****        11.5000  28.7500  22.0000 Du        
   8988 ****        11.5000  29.0000  19.0000 Du        
   8989 ****        11.5000  29.0000  19.2500 Du        
   8990 ****        11.5000  29.0000  19.5000 Du        
   8991 ****        11.5000  29.0000  19.7500 Du        
   8992 ****        11.5000  29.0000  20.0000 Du        
   8993 ****        11.5000  29.0000  20.2500 Du        
   8994 ****        11.5000  29.0000  20.5000 Du        
   8995 ****        11.5000  29.0000  20.7500 Du        
   8996 ****        11.5000  29.0000  21.0000 Du        
   8997 ****        11.5000  29.0000  21.2500 Du        
   8998 ****        11.5000  29.0000  21.5000 Du        
   8999 ****        11.5000  29.0000  21.7500 Du        
   9000 ****        11.5000  29.2500  19.0000 Du        
   9001 ****        11.5000  29.2500  19.2500 Du        
   9002 ****        11.5000  29.2500  19.5000 Du        
   9003 ****        11.5000  29.2500  19.7500 Du        
   9004 ****        11.5000  29.2500  20.0000 Du        
   9005 ****        11.5000  29.2500  20.2500 Du        
   9006 ****        11.5000  29.5000  19.0000 Du        
   9007 ****        11.5000  29.5000  19.2500 Du        
   9008 ****        11.5000  29.5000  19.5000 Du        
   9009 ****        11.5000  29.5000  19.7500 Du        
   9010 ****        11.5000  29.7500  19.0000 Du        
   9011 ****        11.5000  29.7500  19.2500 Du        
   9012 ****        11.5000  31.0000  24.5000 Du        
   9013 ****        11.5000  31.0000  24.7500 Du        
   9014 ****        11.5000  31.0000  25.0000 Du        
   9015 ****        11.5000  31.0000  25.2500 Du        
   9016 ****        11.5000  31.2500  24.5000 Du        
   9017 ****        11.5000  31.2500  24.7500 Du        
   9018 ****        11.5000  31.2500  25.0000 Du        
   9019 ****        11.5000  31.2500  25.2500 Du        
   9020 ****        11.5000  31.2500  25.5000 Du        
   9021 ****        11.5000  31.5000  24.7500 Du        
   9022 ****        11.5000  31.5000  25.0000 Du        
   9023 ****        11.5000  31.5000  25.5000 Du        
   9024 ****        11.5000  31.7500  24.7500 Du        
   9025 ****        11.5000  31.7500  25.0000 Du        
   9026 ****        11.5000  31.7500  25.5000 Du        
   9027 ****        11.5000  32.0000  24.7500 Du        
   9028 ****        11.5000  32.0000  25.0000 Du        
   9029 ****        11.5000  32.0000  25.2500 Du        
   9030 ****        11.5000  32.2500  25.0000 Du        
   9031 ****        11.5000  32.2500  25.2500 Du        
   9032 ****        11.5000  34.7500   4.0000 Du        
   9033 ****        11.5000  34.7500   4.2500 Du        
   9034 ****        11.5000  35.0000   3.0000 Du        
   9035 ****        11.5000  35.0000   3.2500 Du        
   9036 ****        11.5000  35.0000   3.5000 Du        
   9037 ****        11.5000  35.0000   3.7500 Du        
   9038 ****        11.5000  35.0000   4.0000 Du        
   9039 ****        11.5000  35.0000   4.2500 Du        
   9040 ****        11.5000  35.0000   4.5000 Du        
   9041 ****        11.5000  35.0000   4.7500 Du        
   9042 ****        11.5000  35.2500   3.2500 Du        
   9043 ****        11.5000  35.2500   3.5000 Du        
   9044 ****        11.5000  35.2500   3.7500 Du        
   9045 ****        11.5000  35.2500   4.0000 Du        
   9046 ****        11.5000  35.2500   4.2500 Du        
   9047 ****        11.5000  35.2500   4.5000 Du        
   9048 ****        11.5000  35.2500   4.7500 Du        
   9049 ****        11.5000  35.2500   5.0000 Du        
   9050 ****        11.5000  35.5000   3.7500 Du        
   9051 ****        11.5000  35.5000   4.0000 Du        
   9052 ****        11.5000  35.5000   4.2500 Du        
   9053 ****        11.5000  35.5000   4.5000 Du        
   9054 ****        11.5000  35.5000   4.7500 Du        
   9055 ****        11.5000  35.5000   5.0000 Du        
   9056 ****        11.5000  35.7500   4.0000 Du        
   9057 ****        11.5000  35.7500   4.2500 Du        
   9058 ****        11.5000  35.7500   4.5000 Du        
   9059 ****        11.5000  35.7500   4.7500 Du        
   9060 ****        11.5000  35.7500   5.0000 Du        
   9061 ****        11.5000  35.7500   5.2500 Du        
   9062 ****        11.5000  36.0000   4.5000 Du        
   9063 ****        11.5000  36.0000   4.7500 Du        
   9064 ****        11.5000  36.0000   5.0000 Du        
   9065 ****        11.5000  36.0000   5.2500 Du        
   9066 ****        11.5000  36.2500   4.7500 Du        
   9067 ****        11.5000  36.2500   5.0000 Du        
   9068 ****        11.7500  12.0000  10.5000 Du        
   9069 ****        11.7500  12.0000  10.7500 Du        
   9070 ****        11.7500  12.2500  10.5000 Du        
   9071 ****        11.7500  12.2500  10.7500 Du        
   9072 ****        11.7500  12.2500  11.0000 Du        
   9073 ****        11.7500  12.5000  10.5000 Du        
   9074 ****        11.7500  12.5000  10.7500 Du        
   9075 ****        11.7500  12.5000  11.0000 Du        
   9076 ****        11.7500  12.7500  10.7500 Du        
   9077 ****        11.7500  12.7500  11.0000 Du        
   9078 ****        11.7500  12.7500  11.2500 Du        
   9079 ****        11.7500  13.0000  10.7500 Du        
   9080 ****        11.7500  13.0000  11.0000 Du        
   9081 ****        11.7500  13.0000  11.2500 Du        
   9082 ****        11.7500  13.2500  10.7500 Du        
   9083 ****        11.7500  13.2500  11.0000 Du        
   9084 ****        11.7500  13.5000  10.7500 Du        
   9085 ****        11.7500  15.7500  21.2500 Du        
   9086 ****        11.7500  16.0000  21.2500 Du        
   9087 ****        11.7500  16.0000  21.5000 Du        
   9088 ****        11.7500  22.7500  15.0000 Du        
   9089 ****        11.7500  22.7500  15.2500 Du        
   9090 ****        11.7500  22.7500  15.5000 Du        
   9091 ****        11.7500  22.7500  15.7500 Du        
   9092 ****        11.7500  23.0000  15.0000 Du        
   9093 ****        11.7500  23.0000  15.2500 Du        
   9094 ****        11.7500  23.0000  15.5000 Du        
   9095 ****        11.7500  23.0000  15.7500 Du        
   9096 ****        11.7500  23.0000  16.0000 Du        
   9097 ****        11.7500  23.0000  16.2500 Du        
   9098 ****        11.7500  23.2500  15.0000 Du        
   9099 ****        11.7500  23.2500  15.2500 Du        
   9100 ****        11.7500  23.2500  15.5000 Du        
   9101 ****        11.7500  23.2500  15.7500 Du        
   9102 ****        11.7500  23.2500  16.0000 Du        
   9103 ****        11.7500  23.2500  16.2500 Du        
   9104 ****        11.7500  23.2500  16.5000 Du        
   9105 ****        11.7500  23.2500  16.7500 Du        
   9106 ****        11.7500  23.2500  17.0000 Du        
   9107 ****        11.7500  23.5000  15.2500 Du        
   9108 ****        11.7500  23.5000  15.5000 Du        
   9109 ****        11.7500  23.5000  15.7500 Du        
   9110 ****        11.7500  23.5000  16.0000 Du        
   9111 ****        11.7500  23.5000  16.2500 Du        
   9112 ****        11.7500  23.5000  16.5000 Du        
   9113 ****        11.7500  23.5000  16.7500 Du        
   9114 ****        11.7500  23.5000  17.0000 Du        
   9115 ****        11.7500  23.5000  17.2500 Du        
   9116 ****        11.7500  23.7500  15.5000 Du        
   9117 ****        11.7500  23.7500  15.7500 Du        
   9118 ****        11.7500  23.7500  16.0000 Du        
   9119 ****        11.7500  23.7500  16.2500 Du        
   9120 ****        11.7500  23.7500  16.5000 Du        
   9121 ****        11.7500  23.7500  16.7500 Du        
   9122 ****        11.7500  23.7500  17.0000 Du        
   9123 ****        11.7500  23.7500  17.2500 Du        
   9124 ****        11.7500  24.0000  15.7500 Du        
   9125 ****        11.7500  24.0000  16.0000 Du        
   9126 ****        11.7500  24.0000  16.2500 Du        
   9127 ****        11.7500  24.0000  16.5000 Du        
   9128 ****        11.7500  24.0000  16.7500 Du        
   9129 ****        11.7500  24.0000  17.0000 Du        
   9130 ****        11.7500  24.2500  15.7500 Du        
   9131 ****        11.7500  24.2500  16.0000 Du        
   9132 ****        11.7500  24.2500  16.2500 Du        
   9133 ****        11.7500  28.0000  19.7500 Du        
   9134 ****        11.7500  28.0000  20.0000 Du        
   9135 ****        11.7500  28.0000  20.2500 Du        
   9136 ****        11.7500  28.0000  20.5000 Du        
   9137 ****        11.7500  28.0000  20.7500 Du        
   9138 ****        11.7500  28.0000  21.0000 Du        
   9139 ****        11.7500  28.0000  21.2500 Du        
   9140 ****        11.7500  28.0000  21.5000 Du        
   9141 ****        11.7500  28.2500  19.2500 Du        
   9142 ****        11.7500  28.2500  19.5000 Du        
   9143 ****        11.7500  28.2500  19.7500 Du        
   9144 ****        11.7500  28.2500  20.0000 Du        
   9145 ****        11.7500  28.2500  20.2500 Du        
   9146 ****        11.7500  28.2500  20.5000 Du        
   9147 ****        11.7500  28.2500  20.7500 Du        
   9148 ****        11.7500  28.2500  21.0000 Du        
   9149 ****        11.7500  28.2500  21.2500 Du        
   9150 ****        11.7500  28.2500  21.5000 Du        
   9151 ****        11.7500  28.2500  21.7500 Du        
   9152 ****        11.7500  28.5000  19.0000 Du        
   9153 ****        11.7500  28.5000  19.2500 Du        
   9154 ****        11.7500  28.5000  19.5000 Du        
   9155 ****        11.7500  28.5000  19.7500 Du        
   9156 ****        11.7500  28.5000  20.0000 Du        
   9157 ****        11.7500  28.5000  20.2500 Du        
   9158 ****        11.7500  28.5000  20.5000 Du        
   9159 ****        11.7500  28.5000  20.7500 Du        
   9160 ****        11.7500  28.5000  21.0000 Du        
   9161 ****        11.7500  28.5000  21.2500 Du        
   9162 ****        11.7500  28.5000  21.5000 Du        
   9163 ****        11.7500  28.5000  21.7500 Du        
   9164 ****        11.7500  28.5000  22.0000 Du        
   9165 ****        11.7500  28.7500  18.7500 Du        
   9166 ****        11.7500  28.7500  19.0000 Du        
   9167 ****        11.7500  28.7500  19.2500 Du        
   9168 ****        11.7500  28.7500  19.5000 Du        
   9169 ****        11.7500  28.7500  19.7500 Du        
   9170 ****        11.7500  28.7500  20.0000 Du        
   9171 ****        11.7500  28.7500  20.2500 Du        
   9172 ****        11.7500  28.7500  20.5000 Du        
   9173 ****        11.7500  28.7500  20.7500 Du        
   9174 ****        11.7500  28.7500  21.0000 Du        
   9175 ****        11.7500  28.7500  21.2500 Du        
   9176 ****        11.7500  28.7500  21.5000 Du        
   9177 ****        11.7500  28.7500  21.7500 Du        
   9178 ****        11.7500  28.7500  22.0000 Du        
   9179 ****        11.7500  28.7500  22.2500 Du        
   9180 ****        11.7500  29.0000  18.7500 Du        
   9181 ****        11.7500  29.0000  19.0000 Du        
   9182 ****        11.7500  29.0000  19.2500 Du        
   9183 ****        11.7500  29.0000  19.5000 Du        
   9184 ****        11.7500  29.0000  19.7500 Du        
   9185 ****        11.7500  29.0000  20.0000 Du        
   9186 ****        11.7500  29.0000  20.2500 Du        
   9187 ****        11.7500  29.0000  20.5000 Du        
   9188 ****        11.7500  29.0000  20.7500 Du        
   9189 ****        11.7500  29.0000  21.0000 Du        
   9190 ****        11.7500  29.0000  21.2500 Du        
   9191 ****        11.7500  29.0000  21.5000 Du        
   9192 ****        11.7500  29.0000  21.7500 Du        
   9193 ****        11.7500  29.0000  22.0000 Du        
   9194 ****        11.7500  29.2500  18.7500 Du        
   9195 ****        11.7500  29.2500  19.0000 Du        
   9196 ****        11.7500  29.2500  19.2500 Du        
   9197 ****        11.7500  29.2500  19.5000 Du        
   9198 ****        11.7500  29.2500  19.7500 Du        
   9199 ****        11.7500  29.2500  20.0000 Du        
   9200 ****        11.7500  29.2500  20.2500 Du        
   9201 ****        11.7500  29.5000  18.7500 Du        
   9202 ****        11.7500  29.5000  19.0000 Du        
   9203 ****        11.7500  29.5000  19.2500 Du        
   9204 ****        11.7500  29.5000  19.5000 Du        
   9205 ****        11.7500  29.5000  19.7500 Du        
   9206 ****        11.7500  29.7500  18.5000 Du        
   9207 ****        11.7500  29.7500  18.7500 Du        
   9208 ****        11.7500  29.7500  19.0000 Du        
   9209 ****        11.7500  29.7500  19.2500 Du        
   9210 ****        11.7500  29.7500  19.5000 Du        
   9211 ****        11.7500  30.0000  18.5000 Du        
   9212 ****        11.7500  30.0000  18.7500 Du        
   9213 ****        11.7500  30.0000  19.0000 Du        
   9214 ****        11.7500  31.0000  24.5000 Du        
   9215 ****        11.7500  31.0000  24.7500 Du        
   9216 ****        11.7500  31.0000  25.0000 Du        
   9217 ****        11.7500  31.0000  25.2500 Du        
   9218 ****        11.7500  31.2500  24.5000 Du        
   9219 ****        11.7500  31.2500  24.7500 Du        
   9220 ****        11.7500  31.2500  25.0000 Du        
   9221 ****        11.7500  31.2500  25.2500 Du        
   9222 ****        11.7500  31.5000  24.7500 Du        
   9223 ****        11.7500  31.7500  24.7500 Du        
   9224 ****        11.7500  31.7500  25.0000 Du        
   9225 ****        11.7500  32.0000  24.7500 Du        
   9226 ****        11.7500  32.0000  25.0000 Du        
   9227 ****        11.7500  34.7500   3.7500 Du        
   9228 ****        11.7500  34.7500   4.0000 Du        
   9229 ****        11.7500  34.7500   4.2500 Du        
   9230 ****        11.7500  34.7500   4.5000 Du        
   9231 ****        11.7500  34.7500   4.7500 Du        
   9232 ****        11.7500  34.7500   5.0000 Du        
   9233 ****        11.7500  35.0000   3.2500 Du        
   9234 ****        11.7500  35.0000   3.5000 Du        
   9235 ****        11.7500  35.0000   3.7500 Du        
   9236 ****        11.7500  35.0000   4.0000 Du        
   9237 ****        11.7500  35.0000   4.2500 Du        
   9238 ****        11.7500  35.0000   4.5000 Du        
   9239 ****        11.7500  35.0000   4.7500 Du        
   9240 ****        11.7500  35.0000   5.0000 Du        
   9241 ****        11.7500  35.2500   3.2500 Du        
   9242 ****        11.7500  35.2500   3.5000 Du        
   9243 ****        11.7500  35.2500   3.7500 Du        
   9244 ****        11.7500  35.2500   4.0000 Du        
   9245 ****        11.7500  35.2500   4.2500 Du        
   9246 ****        11.7500  35.2500   4.5000 Du        
   9247 ****        11.7500  35.2500   4.7500 Du        
   9248 ****        11.7500  35.2500   5.0000 Du        
   9249 ****        11.7500  35.2500   5.2500 Du        
   9250 ****        11.7500  35.5000   3.5000 Du        
   9251 ****        11.7500  35.5000   3.7500 Du        
   9252 ****        11.7500  35.5000   4.0000 Du        
   9253 ****        11.7500  35.5000   4.2500 Du        
   9254 ****        11.7500  35.5000   4.5000 Du        
   9255 ****        11.7500  35.5000   4.7500 Du        
   9256 ****        11.7500  35.5000   5.0000 Du        
   9257 ****        11.7500  35.5000   5.2500 Du        
   9258 ****        11.7500  35.7500   3.7500 Du        
   9259 ****        11.7500  35.7500   4.0000 Du        
   9260 ****        11.7500  35.7500   4.2500 Du        
   9261 ****        11.7500  35.7500   4.5000 Du        
   9262 ****        11.7500  35.7500   4.7500 Du        
   9263 ****        11.7500  35.7500   5.0000 Du        
   9264 ****        11.7500  35.7500   5.2500 Du        
   9265 ****        11.7500  36.0000   4.5000 Du        
   9266 ****        11.7500  36.0000   4.7500 Du        
   9267 ****        11.7500  36.0000   5.0000 Du        
   9268 ****        11.7500  36.0000   5.2500 Du        
   9269 ****        11.7500  36.2500   4.7500 Du        
   9270 ****        11.7500  36.2500   5.0000 Du        
   9271 ****        11.7500  36.2500   5.2500 Du        
   9272 ****        11.7500  36.2500   5.5000 Du        
   9273 ****        12.0000  12.0000  10.2500 Du        
   9274 ****        12.0000  12.0000  10.5000 Du        
   9275 ****        12.0000  12.0000  10.7500 Du        
   9276 ****        12.0000  12.0000  11.0000 Du        
   9277 ****        12.0000  12.2500  10.2500 Du        
   9278 ****        12.0000  12.2500  10.5000 Du        
   9279 ****        12.0000  12.2500  10.7500 Du        
   9280 ****        12.0000  12.2500  11.0000 Du        
   9281 ****        12.0000  12.2500  11.2500 Du        
   9282 ****        12.0000  12.5000  10.5000 Du        
   9283 ****        12.0000  12.5000  10.7500 Du        
   9284 ****        12.0000  12.5000  11.0000 Du        
   9285 ****        12.0000  12.5000  11.2500 Du        
   9286 ****        12.0000  12.7500  10.5000 Du        
   9287 ****        12.0000  12.7500  10.7500 Du        
   9288 ****        12.0000  12.7500  11.0000 Du        
   9289 ****        12.0000  12.7500  11.2500 Du        
   9290 ****        12.0000  13.0000  10.5000 Du        
   9291 ****        12.0000  13.0000  10.7500 Du        
   9292 ****        12.0000  13.0000  11.0000 Du        
   9293 ****        12.0000  13.0000  11.2500 Du        
   9294 ****        12.0000  13.2500  10.5000 Du        
   9295 ****        12.0000  13.2500  10.7500 Du        
   9296 ****        12.0000  13.2500  11.0000 Du        
   9297 ****        12.0000  13.5000  10.7500 Du        
   9298 ****        12.0000  22.5000  14.7500 Du        
   9299 ****        12.0000  22.5000  15.0000 Du        
   9300 ****        12.0000  22.5000  15.2500 Du        
   9301 ****        12.0000  22.7500  14.7500 Du        
   9302 ****        12.0000  22.7500  15.0000 Du        
   9303 ****        12.0000  22.7500  15.2500 Du        
   9304 ****        12.0000  22.7500  15.5000 Du        
   9305 ****        12.0000  22.7500  15.7500 Du        
   9306 ****        12.0000  23.0000  14.7500 Du        
   9307 ****        12.0000  23.0000  15.0000 Du        
   9308 ****        12.0000  23.0000  15.2500 Du        
   9309 ****        12.0000  23.0000  15.5000 Du        
   9310 ****        12.0000  23.0000  15.7500 Du        
   9311 ****        12.0000  23.0000  16.0000 Du        
   9312 ****        12.0000  23.0000  16.2500 Du        
   9313 ****        12.0000  23.2500  14.7500 Du        
   9314 ****        12.0000  23.2500  15.0000 Du        
   9315 ****        12.0000  23.2500  15.2500 Du        
   9316 ****        12.0000  23.2500  15.5000 Du        
   9317 ****        12.0000  23.2500  15.7500 Du        
   9318 ****        12.0000  23.2500  16.0000 Du        
   9319 ****        12.0000  23.2500  16.2500 Du        
   9320 ****        12.0000  23.2500  16.5000 Du        
   9321 ****        12.0000  23.2500  16.7500 Du        
   9322 ****        12.0000  23.2500  17.0000 Du        
   9323 ****        12.0000  23.5000  15.0000 Du        
   9324 ****        12.0000  23.5000  15.2500 Du        
   9325 ****        12.0000  23.5000  15.5000 Du        
   9326 ****        12.0000  23.5000  15.7500 Du        
   9327 ****        12.0000  23.5000  16.0000 Du        
   9328 ****        12.0000  23.5000  16.2500 Du        
   9329 ****        12.0000  23.5000  16.5000 Du        
   9330 ****        12.0000  23.5000  16.7500 Du        
   9331 ****        12.0000  23.7500  15.0000 Du        
   9332 ****        12.0000  23.7500  15.2500 Du        
   9333 ****        12.0000  23.7500  15.5000 Du        
   9334 ****        12.0000  23.7500  15.7500 Du        
   9335 ****        12.0000  23.7500  16.0000 Du        
   9336 ****        12.0000  23.7500  16.2500 Du        
   9337 ****        12.0000  23.7500  16.5000 Du        
   9338 ****        12.0000  23.7500  16.7500 Du        
   9339 ****        12.0000  23.7500  17.0000 Du        
   9340 ****        12.0000  24.0000  15.2500 Du        
   9341 ****        12.0000  24.0000  15.5000 Du        
   9342 ****        12.0000  24.0000  15.7500 Du        
   9343 ****        12.0000  24.0000  16.0000 Du        
   9344 ****        12.0000  24.0000  16.2500 Du        
   9345 ****        12.0000  24.0000  16.5000 Du        
   9346 ****        12.0000  24.0000  16.7500 Du        
   9347 ****        12.0000  24.0000  17.0000 Du        
   9348 ****        12.0000  24.2500  15.5000 Du        
   9349 ****        12.0000  24.2500  15.7500 Du        
   9350 ****        12.0000  24.2500  16.0000 Du        
   9351 ****        12.0000  24.2500  16.2500 Du        
   9352 ****        12.0000  28.0000  21.0000 Du        
   9353 ****        12.0000  28.0000  21.2500 Du        
   9354 ****        12.0000  28.2500  19.7500 Du        
   9355 ****        12.0000  28.2500  20.0000 Du        
   9356 ****        12.0000  28.2500  20.2500 Du        
   9357 ****        12.0000  28.2500  20.7500 Du        
   9358 ****        12.0000  28.2500  21.0000 Du        
   9359 ****        12.0000  28.2500  21.2500 Du        
   9360 ****        12.0000  28.2500  21.7500 Du        
   9361 ****        12.0000  28.5000  19.0000 Du        
   9362 ****        12.0000  28.5000  19.2500 Du        
   9363 ****        12.0000  28.5000  19.5000 Du        
   9364 ****        12.0000  28.5000  19.7500 Du        
   9365 ****        12.0000  28.5000  20.0000 Du        
   9366 ****        12.0000  28.5000  20.2500 Du        
   9367 ****        12.0000  28.5000  20.5000 Du        
   9368 ****        12.0000  28.5000  20.7500 Du        
   9369 ****        12.0000  28.5000  21.0000 Du        
   9370 ****        12.0000  28.5000  21.2500 Du        
   9371 ****        12.0000  28.5000  21.5000 Du        
   9372 ****        12.0000  28.5000  21.7500 Du        
   9373 ****        12.0000  28.5000  22.0000 Du        
   9374 ****        12.0000  28.7500  18.7500 Du        
   9375 ****        12.0000  28.7500  19.0000 Du        
   9376 ****        12.0000  28.7500  19.2500 Du        
   9377 ****        12.0000  28.7500  19.5000 Du        
   9378 ****        12.0000  28.7500  19.7500 Du        
   9379 ****        12.0000  28.7500  20.0000 Du        
   9380 ****        12.0000  28.7500  20.2500 Du        
   9381 ****        12.0000  28.7500  20.5000 Du        
   9382 ****        12.0000  28.7500  20.7500 Du        
   9383 ****        12.0000  28.7500  21.0000 Du        
   9384 ****        12.0000  28.7500  21.2500 Du        
   9385 ****        12.0000  28.7500  21.5000 Du        
   9386 ****        12.0000  28.7500  21.7500 Du        
   9387 ****        12.0000  28.7500  22.0000 Du        
   9388 ****        12.0000  28.7500  22.2500 Du        
   9389 ****        12.0000  29.0000  18.5000 Du        
   9390 ****        12.0000  29.0000  18.7500 Du        
   9391 ****        12.0000  29.0000  19.0000 Du        
   9392 ****        12.0000  29.0000  19.2500 Du        
   9393 ****        12.0000  29.0000  19.5000 Du        
   9394 ****        12.0000  29.0000  19.7500 Du        
   9395 ****        12.0000  29.0000  20.0000 Du        
   9396 ****        12.0000  29.0000  20.2500 Du        
   9397 ****        12.0000  29.0000  20.5000 Du        
   9398 ****        12.0000  29.0000  20.7500 Du        
   9399 ****        12.0000  29.0000  21.0000 Du        
   9400 ****        12.0000  29.0000  21.2500 Du        
   9401 ****        12.0000  29.0000  21.7500 Du        
   9402 ****        12.0000  29.0000  22.0000 Du        
   9403 ****        12.0000  29.0000  22.2500 Du        
   9404 ****        12.0000  29.2500  18.5000 Du        
   9405 ****        12.0000  29.2500  18.7500 Du        
   9406 ****        12.0000  29.2500  19.0000 Du        
   9407 ****        12.0000  29.2500  19.2500 Du        
   9408 ****        12.0000  29.2500  19.5000 Du        
   9409 ****        12.0000  29.2500  19.7500 Du        
   9410 ****        12.0000  29.2500  20.0000 Du        
   9411 ****        12.0000  29.2500  20.2500 Du        
   9412 ****        12.0000  29.5000  18.5000 Du        
   9413 ****        12.0000  29.5000  18.7500 Du        
   9414 ****        12.0000  29.5000  19.0000 Du        
   9415 ****        12.0000  29.5000  19.2500 Du        
   9416 ****        12.0000  29.5000  19.5000 Du        
   9417 ****        12.0000  29.5000  19.7500 Du        
   9418 ****        12.0000  29.7500  18.2500 Du        
   9419 ****        12.0000  29.7500  18.5000 Du        
   9420 ****        12.0000  29.7500  18.7500 Du        
   9421 ****        12.0000  29.7500  19.0000 Du        
   9422 ****        12.0000  29.7500  19.2500 Du        
   9423 ****        12.0000  29.7500  19.5000 Du        
   9424 ****        12.0000  30.0000  18.2500 Du        
   9425 ****        12.0000  30.0000  18.5000 Du        
   9426 ****        12.0000  30.0000  18.7500 Du        
   9427 ****        12.0000  30.0000  19.0000 Du        
   9428 ****        12.0000  30.2500  18.2500 Du        
   9429 ****        12.0000  30.2500  18.5000 Du        
   9430 ****        12.0000  31.0000  24.5000 Du        
   9431 ****        12.0000  31.0000  24.7500 Du        
   9432 ****        12.0000  31.0000  25.0000 Du        
   9433 ****        12.0000  31.2500  25.0000 Du        
   9434 ****        12.0000  31.2500  25.2500 Du        
   9435 ****        12.0000  34.2500   4.7500 Du        
   9436 ****        12.0000  34.5000   4.0000 Du        
   9437 ****        12.0000  34.5000   4.2500 Du        
   9438 ****        12.0000  34.5000   4.5000 Du        
   9439 ****        12.0000  34.5000   4.7500 Du        
   9440 ****        12.0000  34.5000   5.0000 Du        
   9441 ****        12.0000  34.7500   3.5000 Du        
   9442 ****        12.0000  34.7500   3.7500 Du        
   9443 ****        12.0000  34.7500   4.0000 Du        
   9444 ****        12.0000  34.7500   4.2500 Du        
   9445 ****        12.0000  34.7500   4.5000 Du        
   9446 ****        12.0000  34.7500   4.7500 Du        
   9447 ****        12.0000  34.7500   5.0000 Du        
   9448 ****        12.0000  34.7500   5.2500 Du        
   9449 ****        12.0000  35.0000   3.5000 Du        
   9450 ****        12.0000  35.0000   3.7500 Du        
   9451 ****        12.0000  35.0000   4.0000 Du        
   9452 ****        12.0000  35.0000   4.2500 Du        
   9453 ****        12.0000  35.0000   4.5000 Du        
   9454 ****        12.0000  35.0000   4.7500 Du        
   9455 ****        12.0000  35.0000   5.0000 Du        
   9456 ****        12.0000  35.0000   5.2500 Du        
   9457 ****        12.0000  35.2500   3.2500 Du        
   9458 ****        12.0000  35.2500   3.5000 Du        
   9459 ****        12.0000  35.2500   3.7500 Du        
   9460 ****        12.0000  35.2500   4.0000 Du        
   9461 ****        12.0000  35.2500   4.2500 Du        
   9462 ****        12.0000  35.2500   4.5000 Du        
   9463 ****        12.0000  35.2500   4.7500 Du        
   9464 ****        12.0000  35.2500   5.0000 Du        
   9465 ****        12.0000  35.2500   5.2500 Du        
   9466 ****        12.0000  35.2500   5.5000 Du        
   9467 ****        12.0000  35.5000   3.5000 Du        
   9468 ****        12.0000  35.5000   3.7500 Du        
   9469 ****        12.0000  35.5000   4.0000 Du        
   9470 ****        12.0000  35.5000   4.2500 Du        
   9471 ****        12.0000  35.5000   4.5000 Du        
   9472 ****        12.0000  35.5000   4.7500 Du        
   9473 ****        12.0000  35.5000   5.0000 Du        
   9474 ****        12.0000  35.5000   5.2500 Du        
   9475 ****        12.0000  35.7500   3.7500 Du        
   9476 ****        12.0000  35.7500   4.0000 Du        
   9477 ****        12.0000  35.7500   4.2500 Du        
   9478 ****        12.0000  35.7500   4.5000 Du        
   9479 ****        12.0000  35.7500   4.7500 Du        
   9480 ****        12.0000  35.7500   5.0000 Du        
   9481 ****        12.0000  35.7500   5.2500 Du        
   9482 ****        12.0000  36.0000   4.5000 Du        
   9483 ****        12.0000  36.0000   4.7500 Du        
   9484 ****        12.0000  36.0000   5.0000 Du        
   9485 ****        12.0000  36.0000   5.2500 Du        
   9486 ****        12.0000  36.2500   4.7500 Du        
   9487 ****        12.0000  36.2500   5.0000 Du        
   9488 ****        12.0000  36.2500   5.2500 Du        
   9489 ****        12.2500  12.0000  10.2500 Du        
   9490 ****        12.2500  12.0000  10.5000 Du        
   9491 ****        12.2500  12.0000  10.7500 Du        
   9492 ****        12.2500  12.0000  11.0000 Du        
   9493 ****        12.2500  12.0000  11.2500 Du        
   9494 ****        12.2500  12.2500  10.2500 Du        
   9495 ****        12.2500  12.2500  10.5000 Du        
   9496 ****        12.2500  12.2500  10.7500 Du        
   9497 ****        12.2500  12.2500  11.0000 Du        
   9498 ****        12.2500  12.2500  11.2500 Du        
   9499 ****        12.2500  12.5000  10.5000 Du        
   9500 ****        12.2500  12.5000  10.7500 Du        
   9501 ****        12.2500  12.5000  11.0000 Du        
   9502 ****        12.2500  12.5000  11.2500 Du        
   9503 ****        12.2500  12.5000  11.5000 Du        
   9504 ****        12.2500  12.7500  10.5000 Du        
   9505 ****        12.2500  12.7500  10.7500 Du        
   9506 ****        12.2500  12.7500  11.0000 Du        
   9507 ****        12.2500  12.7500  11.2500 Du        
   9508 ****        12.2500  12.7500  11.5000 Du        
   9509 ****        12.2500  13.0000  10.7500 Du        
   9510 ****        12.2500  13.0000  11.0000 Du        
   9511 ****        12.2500  13.0000  11.2500 Du        
   9512 ****        12.2500  22.5000  14.7500 Du        
   9513 ****        12.2500  22.5000  15.0000 Du        
   9514 ****        12.2500  22.5000  15.2500 Du        
   9515 ****        12.2500  22.7500  14.5000 Du        
   9516 ****        12.2500  22.7500  14.7500 Du        
   9517 ****        12.2500  22.7500  15.0000 Du        
   9518 ****        12.2500  22.7500  15.2500 Du        
   9519 ****        12.2500  22.7500  15.5000 Du        
   9520 ****        12.2500  22.7500  15.7500 Du        
   9521 ****        12.2500  23.0000  14.5000 Du        
   9522 ****        12.2500  23.0000  14.7500 Du        
   9523 ****        12.2500  23.0000  15.0000 Du        
   9524 ****        12.2500  23.0000  15.2500 Du        
   9525 ****        12.2500  23.0000  15.5000 Du        
   9526 ****        12.2500  23.0000  15.7500 Du        
   9527 ****        12.2500  23.0000  16.0000 Du        
   9528 ****        12.2500  23.0000  16.2500 Du        
   9529 ****        12.2500  23.2500  14.5000 Du        
   9530 ****        12.2500  23.2500  14.7500 Du        
   9531 ****        12.2500  23.2500  15.0000 Du        
   9532 ****        12.2500  23.2500  15.2500 Du        
   9533 ****        12.2500  23.2500  15.5000 Du        
   9534 ****        12.2500  23.2500  15.7500 Du        
   9535 ****        12.2500  23.2500  16.0000 Du        
   9536 ****        12.2500  23.2500  16.2500 Du        
   9537 ****        12.2500  23.2500  16.5000 Du        
   9538 ****        12.2500  23.5000  14.7500 Du        
   9539 ****        12.2500  23.5000  15.0000 Du        
   9540 ****        12.2500  23.5000  15.2500 Du        
   9541 ****        12.2500  23.5000  15.5000 Du        
   9542 ****        12.2500  23.5000  15.7500 Du        
   9543 ****        12.2500  23.5000  16.0000 Du        
   9544 ****        12.2500  23.5000  16.2500 Du        
   9545 ****        12.2500  23.7500  14.7500 Du        
   9546 ****        12.2500  23.7500  15.0000 Du        
   9547 ****        12.2500  23.7500  15.2500 Du        
   9548 ****        12.2500  23.7500  15.5000 Du        
   9549 ****        12.2500  23.7500  15.7500 Du        
   9550 ****        12.2500  23.7500  16.0000 Du        
   9551 ****        12.2500  23.7500  16.2500 Du        
   9552 ****        12.2500  24.0000  15.0000 Du        
   9553 ****        12.2500  24.0000  15.2500 Du        
   9554 ****        12.2500  24.0000  15.5000 Du        
   9555 ****        12.2500  24.0000  15.7500 Du        
   9556 ****        12.2500  24.0000  16.0000 Du        
   9557 ****        12.2500  24.0000  16.2500 Du        
   9558 ****        12.2500  24.2500  15.2500 Du        
   9559 ****        12.2500  24.2500  15.5000 Du        
   9560 ****        12.2500  24.2500  15.7500 Du        
   9561 ****        12.2500  24.2500  16.0000 Du        
   9562 ****        12.2500  28.5000  18.7500 Du        
   9563 ****        12.2500  28.5000  19.0000 Du        
   9564 ****        12.2500  28.5000  19.2500 Du        
   9565 ****        12.2500  28.5000  19.5000 Du        
   9566 ****        12.2500  28.5000  19.7500 Du        
   9567 ****        12.2500  28.5000  20.0000 Du        
   9568 ****        12.2500  28.5000  20.2500 Du        
   9569 ****        12.2500  28.5000  20.5000 Du        
   9570 ****        12.2500  28.5000  20.7500 Du        
   9571 ****        12.2500  28.5000  21.0000 Du        
   9572 ****        12.2500  28.5000  21.2500 Du        
   9573 ****        12.2500  28.5000  21.5000 Du        
   9574 ****        12.2500  28.5000  21.7500 Du        
   9575 ****        12.2500  28.7500  18.5000 Du        
   9576 ****        12.2500  28.7500  18.7500 Du        
   9577 ****        12.2500  28.7500  19.0000 Du        
   9578 ****        12.2500  28.7500  19.2500 Du        
   9579 ****        12.2500  28.7500  19.5000 Du        
   9580 ****        12.2500  28.7500  19.7500 Du        
   9581 ****        12.2500  28.7500  20.0000 Du        
   9582 ****        12.2500  28.7500  20.2500 Du        
   9583 ****        12.2500  28.7500  20.5000 Du        
   9584 ****        12.2500  28.7500  20.7500 Du        
   9585 ****        12.2500  28.7500  21.0000 Du        
   9586 ****        12.2500  28.7500  21.2500 Du        
   9587 ****        12.2500  28.7500  21.5000 Du        
   9588 ****        12.2500  28.7500  21.7500 Du        
   9589 ****        12.2500  28.7500  22.0000 Du        
   9590 ****        12.2500  28.7500  22.2500 Du        
   9591 ****        12.2500  29.0000  18.2500 Du        
   9592 ****        12.2500  29.0000  18.5000 Du        
   9593 ****        12.2500  29.0000  18.7500 Du        
   9594 ****        12.2500  29.0000  19.0000 Du        
   9595 ****        12.2500  29.0000  19.2500 Du        
   9596 ****        12.2500  29.0000  19.5000 Du        
   9597 ****        12.2500  29.0000  19.7500 Du        
   9598 ****        12.2500  29.0000  20.0000 Du        
   9599 ****        12.2500  29.0000  20.2500 Du        
   9600 ****        12.2500  29.0000  20.5000 Du        
   9601 ****        12.2500  29.0000  20.7500 Du        
   9602 ****        12.2500  29.2500  18.2500 Du        
   9603 ****        12.2500  29.2500  18.5000 Du        
   9604 ****        12.2500  29.2500  18.7500 Du        
   9605 ****        12.2500  29.2500  19.0000 Du        
   9606 ****        12.2500  29.2500  19.2500 Du        
   9607 ****        12.2500  29.2500  19.5000 Du        
   9608 ****        12.2500  29.2500  19.7500 Du        
   9609 ****        12.2500  29.2500  20.0000 Du        
   9610 ****        12.2500  29.2500  20.2500 Du        
   9611 ****        12.2500  29.5000  18.2500 Du        
   9612 ****        12.2500  29.5000  18.5000 Du        
   9613 ****        12.2500  29.5000  18.7500 Du        
   9614 ****        12.2500  29.5000  19.0000 Du        
   9615 ****        12.2500  29.5000  19.2500 Du        
   9616 ****        12.2500  29.5000  19.5000 Du        
   9617 ****        12.2500  29.5000  19.7500 Du        
   9618 ****        12.2500  29.5000  20.0000 Du        
   9619 ****        12.2500  29.7500  18.2500 Du        
   9620 ****        12.2500  29.7500  18.5000 Du        
   9621 ****        12.2500  29.7500  18.7500 Du        
   9622 ****        12.2500  29.7500  19.0000 Du        
   9623 ****        12.2500  29.7500  19.2500 Du        
   9624 ****        12.2500  29.7500  19.5000 Du        
   9625 ****        12.2500  30.0000  18.0000 Du        
   9626 ****        12.2500  30.0000  18.2500 Du        
   9627 ****        12.2500  30.0000  18.5000 Du        
   9628 ****        12.2500  30.0000  18.7500 Du        
   9629 ****        12.2500  30.0000  19.0000 Du        
   9630 ****        12.2500  30.0000  19.2500 Du        
   9631 ****        12.2500  30.2500  18.0000 Du        
   9632 ****        12.2500  30.2500  18.2500 Du        
   9633 ****        12.2500  30.2500  18.5000 Du        
   9634 ****        12.2500  30.2500  18.7500 Du        
   9635 ****        12.2500  30.5000  18.2500 Du        
   9636 ****        12.2500  34.2500   4.2500 Du        
   9637 ****        12.2500  34.2500   4.5000 Du        
   9638 ****        12.2500  34.2500   4.7500 Du        
   9639 ****        12.2500  34.2500   5.0000 Du        
   9640 ****        12.2500  34.2500   5.2500 Du        
   9641 ****        12.2500  34.5000   3.7500 Du        
   9642 ****        12.2500  34.5000   4.0000 Du        
   9643 ****        12.2500  34.5000   4.2500 Du        
   9644 ****        12.2500  34.5000   4.5000 Du        
   9645 ****        12.2500  34.5000   4.7500 Du        
   9646 ****        12.2500  34.5000   5.0000 Du        
   9647 ****        12.2500  34.5000   5.2500 Du        
   9648 ****        12.2500  34.7500   3.7500 Du        
   9649 ****        12.2500  34.7500   4.0000 Du        
   9650 ****        12.2500  34.7500   4.2500 Du        
   9651 ****        12.2500  34.7500   4.5000 Du        
   9652 ****        12.2500  34.7500   4.7500 Du        
   9653 ****        12.2500  34.7500   5.0000 Du        
   9654 ****        12.2500  34.7500   5.2500 Du        
   9655 ****        12.2500  35.0000   3.5000 Du        
   9656 ****        12.2500  35.0000   3.7500 Du        
   9657 ****        12.2500  35.0000   4.0000 Du        
   9658 ****        12.2500  35.0000   4.2500 Du        
   9659 ****        12.2500  35.0000   4.5000 Du        
   9660 ****        12.2500  35.0000   4.7500 Du        
   9661 ****        12.2500  35.0000   5.0000 Du        
   9662 ****        12.2500  35.0000   5.2500 Du        
   9663 ****        12.2500  35.2500   3.5000 Du        
   9664 ****        12.2500  35.2500   3.7500 Du        
   9665 ****        12.2500  35.2500   4.0000 Du        
   9666 ****        12.2500  35.2500   4.2500 Du        
   9667 ****        12.2500  35.2500   4.5000 Du        
   9668 ****        12.2500  35.2500   4.7500 Du        
   9669 ****        12.2500  35.2500   5.0000 Du        
   9670 ****        12.2500  35.2500   5.2500 Du        
   9671 ****        12.2500  35.2500   5.5000 Du        
   9672 ****        12.2500  35.5000   3.7500 Du        
   9673 ****        12.2500  35.5000   4.0000 Du        
   9674 ****        12.2500  35.5000   4.2500 Du        
   9675 ****        12.2500  35.5000   4.5000 Du        
   9676 ****        12.2500  35.5000   4.7500 Du        
   9677 ****        12.2500  35.5000   5.0000 Du        
   9678 ****        12.2500  35.5000   5.2500 Du        
   9679 ****        12.2500  35.7500   3.7500 Du        
   9680 ****        12.2500  35.7500   4.0000 Du        
   9681 ****        12.2500  35.7500   4.2500 Du        
   9682 ****        12.2500  35.7500   4.5000 Du        
   9683 ****        12.2500  35.7500   4.7500 Du        
   9684 ****        12.2500  35.7500   5.0000 Du        
   9685 ****        12.2500  35.7500   5.2500 Du        
   9686 ****        12.2500  36.0000   4.5000 Du        
   9687 ****        12.2500  36.0000   4.7500 Du        
   9688 ****        12.2500  36.0000   5.0000 Du        
   9689 ****        12.2500  36.0000   5.2500 Du        
   9690 ****        12.5000  12.0000  10.5000 Du        
   9691 ****        12.5000  12.0000  10.7500 Du        
   9692 ****        12.5000  12.0000  11.0000 Du        
   9693 ****        12.5000  12.0000  11.2500 Du        
   9694 ****        12.5000  12.0000  11.5000 Du        
   9695 ****        12.5000  12.2500  10.7500 Du        
   9696 ****        12.5000  12.2500  11.0000 Du        
   9697 ****        12.5000  12.2500  11.2500 Du        
   9698 ****        12.5000  12.2500  11.5000 Du        
   9699 ****        12.5000  12.5000  10.7500 Du        
   9700 ****        12.5000  12.5000  11.0000 Du        
   9701 ****        12.5000  12.5000  11.2500 Du        
   9702 ****        12.5000  12.5000  11.5000 Du        
   9703 ****        12.5000  12.5000  11.7500 Du        
   9704 ****        12.5000  12.7500  11.0000 Du        
   9705 ****        12.5000  12.7500  11.2500 Du        
   9706 ****        12.5000  12.7500  11.5000 Du        
   9707 ****        12.5000  16.2500   5.5000 Du        
   9708 ****        12.5000  16.5000   5.5000 Du        
   9709 ****        12.5000  16.5000   5.7500 Du        
   9710 ****        12.5000  16.7500   5.5000 Du        
   9711 ****        12.5000  22.2500  14.7500 Du        
   9712 ****        12.5000  22.2500  15.0000 Du        
   9713 ****        12.5000  22.5000  14.5000 Du        
   9714 ****        12.5000  22.5000  14.7500 Du        
   9715 ****        12.5000  22.5000  15.0000 Du        
   9716 ****        12.5000  22.5000  15.2500 Du        
   9717 ****        12.5000  22.7500  14.5000 Du        
   9718 ****        12.5000  22.7500  14.7500 Du        
   9719 ****        12.5000  22.7500  15.0000 Du        
   9720 ****        12.5000  22.7500  15.2500 Du        
   9721 ****        12.5000  22.7500  15.5000 Du        
   9722 ****        12.5000  22.7500  15.7500 Du        
   9723 ****        12.5000  22.7500  16.0000 Du        
   9724 ****        12.5000  23.0000  14.5000 Du        
   9725 ****        12.5000  23.0000  14.7500 Du        
   9726 ****        12.5000  23.0000  15.0000 Du        
   9727 ****        12.5000  23.0000  15.2500 Du        
   9728 ****        12.5000  23.0000  15.5000 Du        
   9729 ****        12.5000  23.0000  15.7500 Du        
   9730 ****        12.5000  23.0000  16.0000 Du        
   9731 ****        12.5000  23.0000  16.2500 Du        
   9732 ****        12.5000  23.2500  14.5000 Du        
   9733 ****        12.5000  23.2500  14.7500 Du        
   9734 ****        12.5000  23.2500  15.0000 Du        
   9735 ****        12.5000  23.2500  15.2500 Du        
   9736 ****        12.5000  23.2500  15.5000 Du        
   9737 ****        12.5000  23.2500  15.7500 Du        
   9738 ****        12.5000  23.2500  16.0000 Du        
   9739 ****        12.5000  23.2500  16.2500 Du        
   9740 ****        12.5000  23.2500  16.5000 Du        
   9741 ****        12.5000  23.5000  14.5000 Du        
   9742 ****        12.5000  23.5000  14.7500 Du        
   9743 ****        12.5000  23.5000  15.0000 Du        
   9744 ****        12.5000  23.5000  15.2500 Du        
   9745 ****        12.5000  23.5000  15.5000 Du        
   9746 ****        12.5000  23.5000  15.7500 Du        
   9747 ****        12.5000  23.5000  16.0000 Du        
   9748 ****        12.5000  23.5000  16.2500 Du        
   9749 ****        12.5000  23.7500  14.7500 Du        
   9750 ****        12.5000  23.7500  15.0000 Du        
   9751 ****        12.5000  23.7500  15.2500 Du        
   9752 ****        12.5000  23.7500  15.5000 Du        
   9753 ****        12.5000  23.7500  15.7500 Du        
   9754 ****        12.5000  23.7500  16.0000 Du        
   9755 ****        12.5000  23.7500  16.2500 Du        
   9756 ****        12.5000  24.0000  14.7500 Du        
   9757 ****        12.5000  24.0000  15.0000 Du        
   9758 ****        12.5000  24.0000  15.2500 Du        
   9759 ****        12.5000  24.0000  15.5000 Du        
   9760 ****        12.5000  24.0000  15.7500 Du        
   9761 ****        12.5000  24.0000  16.0000 Du        
   9762 ****        12.5000  24.0000  16.2500 Du        
   9763 ****        12.5000  24.2500  15.0000 Du        
   9764 ****        12.5000  24.2500  15.2500 Du        
   9765 ****        12.5000  24.2500  15.5000 Du        
   9766 ****        12.5000  24.2500  15.7500 Du        
   9767 ****        12.5000  24.2500  16.0000 Du        
   9768 ****        12.5000  24.5000  15.2500 Du        
   9769 ****        12.5000  28.7500  18.2500 Du        
   9770 ****        12.5000  28.7500  18.5000 Du        
   9771 ****        12.5000  28.7500  18.7500 Du        
   9772 ****        12.5000  28.7500  19.0000 Du        
   9773 ****        12.5000  28.7500  19.2500 Du        
   9774 ****        12.5000  28.7500  19.5000 Du        
   9775 ****        12.5000  28.7500  19.7500 Du        
   9776 ****        12.5000  28.7500  20.0000 Du        
   9777 ****        12.5000  29.0000  18.2500 Du        
   9778 ****        12.5000  29.0000  18.5000 Du        
   9779 ****        12.5000  29.0000  18.7500 Du        
   9780 ****        12.5000  29.0000  19.0000 Du        
   9781 ****        12.5000  29.0000  19.2500 Du        
   9782 ****        12.5000  29.0000  19.5000 Du        
   9783 ****        12.5000  29.0000  19.7500 Du        
   9784 ****        12.5000  29.0000  20.0000 Du        
   9785 ****        12.5000  29.0000  20.2500 Du        
   9786 ****        12.5000  29.2500  18.0000 Du        
   9787 ****        12.5000  29.2500  18.2500 Du        
   9788 ****        12.5000  29.2500  18.5000 Du        
   9789 ****        12.5000  29.2500  18.7500 Du        
   9790 ****        12.5000  29.2500  19.0000 Du        
   9791 ****        12.5000  29.2500  19.2500 Du        
   9792 ****        12.5000  29.2500  19.5000 Du        
   9793 ****        12.5000  29.2500  19.7500 Du        
   9794 ****        12.5000  29.2500  20.0000 Du        
   9795 ****        12.5000  29.5000  18.0000 Du        
   9796 ****        12.5000  29.5000  18.2500 Du        
   9797 ****        12.5000  29.5000  18.5000 Du        
   9798 ****        12.5000  29.5000  18.7500 Du        
   9799 ****        12.5000  29.5000  19.0000 Du        
   9800 ****        12.5000  29.5000  19.2500 Du        
   9801 ****        12.5000  29.5000  19.5000 Du        
   9802 ****        12.5000  29.5000  19.7500 Du        
   9803 ****        12.5000  29.7500  18.0000 Du        
   9804 ****        12.5000  29.7500  18.2500 Du        
   9805 ****        12.5000  29.7500  18.5000 Du        
   9806 ****        12.5000  29.7500  18.7500 Du        
   9807 ****        12.5000  29.7500  19.0000 Du        
   9808 ****        12.5000  29.7500  19.2500 Du        
   9809 ****        12.5000  29.7500  19.5000 Du        
   9810 ****        12.5000  30.0000  18.0000 Du        
   9811 ****        12.5000  30.0000  18.2500 Du        
   9812 ****        12.5000  30.0000  18.5000 Du        
   9813 ****        12.5000  30.0000  18.7500 Du        
   9814 ****        12.5000  30.0000  19.0000 Du        
   9815 ****        12.5000  30.0000  19.2500 Du        
   9816 ****        12.5000  30.2500  18.0000 Du        
   9817 ****        12.5000  30.2500  18.2500 Du        
   9818 ****        12.5000  30.2500  18.5000 Du        
   9819 ****        12.5000  30.2500  18.7500 Du        
   9820 ****        12.5000  30.5000  18.2500 Du        
   9821 ****        12.5000  30.5000  18.5000 Du        
   9822 ****        12.5000  34.0000   4.7500 Du        
   9823 ****        12.5000  34.0000   5.0000 Du        
   9824 ****        12.5000  34.2500   4.0000 Du        
   9825 ****        12.5000  34.2500   4.2500 Du        
   9826 ****        12.5000  34.2500   4.5000 Du        
   9827 ****        12.5000  34.2500   4.7500 Du        
   9828 ****        12.5000  34.2500   5.0000 Du        
   9829 ****        12.5000  34.2500   5.2500 Du        
   9830 ****        12.5000  34.5000   4.0000 Du        
   9831 ****        12.5000  34.5000   4.2500 Du        
   9832 ****        12.5000  34.5000   4.5000 Du        
   9833 ****        12.5000  34.5000   4.7500 Du        
   9834 ****        12.5000  34.5000   5.0000 Du        
   9835 ****        12.5000  34.5000   5.2500 Du        
   9836 ****        12.5000  34.7500   3.7500 Du        
   9837 ****        12.5000  34.7500   4.0000 Du        
   9838 ****        12.5000  34.7500   4.2500 Du        
   9839 ****        12.5000  34.7500   4.5000 Du        
   9840 ****        12.5000  34.7500   4.7500 Du        
   9841 ****        12.5000  34.7500   5.0000 Du        
   9842 ****        12.5000  34.7500   5.2500 Du        
   9843 ****        12.5000  35.0000   3.7500 Du        
   9844 ****        12.5000  35.0000   4.0000 Du        
   9845 ****        12.5000  35.0000   4.2500 Du        
   9846 ****        12.5000  35.0000   4.5000 Du        
   9847 ****        12.5000  35.0000   4.7500 Du        
   9848 ****        12.5000  35.0000   5.0000 Du        
   9849 ****        12.5000  35.0000   5.2500 Du        
   9850 ****        12.5000  35.0000   5.5000 Du        
   9851 ****        12.5000  35.2500   3.5000 Du        
   9852 ****        12.5000  35.2500   3.7500 Du        
   9853 ****        12.5000  35.2500   4.0000 Du        
   9854 ****        12.5000  35.2500   4.2500 Du        
   9855 ****        12.5000  35.2500   4.5000 Du        
   9856 ****        12.5000  35.2500   4.7500 Du        
   9857 ****        12.5000  35.2500   5.0000 Du        
   9858 ****        12.5000  35.2500   5.2500 Du        
   9859 ****        12.5000  35.2500   5.5000 Du        
   9860 ****        12.5000  35.5000   4.0000 Du        
   9861 ****        12.5000  35.5000   4.2500 Du        
   9862 ****        12.5000  35.5000   4.5000 Du        
   9863 ****        12.5000  35.5000   4.7500 Du        
   9864 ****        12.5000  35.5000   5.0000 Du        
   9865 ****        12.5000  35.5000   5.2500 Du        
   9866 ****        12.5000  35.7500   4.0000 Du        
   9867 ****        12.5000  35.7500   4.2500 Du        
   9868 ****        12.5000  35.7500   4.5000 Du        
   9869 ****        12.5000  35.7500   4.7500 Du        
   9870 ****        12.5000  35.7500   5.0000 Du        
   9871 ****        12.5000  35.7500   5.2500 Du        
   9872 ****        12.5000  36.0000   4.5000 Du        
   9873 ****        12.5000  36.0000   4.7500 Du        
   9874 ****        12.5000  36.0000   5.0000 Du        
   9875 ****        12.5000  36.0000   5.2500 Du        
   9876 ****        12.5000  36.0000   5.5000 Du        
   9877 ****        12.5000  36.2500   5.0000 Du        
   9878 ****        12.5000  36.2500   5.2500 Du        
   9879 ****        12.7500  12.0000  11.0000 Du        
   9880 ****        12.7500  12.0000  11.2500 Du        
   9881 ****        12.7500  12.0000  11.5000 Du        
   9882 ****        12.7500  12.0000  11.7500 Du        
   9883 ****        12.7500  12.2500  11.2500 Du        
   9884 ****        12.7500  12.2500  11.5000 Du        
   9885 ****        12.7500  12.2500  11.7500 Du        
   9886 ****        12.7500  12.5000  11.2500 Du        
   9887 ****        12.7500  12.5000  11.5000 Du        
   9888 ****        12.7500  12.5000  11.7500 Du        
   9889 ****        12.7500  15.7500   5.2500 Du        
   9890 ****        12.7500  15.7500   5.5000 Du        
   9891 ****        12.7500  15.7500   5.7500 Du        
   9892 ****        12.7500  16.0000   5.0000 Du        
   9893 ****        12.7500  16.0000   5.2500 Du        
   9894 ****        12.7500  16.0000   5.5000 Du        
   9895 ****        12.7500  16.0000   5.7500 Du        
   9896 ****        12.7500  16.2500   5.0000 Du        
   9897 ****        12.7500  16.2500   5.2500 Du        
   9898 ****        12.7500  16.2500   5.5000 Du        
   9899 ****        12.7500  16.2500   5.7500 Du        
   9900 ****        12.7500  16.5000   5.0000 Du        
   9901 ****        12.7500  16.5000   5.2500 Du        
   9902 ****        12.7500  16.5000   5.5000 Du        
   9903 ****        12.7500  16.5000   5.7500 Du        
   9904 ****        12.7500  22.2500  14.5000 Du        
   9905 ****        12.7500  22.2500  14.7500 Du        
   9906 ****        12.7500  22.2500  15.0000 Du        
   9907 ****        12.7500  22.2500  15.2500 Du        
   9908 ****        12.7500  22.5000  14.2500 Du        
   9909 ****        12.7500  22.5000  14.5000 Du        
   9910 ****        12.7500  22.5000  14.7500 Du        
   9911 ****        12.7500  22.5000  15.0000 Du        
   9912 ****        12.7500  22.5000  15.2500 Du        
   9913 ****        12.7500  22.5000  15.5000 Du        
   9914 ****        12.7500  22.7500  14.2500 Du        
   9915 ****        12.7500  22.7500  14.5000 Du        
   9916 ****        12.7500  22.7500  14.7500 Du        
   9917 ****        12.7500  22.7500  15.0000 Du        
   9918 ****        12.7500  22.7500  15.2500 Du        
   9919 ****        12.7500  22.7500  15.5000 Du        
   9920 ****        12.7500  22.7500  15.7500 Du        
   9921 ****        12.7500  22.7500  16.0000 Du        
   9922 ****        12.7500  23.0000  14.2500 Du        
   9923 ****        12.7500  23.0000  14.5000 Du        
   9924 ****        12.7500  23.0000  14.7500 Du        
   9925 ****        12.7500  23.0000  15.0000 Du        
   9926 ****        12.7500  23.0000  15.2500 Du        
   9927 ****        12.7500  23.0000  15.5000 Du        
   9928 ****        12.7500  23.0000  15.7500 Du        
   9929 ****        12.7500  23.0000  16.0000 Du        
   9930 ****        12.7500  23.0000  16.2500 Du        
   9931 ****        12.7500  23.2500  14.2500 Du        
   9932 ****        12.7500  23.2500  14.5000 Du        
   9933 ****        12.7500  23.2500  14.7500 Du        
   9934 ****        12.7500  23.2500  15.0000 Du        
   9935 ****        12.7500  23.2500  15.2500 Du        
   9936 ****        12.7500  23.2500  15.5000 Du        
   9937 ****        12.7500  23.2500  15.7500 Du        
   9938 ****        12.7500  23.2500  16.0000 Du        
   9939 ****        12.7500  23.2500  16.2500 Du        
   9940 ****        12.7500  23.2500  16.5000 Du        
   9941 ****        12.7500  23.5000  14.2500 Du        
   9942 ****        12.7500  23.5000  14.5000 Du        
   9943 ****        12.7500  23.5000  14.7500 Du        
   9944 ****        12.7500  23.5000  15.0000 Du        
   9945 ****        12.7500  23.5000  15.2500 Du        
   9946 ****        12.7500  23.5000  15.5000 Du        
   9947 ****        12.7500  23.5000  15.7500 Du        
   9948 ****        12.7500  23.5000  16.0000 Du        
   9949 ****        12.7500  23.5000  16.2500 Du        
   9950 ****        12.7500  23.7500  14.5000 Du        
   9951 ****        12.7500  23.7500  14.7500 Du        
   9952 ****        12.7500  23.7500  15.0000 Du        
   9953 ****        12.7500  23.7500  15.2500 Du        
   9954 ****        12.7500  23.7500  15.5000 Du        
   9955 ****        12.7500  23.7500  15.7500 Du        
   9956 ****        12.7500  23.7500  16.0000 Du        
   9957 ****        12.7500  23.7500  16.2500 Du        
   9958 ****        12.7500  24.0000  14.5000 Du        
   9959 ****        12.7500  24.0000  14.7500 Du        
   9960 ****        12.7500  24.0000  15.0000 Du        
   9961 ****        12.7500  24.0000  15.2500 Du        
   9962 ****        12.7500  24.0000  15.5000 Du        
   9963 ****        12.7500  24.0000  15.7500 Du        
   9964 ****        12.7500  24.0000  16.0000 Du        
   9965 ****        12.7500  24.2500  14.5000 Du        
   9966 ****        12.7500  24.2500  14.7500 Du        
   9967 ****        12.7500  24.2500  15.0000 Du        
   9968 ****        12.7500  24.2500  15.2500 Du        
   9969 ****        12.7500  24.2500  15.5000 Du        
   9970 ****        12.7500  24.2500  15.7500 Du        
   9971 ****        12.7500  24.2500  16.0000 Du        
   9972 ****        12.7500  24.5000  14.7500 Du        
   9973 ****        12.7500  24.5000  15.0000 Du        
   9974 ****        12.7500  24.5000  15.2500 Du        
   9975 ****        12.7500  24.7500  14.7500 Du        
   9976 ****        12.7500  24.7500  15.0000 Du        
   9977 ****        12.7500  24.7500  15.2500 Du        
   9978 ****        12.7500  25.0000  14.7500 Du        
   9979 ****        12.7500  25.0000  15.0000 Du        
   9980 ****        12.7500  26.0000  13.7500 Du        
   9981 ****        12.7500  26.0000  14.0000 Du        
   9982 ****        12.7500  26.0000  14.2500 Du        
   9983 ****        12.7500  26.2500  13.5000 Du        
   9984 ****        12.7500  26.2500  13.7500 Du        
   9985 ****        12.7500  26.2500  14.0000 Du        
   9986 ****        12.7500  26.2500  14.2500 Du        
   9987 ****        12.7500  26.5000  14.0000 Du        
   9988 ****        12.7500  28.7500  18.0000 Du        
   9989 ****        12.7500  28.7500  18.2500 Du        
   9990 ****        12.7500  28.7500  18.5000 Du        
   9991 ****        12.7500  28.7500  18.7500 Du        
   9992 ****        12.7500  28.7500  19.0000 Du        
   9993 ****        12.7500  28.7500  19.2500 Du        
   9994 ****        12.7500  28.7500  19.7500 Du        
   9995 ****        12.7500  29.0000  18.0000 Du        
   9996 ****        12.7500  29.0000  18.2500 Du        
   9997 ****        12.7500  29.0000  18.5000 Du        
   9998 ****        12.7500  29.0000  18.7500 Du        
   9999 ****        12.7500  29.0000  19.0000 Du        
  10000 ****        12.7500  29.0000  19.2500 Du        
  10001 ****        12.7500  29.0000  19.5000 Du        
  10002 ****        12.7500  29.0000  19.7500 Du        
  10003 ****        12.7500  29.0000  20.0000 Du        
  10004 ****        12.7500  29.2500  17.7500 Du        
  10005 ****        12.7500  29.2500  18.0000 Du        
  10006 ****        12.7500  29.2500  18.2500 Du        
  10007 ****        12.7500  29.2500  18.5000 Du        
  10008 ****        12.7500  29.2500  18.7500 Du        
  10009 ****        12.7500  29.2500  19.0000 Du        
  10010 ****        12.7500  29.2500  19.2500 Du        
  10011 ****        12.7500  29.2500  19.5000 Du        
  10012 ****        12.7500  29.2500  19.7500 Du        
  10013 ****        12.7500  29.2500  20.0000 Du        
  10014 ****        12.7500  29.5000  17.7500 Du        
  10015 ****        12.7500  29.5000  18.0000 Du        
  10016 ****        12.7500  29.5000  18.2500 Du        
  10017 ****        12.7500  29.5000  18.5000 Du        
  10018 ****        12.7500  29.5000  18.7500 Du        
  10019 ****        12.7500  29.5000  19.0000 Du        
  10020 ****        12.7500  29.5000  19.2500 Du        
  10021 ****        12.7500  29.5000  19.5000 Du        
  10022 ****        12.7500  29.5000  19.7500 Du        
  10023 ****        12.7500  29.7500  17.7500 Du        
  10024 ****        12.7500  29.7500  18.0000 Du        
  10025 ****        12.7500  29.7500  18.2500 Du        
  10026 ****        12.7500  29.7500  18.5000 Du        
  10027 ****        12.7500  29.7500  18.7500 Du        
  10028 ****        12.7500  29.7500  19.0000 Du        
  10029 ****        12.7500  29.7500  19.2500 Du        
  10030 ****        12.7500  29.7500  19.5000 Du        
  10031 ****        12.7500  30.0000  17.7500 Du        
  10032 ****        12.7500  30.0000  18.0000 Du        
  10033 ****        12.7500  30.0000  18.2500 Du        
  10034 ****        12.7500  30.0000  18.5000 Du        
  10035 ****        12.7500  30.0000  18.7500 Du        
  10036 ****        12.7500  30.0000  19.0000 Du        
  10037 ****        12.7500  30.0000  19.2500 Du        
  10038 ****        12.7500  30.2500  17.7500 Du        
  10039 ****        12.7500  30.2500  18.0000 Du        
  10040 ****        12.7500  30.2500  18.2500 Du        
  10041 ****        12.7500  30.2500  18.5000 Du        
  10042 ****        12.7500  30.2500  18.7500 Du        
  10043 ****        12.7500  30.2500  19.0000 Du        
  10044 ****        12.7500  30.5000  18.0000 Du        
  10045 ****        12.7500  30.5000  18.2500 Du        
  10046 ****        12.7500  30.5000  18.5000 Du        
  10047 ****        12.7500  34.0000   4.2500 Du        
  10048 ****        12.7500  34.0000   4.5000 Du        
  10049 ****        12.7500  34.0000   4.7500 Du        
  10050 ****        12.7500  34.0000   5.0000 Du        
  10051 ****        12.7500  34.2500   4.0000 Du        
  10052 ****        12.7500  34.2500   4.2500 Du        
  10053 ****        12.7500  34.2500   4.5000 Du        
  10054 ****        12.7500  34.2500   4.7500 Du        
  10055 ****        12.7500  34.2500   5.0000 Du        
  10056 ****        12.7500  34.2500   5.2500 Du        
  10057 ****        12.7500  34.5000   4.0000 Du        
  10058 ****        12.7500  34.5000   4.2500 Du        
  10059 ****        12.7500  34.5000   4.5000 Du        
  10060 ****        12.7500  34.5000   4.7500 Du        
  10061 ****        12.7500  34.5000   5.0000 Du        
  10062 ****        12.7500  34.5000   5.2500 Du        
  10063 ****        12.7500  34.7500   3.7500 Du        
  10064 ****        12.7500  34.7500   4.0000 Du        
  10065 ****        12.7500  34.7500   4.2500 Du        
  10066 ****        12.7500  34.7500   4.5000 Du        
  10067 ****        12.7500  34.7500   4.7500 Du        
  10068 ****        12.7500  34.7500   5.0000 Du        
  10069 ****        12.7500  34.7500   5.2500 Du        
  10070 ****        12.7500  34.7500   5.5000 Du        
  10071 ****        12.7500  35.0000   3.7500 Du        
  10072 ****        12.7500  35.0000   4.0000 Du        
  10073 ****        12.7500  35.0000   4.2500 Du        
  10074 ****        12.7500  35.0000   4.5000 Du        
  10075 ****        12.7500  35.0000   4.7500 Du        
  10076 ****        12.7500  35.0000   5.0000 Du        
  10077 ****        12.7500  35.0000   5.2500 Du        
  10078 ****        12.7500  35.0000   5.5000 Du        
  10079 ****        12.7500  35.2500   3.5000 Du        
  10080 ****        12.7500  35.2500   3.7500 Du        
  10081 ****        12.7500  35.2500   4.0000 Du        
  10082 ****        12.7500  35.2500   4.2500 Du        
  10083 ****        12.7500  35.2500   4.5000 Du        
  10084 ****        12.7500  35.2500   4.7500 Du        
  10085 ****        12.7500  35.2500   5.0000 Du        
  10086 ****        12.7500  35.2500   5.2500 Du        
  10087 ****        12.7500  35.2500   5.5000 Du        
  10088 ****        12.7500  35.5000   3.7500 Du        
  10089 ****        12.7500  35.5000   4.0000 Du        
  10090 ****        12.7500  35.5000   4.2500 Du        
  10091 ****        12.7500  35.5000   4.5000 Du        
  10092 ****        12.7500  35.5000   4.7500 Du        
  10093 ****        12.7500  35.5000   5.0000 Du        
  10094 ****        12.7500  35.5000   5.2500 Du        
  10095 ****        12.7500  35.5000   5.5000 Du        
  10096 ****        12.7500  35.7500   4.0000 Du        
  10097 ****        12.7500  35.7500   4.2500 Du        
  10098 ****        12.7500  35.7500   4.5000 Du        
  10099 ****        12.7500  35.7500   4.7500 Du        
  10100 ****        12.7500  35.7500   5.0000 Du        
  10101 ****        12.7500  35.7500   5.2500 Du        
  10102 ****        12.7500  35.7500   5.5000 Du        
  10103 ****        12.7500  36.0000   4.5000 Du        
  10104 ****        12.7500  36.0000   4.7500 Du        
  10105 ****        12.7500  36.0000   5.0000 Du        
  10106 ****        12.7500  36.0000   5.2500 Du        
  10107 ****        12.7500  36.0000   5.5000 Du        
  10108 ****        12.7500  36.2500   4.7500 Du        
  10109 ****        12.7500  36.2500   5.0000 Du        
  10110 ****        12.7500  36.2500   5.2500 Du        
  10111 ****        12.7500  36.2500   5.5000 Du        
  10112 ****        13.0000  12.0000  11.5000 Du        
  10113 ****        13.0000  12.0000  11.7500 Du        
  10114 ****        13.0000  12.0000  12.0000 Du        
  10115 ****        13.0000  12.2500  11.7500 Du        
  10116 ****        13.0000  12.2500  12.0000 Du        
  10117 ****        13.0000  12.5000  12.0000 Du        
  10118 ****        13.0000  15.0000   5.7500 Du        
  10119 ****        13.0000  15.2500   5.5000 Du        
  10120 ****        13.0000  15.2500   5.7500 Du        
  10121 ****        13.0000  15.5000   5.2500 Du        
  10122 ****        13.0000  15.5000   5.5000 Du        
  10123 ****        13.0000  15.5000   5.7500 Du        
  10124 ****        13.0000  15.7500   5.2500 Du        
  10125 ****        13.0000  15.7500   5.5000 Du        
  10126 ****        13.0000  15.7500   5.7500 Du        
  10127 ****        13.0000  15.7500   6.0000 Du        
  10128 ****        13.0000  16.0000   5.0000 Du        
  10129 ****        13.0000  16.0000   5.2500 Du        
  10130 ****        13.0000  16.0000   5.5000 Du        
  10131 ****        13.0000  16.0000   5.7500 Du        
  10132 ****        13.0000  16.0000   6.0000 Du        
  10133 ****        13.0000  16.2500   5.0000 Du        
  10134 ****        13.0000  16.2500   5.2500 Du        
  10135 ****        13.0000  16.2500   5.5000 Du        
  10136 ****        13.0000  16.2500   5.7500 Du        
  10137 ****        13.0000  16.5000   5.2500 Du        
  10138 ****        13.0000  16.5000   5.5000 Du        
  10139 ****        13.0000  16.5000   5.7500 Du        
  10140 ****        13.0000  22.0000  14.5000 Du        
  10141 ****        13.0000  22.0000  14.7500 Du        
  10142 ****        13.0000  22.2500  14.2500 Du        
  10143 ****        13.0000  22.2500  14.5000 Du        
  10144 ****        13.0000  22.2500  14.7500 Du        
  10145 ****        13.0000  22.2500  15.0000 Du        
  10146 ****        13.0000  22.2500  15.2500 Du        
  10147 ****        13.0000  22.2500  15.5000 Du        
  10148 ****        13.0000  22.5000  14.2500 Du        
  10149 ****        13.0000  22.5000  14.5000 Du        
  10150 ****        13.0000  22.5000  14.7500 Du        
  10151 ****        13.0000  22.5000  15.0000 Du        
  10152 ****        13.0000  22.5000  15.2500 Du        
  10153 ****        13.0000  22.5000  15.5000 Du        
  10154 ****        13.0000  22.5000  15.7500 Du        
  10155 ****        13.0000  22.7500  14.2500 Du        
  10156 ****        13.0000  22.7500  14.5000 Du        
  10157 ****        13.0000  22.7500  14.7500 Du        
  10158 ****        13.0000  22.7500  15.0000 Du        
  10159 ****        13.0000  22.7500  15.2500 Du        
  10160 ****        13.0000  22.7500  15.5000 Du        
  10161 ****        13.0000  22.7500  15.7500 Du        
  10162 ****        13.0000  22.7500  16.0000 Du        
  10163 ****        13.0000  22.7500  16.2500 Du        
  10164 ****        13.0000  23.0000  14.2500 Du        
  10165 ****        13.0000  23.0000  14.5000 Du        
  10166 ****        13.0000  23.0000  14.7500 Du        
  10167 ****        13.0000  23.0000  15.0000 Du        
  10168 ****        13.0000  23.0000  15.2500 Du        
  10169 ****        13.0000  23.0000  15.5000 Du        
  10170 ****        13.0000  23.0000  15.7500 Du        
  10171 ****        13.0000  23.0000  16.0000 Du        
  10172 ****        13.0000  23.0000  16.2500 Du        
  10173 ****        13.0000  23.0000  16.5000 Du        
  10174 ****        13.0000  23.2500  14.2500 Du        
  10175 ****        13.0000  23.2500  14.5000 Du        
  10176 ****        13.0000  23.2500  14.7500 Du        
  10177 ****        13.0000  23.2500  15.0000 Du        
  10178 ****        13.0000  23.2500  15.2500 Du        
  10179 ****        13.0000  23.2500  15.5000 Du        
  10180 ****        13.0000  23.2500  15.7500 Du        
  10181 ****        13.0000  23.2500  16.0000 Du        
  10182 ****        13.0000  23.2500  16.2500 Du        
  10183 ****        13.0000  23.2500  16.5000 Du        
  10184 ****        13.0000  23.5000  14.2500 Du        
  10185 ****        13.0000  23.5000  14.5000 Du        
  10186 ****        13.0000  23.5000  14.7500 Du        
  10187 ****        13.0000  23.5000  15.0000 Du        
  10188 ****        13.0000  23.5000  15.2500 Du        
  10189 ****        13.0000  23.5000  15.5000 Du        
  10190 ****        13.0000  23.5000  15.7500 Du        
  10191 ****        13.0000  23.5000  16.0000 Du        
  10192 ****        13.0000  23.5000  16.2500 Du        
  10193 ****        13.0000  23.7500  14.2500 Du        
  10194 ****        13.0000  23.7500  14.5000 Du        
  10195 ****        13.0000  23.7500  14.7500 Du        
  10196 ****        13.0000  23.7500  15.0000 Du        
  10197 ****        13.0000  23.7500  15.2500 Du        
  10198 ****        13.0000  23.7500  15.5000 Du        
  10199 ****        13.0000  23.7500  15.7500 Du        
  10200 ****        13.0000  23.7500  16.0000 Du        
  10201 ****        13.0000  23.7500  16.2500 Du        
  10202 ****        13.0000  24.0000  14.2500 Du        
  10203 ****        13.0000  24.0000  14.5000 Du        
  10204 ****        13.0000  24.0000  14.7500 Du        
  10205 ****        13.0000  24.0000  15.0000 Du        
  10206 ****        13.0000  24.0000  15.2500 Du        
  10207 ****        13.0000  24.0000  15.5000 Du        
  10208 ****        13.0000  24.0000  15.7500 Du        
  10209 ****        13.0000  24.0000  16.0000 Du        
  10210 ****        13.0000  24.2500  14.2500 Du        
  10211 ****        13.0000  24.2500  14.5000 Du        
  10212 ****        13.0000  24.2500  14.7500 Du        
  10213 ****        13.0000  24.2500  15.0000 Du        
  10214 ****        13.0000  24.2500  15.2500 Du        
  10215 ****        13.0000  24.2500  15.5000 Du        
  10216 ****        13.0000  24.2500  15.7500 Du        
  10217 ****        13.0000  24.2500  16.0000 Du        
  10218 ****        13.0000  24.5000  14.2500 Du        
  10219 ****        13.0000  24.5000  14.5000 Du        
  10220 ****        13.0000  24.5000  14.7500 Du        
  10221 ****        13.0000  24.5000  15.0000 Du        
  10222 ****        13.0000  24.5000  15.2500 Du        
  10223 ****        13.0000  24.7500  14.2500 Du        
  10224 ****        13.0000  24.7500  14.5000 Du        
  10225 ****        13.0000  24.7500  14.7500 Du        
  10226 ****        13.0000  24.7500  15.0000 Du        
  10227 ****        13.0000  24.7500  15.2500 Du        
  10228 ****        13.0000  25.0000  14.0000 Du        
  10229 ****        13.0000  25.0000  14.2500 Du        
  10230 ****        13.0000  25.0000  14.5000 Du        
  10231 ****        13.0000  25.0000  14.7500 Du        
  10232 ****        13.0000  25.0000  15.0000 Du        
  10233 ****        13.0000  25.2500  14.0000 Du        
  10234 ****        13.0000  25.2500  14.2500 Du        
  10235 ****        13.0000  25.2500  14.5000 Du        
  10236 ****        13.0000  25.2500  14.7500 Du        
  10237 ****        13.0000  25.5000  14.2500 Du        
  10238 ****        13.0000  25.7500  13.7500 Du        
  10239 ****        13.0000  25.7500  14.0000 Du        
  10240 ****        13.0000  25.7500  14.2500 Du        
  10241 ****        13.0000  26.0000  13.2500 Du        
  10242 ****        13.0000  26.0000  13.5000 Du        
  10243 ****        13.0000  26.0000  13.7500 Du        
  10244 ****        13.0000  26.0000  14.0000 Du        
  10245 ****        13.0000  26.0000  14.2500 Du        
  10246 ****        13.0000  26.2500  13.2500 Du        
  10247 ****        13.0000  26.2500  13.5000 Du        
  10248 ****        13.0000  26.2500  13.7500 Du        
  10249 ****        13.0000  26.2500  14.0000 Du        
  10250 ****        13.0000  26.2500  14.2500 Du        
  10251 ****        13.0000  26.5000  13.2500 Du        
  10252 ****        13.0000  26.5000  13.5000 Du        
  10253 ****        13.0000  26.5000  13.7500 Du        
  10254 ****        13.0000  26.5000  14.0000 Du        
  10255 ****        13.0000  26.5000  14.2500 Du        
  10256 ****        13.0000  26.7500  13.7500 Du        
  10257 ****        13.0000  26.7500  14.0000 Du        
  10258 ****        13.0000  26.7500  14.2500 Du        
  10259 ****        13.0000  27.0000  14.2500 Du        
  10260 ****        13.0000  28.7500  18.0000 Du        
  10261 ****        13.0000  28.7500  18.2500 Du        
  10262 ****        13.0000  29.0000  17.7500 Du        
  10263 ****        13.0000  29.0000  18.0000 Du        
  10264 ****        13.0000  29.0000  18.2500 Du        
  10265 ****        13.0000  29.0000  18.5000 Du        
  10266 ****        13.0000  29.0000  18.7500 Du        
  10267 ****        13.0000  29.0000  19.0000 Du        
  10268 ****        13.0000  29.0000  19.2500 Du        
  10269 ****        13.0000  29.0000  19.7500 Du        
  10270 ****        13.0000  29.2500  17.5000 Du        
  10271 ****        13.0000  29.2500  17.7500 Du        
  10272 ****        13.0000  29.2500  18.0000 Du        
  10273 ****        13.0000  29.2500  18.2500 Du        
  10274 ****        13.0000  29.2500  18.5000 Du        
  10275 ****        13.0000  29.2500  18.7500 Du        
  10276 ****        13.0000  29.2500  19.0000 Du        
  10277 ****        13.0000  29.2500  19.2500 Du        
  10278 ****        13.0000  29.2500  19.5000 Du        
  10279 ****        13.0000  29.2500  19.7500 Du        
  10280 ****        13.0000  29.2500  20.0000 Du        
  10281 ****        13.0000  29.5000  17.5000 Du        
  10282 ****        13.0000  29.5000  17.7500 Du        
  10283 ****        13.0000  29.5000  18.0000 Du        
  10284 ****        13.0000  29.5000  18.2500 Du        
  10285 ****        13.0000  29.5000  18.5000 Du        
  10286 ****        13.0000  29.5000  18.7500 Du        
  10287 ****        13.0000  29.5000  19.0000 Du        
  10288 ****        13.0000  29.5000  19.2500 Du        
  10289 ****        13.0000  29.5000  19.5000 Du        
  10290 ****        13.0000  29.5000  19.7500 Du        
  10291 ****        13.0000  29.7500  17.5000 Du        
  10292 ****        13.0000  29.7500  17.7500 Du        
  10293 ****        13.0000  29.7500  18.0000 Du        
  10294 ****        13.0000  29.7500  18.2500 Du        
  10295 ****        13.0000  29.7500  18.5000 Du        
  10296 ****        13.0000  29.7500  18.7500 Du        
  10297 ****        13.0000  29.7500  19.0000 Du        
  10298 ****        13.0000  29.7500  19.2500 Du        
  10299 ****        13.0000  29.7500  19.5000 Du        
  10300 ****        13.0000  30.0000  17.7500 Du        
  10301 ****        13.0000  30.0000  18.0000 Du        
  10302 ****        13.0000  30.0000  18.2500 Du        
  10303 ****        13.0000  30.0000  18.5000 Du        
  10304 ****        13.0000  30.0000  18.7500 Du        
  10305 ****        13.0000  30.0000  19.0000 Du        
  10306 ****        13.0000  30.0000  19.2500 Du        
  10307 ****        13.0000  30.2500  17.7500 Du        
  10308 ****        13.0000  30.2500  18.0000 Du        
  10309 ****        13.0000  30.2500  18.2500 Du        
  10310 ****        13.0000  30.2500  18.5000 Du        
  10311 ****        13.0000  30.2500  18.7500 Du        
  10312 ****        13.0000  30.2500  19.0000 Du        
  10313 ****        13.0000  30.5000  18.0000 Du        
  10314 ****        13.0000  30.5000  18.2500 Du        
  10315 ****        13.0000  30.5000  18.5000 Du        
  10316 ****        13.0000  30.5000  18.7500 Du        
  10317 ****        13.0000  34.2500   4.0000 Du        
  10318 ****        13.0000  34.2500   4.2500 Du        
  10319 ****        13.0000  34.2500   4.5000 Du        
  10320 ****        13.0000  34.2500   4.7500 Du        
  10321 ****        13.0000  34.2500   5.0000 Du        
  10322 ****        13.0000  34.2500   5.2500 Du        
  10323 ****        13.0000  34.5000   4.0000 Du        
  10324 ****        13.0000  34.5000   4.2500 Du        
  10325 ****        13.0000  34.5000   4.5000 Du        
  10326 ****        13.0000  34.5000   4.7500 Du        
  10327 ****        13.0000  34.5000   5.0000 Du        
  10328 ****        13.0000  34.5000   5.2500 Du        
  10329 ****        13.0000  34.7500   3.7500 Du        
  10330 ****        13.0000  34.7500   4.0000 Du        
  10331 ****        13.0000  34.7500   4.2500 Du        
  10332 ****        13.0000  34.7500   4.5000 Du        
  10333 ****        13.0000  34.7500   4.7500 Du        
  10334 ****        13.0000  34.7500   5.0000 Du        
  10335 ****        13.0000  34.7500   5.2500 Du        
  10336 ****        13.0000  34.7500   5.5000 Du        
  10337 ****        13.0000  35.0000   3.7500 Du        
  10338 ****        13.0000  35.0000   4.0000 Du        
  10339 ****        13.0000  35.0000   4.2500 Du        
  10340 ****        13.0000  35.0000   4.5000 Du        
  10341 ****        13.0000  35.0000   4.7500 Du        
  10342 ****        13.0000  35.0000   5.0000 Du        
  10343 ****        13.0000  35.0000   5.2500 Du        
  10344 ****        13.0000  35.0000   5.5000 Du        
  10345 ****        13.0000  35.2500   3.7500 Du        
  10346 ****        13.0000  35.2500   4.0000 Du        
  10347 ****        13.0000  35.2500   4.2500 Du        
  10348 ****        13.0000  35.2500   4.5000 Du        
  10349 ****        13.0000  35.2500   4.7500 Du        
  10350 ****        13.0000  35.2500   5.0000 Du        
  10351 ****        13.0000  35.2500   5.2500 Du        
  10352 ****        13.0000  35.2500   5.5000 Du        
  10353 ****        13.0000  35.5000   4.0000 Du        
  10354 ****        13.0000  35.5000   4.2500 Du        
  10355 ****        13.0000  35.5000   4.5000 Du        
  10356 ****        13.0000  35.5000   4.7500 Du        
  10357 ****        13.0000  35.5000   5.0000 Du        
  10358 ****        13.0000  35.5000   5.2500 Du        
  10359 ****        13.0000  35.5000   5.5000 Du        
  10360 ****        13.0000  35.7500   4.0000 Du        
  10361 ****        13.0000  35.7500   4.2500 Du        
  10362 ****        13.0000  35.7500   4.5000 Du        
  10363 ****        13.0000  35.7500   4.7500 Du        
  10364 ****        13.0000  35.7500   5.0000 Du        
  10365 ****        13.0000  35.7500   5.2500 Du        
  10366 ****        13.0000  35.7500   5.5000 Du        
  10367 ****        13.0000  36.0000   4.5000 Du        
  10368 ****        13.0000  36.0000   4.7500 Du        
  10369 ****        13.0000  36.0000   5.0000 Du        
  10370 ****        13.0000  36.0000   5.2500 Du        
  10371 ****        13.0000  36.0000   5.5000 Du        
  10372 ****        13.0000  36.2500   5.0000 Du        
  10373 ****        13.0000  36.2500   5.2500 Du        
  10374 ****        13.0000  36.2500   5.5000 Du        
  10375 ****        13.2500  12.0000  12.0000 Du        
  10376 ****        13.2500  12.0000  12.2500 Du        
  10377 ****        13.2500  12.0000  12.5000 Du        
  10378 ****        13.2500  12.2500  12.0000 Du        
  10379 ****        13.2500  15.0000   5.5000 Du        
  10380 ****        13.2500  15.0000   5.7500 Du        
  10381 ****        13.2500  15.2500   5.5000 Du        
  10382 ****        13.2500  15.2500   5.7500 Du        
  10383 ****        13.2500  15.5000   5.2500 Du        
  10384 ****        13.2500  15.5000   5.5000 Du        
  10385 ****        13.2500  15.5000   5.7500 Du        
  10386 ****        13.2500  15.5000   6.0000 Du        
  10387 ****        13.2500  15.7500   5.2500 Du        
  10388 ****        13.2500  15.7500   5.5000 Du        
  10389 ****        13.2500  15.7500   5.7500 Du        
  10390 ****        13.2500  15.7500   6.0000 Du        
  10391 ****        13.2500  16.0000   4.7500 Du        
  10392 ****        13.2500  16.0000   5.0000 Du        
  10393 ****        13.2500  16.0000   5.2500 Du        
  10394 ****        13.2500  16.0000   5.5000 Du        
  10395 ****        13.2500  16.0000   5.7500 Du        
  10396 ****        13.2500  16.2500   5.0000 Du        
  10397 ****        13.2500  16.2500   5.2500 Du        
  10398 ****        13.2500  16.2500   5.5000 Du        
  10399 ****        13.2500  16.2500   5.7500 Du        
  10400 ****        13.2500  16.5000   4.7500 Du        
  10401 ****        13.2500  16.5000   5.0000 Du        
  10402 ****        13.2500  16.5000   5.2500 Du        
  10403 ****        13.2500  16.5000   5.5000 Du        
  10404 ****        13.2500  16.5000   5.7500 Du        
  10405 ****        13.2500  22.0000  14.7500 Du        
  10406 ****        13.2500  22.0000  15.0000 Du        
  10407 ****        13.2500  22.2500  14.2500 Du        
  10408 ****        13.2500  22.2500  14.5000 Du        
  10409 ****        13.2500  22.2500  14.7500 Du        
  10410 ****        13.2500  22.2500  15.0000 Du        
  10411 ****        13.2500  22.2500  15.2500 Du        
  10412 ****        13.2500  22.2500  15.5000 Du        
  10413 ****        13.2500  22.5000  14.0000 Du        
  10414 ****        13.2500  22.5000  14.2500 Du        
  10415 ****        13.2500  22.5000  14.5000 Du        
  10416 ****        13.2500  22.5000  14.7500 Du        
  10417 ****        13.2500  22.5000  15.0000 Du        
  10418 ****        13.2500  22.5000  15.2500 Du        
  10419 ****        13.2500  22.5000  15.5000 Du        
  10420 ****        13.2500  22.5000  15.7500 Du        
  10421 ****        13.2500  22.5000  16.0000 Du        
  10422 ****        13.2500  22.7500  14.0000 Du        
  10423 ****        13.2500  22.7500  14.2500 Du        
  10424 ****        13.2500  22.7500  14.5000 Du        
  10425 ****        13.2500  22.7500  14.7500 Du        
  10426 ****        13.2500  22.7500  15.0000 Du        
  10427 ****        13.2500  22.7500  15.2500 Du        
  10428 ****        13.2500  22.7500  15.5000 Du        
  10429 ****        13.2500  22.7500  15.7500 Du        
  10430 ****        13.2500  22.7500  16.0000 Du        
  10431 ****        13.2500  22.7500  16.2500 Du        
  10432 ****        13.2500  23.0000  14.0000 Du        
  10433 ****        13.2500  23.0000  14.2500 Du        
  10434 ****        13.2500  23.0000  14.5000 Du        
  10435 ****        13.2500  23.0000  14.7500 Du        
  10436 ****        13.2500  23.0000  15.0000 Du        
  10437 ****        13.2500  23.0000  15.2500 Du        
  10438 ****        13.2500  23.0000  15.5000 Du        
  10439 ****        13.2500  23.0000  15.7500 Du        
  10440 ****        13.2500  23.0000  16.0000 Du        
  10441 ****        13.2500  23.0000  16.2500 Du        
  10442 ****        13.2500  23.0000  16.5000 Du        
  10443 ****        13.2500  23.2500  14.0000 Du        
  10444 ****        13.2500  23.2500  14.2500 Du        
  10445 ****        13.2500  23.2500  14.5000 Du        
  10446 ****        13.2500  23.2500  14.7500 Du        
  10447 ****        13.2500  23.2500  15.0000 Du        
  10448 ****        13.2500  23.2500  15.2500 Du        
  10449 ****        13.2500  23.2500  15.5000 Du        
  10450 ****        13.2500  23.2500  15.7500 Du        
  10451 ****        13.2500  23.2500  16.0000 Du        
  10452 ****        13.2500  23.2500  16.2500 Du        
  10453 ****        13.2500  23.2500  16.5000 Du        
  10454 ****        13.2500  23.5000  14.0000 Du        
  10455 ****        13.2500  23.5000  14.2500 Du        
  10456 ****        13.2500  23.5000  14.5000 Du        
  10457 ****        13.2500  23.5000  14.7500 Du        
  10458 ****        13.2500  23.5000  15.0000 Du        
  10459 ****        13.2500  23.5000  15.2500 Du        
  10460 ****        13.2500  23.5000  15.5000 Du        
  10461 ****        13.2500  23.5000  15.7500 Du        
  10462 ****        13.2500  23.5000  16.0000 Du        
  10463 ****        13.2500  23.5000  16.2500 Du        
  10464 ****        13.2500  23.7500  14.0000 Du        
  10465 ****        13.2500  23.7500  14.2500 Du        
  10466 ****        13.2500  23.7500  14.5000 Du        
  10467 ****        13.2500  23.7500  14.7500 Du        
  10468 ****        13.2500  23.7500  15.0000 Du        
  10469 ****        13.2500  23.7500  15.2500 Du        
  10470 ****        13.2500  23.7500  15.5000 Du        
  10471 ****        13.2500  23.7500  15.7500 Du        
  10472 ****        13.2500  23.7500  16.0000 Du        
  10473 ****        13.2500  23.7500  16.2500 Du        
  10474 ****        13.2500  24.0000  14.0000 Du        
  10475 ****        13.2500  24.0000  14.2500 Du        
  10476 ****        13.2500  24.0000  14.5000 Du        
  10477 ****        13.2500  24.0000  14.7500 Du        
  10478 ****        13.2500  24.0000  15.0000 Du        
  10479 ****        13.2500  24.0000  15.2500 Du        
  10480 ****        13.2500  24.0000  15.5000 Du        
  10481 ****        13.2500  24.0000  15.7500 Du        
  10482 ****        13.2500  24.0000  16.0000 Du        
  10483 ****        13.2500  24.2500  14.0000 Du        
  10484 ****        13.2500  24.2500  14.2500 Du        
  10485 ****        13.2500  24.2500  14.5000 Du        
  10486 ****        13.2500  24.2500  14.7500 Du        
  10487 ****        13.2500  24.2500  15.0000 Du        
  10488 ****        13.2500  24.2500  15.2500 Du        
  10489 ****        13.2500  24.2500  15.5000 Du        
  10490 ****        13.2500  24.2500  15.7500 Du        
  10491 ****        13.2500  24.5000  14.2500 Du        
  10492 ****        13.2500  24.5000  14.5000 Du        
  10493 ****        13.2500  24.5000  14.7500 Du        
  10494 ****        13.2500  24.5000  15.0000 Du        
  10495 ****        13.2500  24.5000  15.2500 Du        
  10496 ****        13.2500  24.7500  14.0000 Du        
  10497 ****        13.2500  24.7500  14.2500 Du        
  10498 ****        13.2500  24.7500  14.5000 Du        
  10499 ****        13.2500  24.7500  14.7500 Du        
  10500 ****        13.2500  24.7500  15.0000 Du        
  10501 ****        13.2500  24.7500  15.2500 Du        
  10502 ****        13.2500  25.0000  14.0000 Du        
  10503 ****        13.2500  25.0000  14.2500 Du        
  10504 ****        13.2500  25.0000  14.5000 Du        
  10505 ****        13.2500  25.0000  14.7500 Du        
  10506 ****        13.2500  25.0000  15.0000 Du        
  10507 ****        13.2500  25.2500  14.0000 Du        
  10508 ****        13.2500  25.2500  14.2500 Du        
  10509 ****        13.2500  25.2500  14.5000 Du        
  10510 ****        13.2500  25.5000  14.2500 Du        
  10511 ****        13.2500  25.7500  13.7500 Du        
  10512 ****        13.2500  25.7500  14.0000 Du        
  10513 ****        13.2500  25.7500  14.2500 Du        
  10514 ****        13.2500  26.0000  13.5000 Du        
  10515 ****        13.2500  26.0000  13.7500 Du        
  10516 ****        13.2500  26.0000  14.0000 Du        
  10517 ****        13.2500  26.0000  14.2500 Du        
  10518 ****        13.2500  26.2500  13.2500 Du        
  10519 ****        13.2500  26.2500  13.5000 Du        
  10520 ****        13.2500  26.2500  13.7500 Du        
  10521 ****        13.2500  26.2500  14.0000 Du        
  10522 ****        13.2500  26.2500  14.2500 Du        
  10523 ****        13.2500  26.5000  13.2500 Du        
  10524 ****        13.2500  26.5000  13.5000 Du        
  10525 ****        13.2500  26.5000  13.7500 Du        
  10526 ****        13.2500  26.5000  14.0000 Du        
  10527 ****        13.2500  26.5000  14.2500 Du        
  10528 ****        13.2500  26.7500  13.2500 Du        
  10529 ****        13.2500  26.7500  13.5000 Du        
  10530 ****        13.2500  26.7500  13.7500 Du        
  10531 ****        13.2500  26.7500  14.0000 Du        
  10532 ****        13.2500  26.7500  14.2500 Du        
  10533 ****        13.2500  27.0000  14.0000 Du        
  10534 ****        13.2500  27.0000  14.2500 Du        
  10535 ****        13.2500  29.0000  17.7500 Du        
  10536 ****        13.2500  29.0000  18.0000 Du        
  10537 ****        13.2500  29.0000  18.2500 Du        
  10538 ****        13.2500  29.0000  18.5000 Du        
  10539 ****        13.2500  29.0000  18.7500 Du        
  10540 ****        13.2500  29.0000  19.0000 Du        
  10541 ****        13.2500  29.2500  17.5000 Du        
  10542 ****        13.2500  29.2500  17.7500 Du        
  10543 ****        13.2500  29.2500  18.0000 Du        
  10544 ****        13.2500  29.2500  18.2500 Du        
  10545 ****        13.2500  29.2500  18.5000 Du        
  10546 ****        13.2500  29.2500  18.7500 Du        
  10547 ****        13.2500  29.2500  19.0000 Du        
  10548 ****        13.2500  29.2500  19.2500 Du        
  10549 ****        13.2500  29.5000  17.5000 Du        
  10550 ****        13.2500  29.5000  17.7500 Du        
  10551 ****        13.2500  29.5000  18.0000 Du        
  10552 ****        13.2500  29.5000  18.2500 Du        
  10553 ****        13.2500  29.5000  18.5000 Du        
  10554 ****        13.2500  29.5000  18.7500 Du        
  10555 ****        13.2500  29.5000  19.0000 Du        
  10556 ****        13.2500  29.5000  19.2500 Du        
  10557 ****        13.2500  29.5000  19.5000 Du        
  10558 ****        13.2500  29.7500  17.5000 Du        
  10559 ****        13.2500  29.7500  17.7500 Du        
  10560 ****        13.2500  29.7500  18.0000 Du        
  10561 ****        13.2500  29.7500  18.2500 Du        
  10562 ****        13.2500  29.7500  18.5000 Du        
  10563 ****        13.2500  29.7500  18.7500 Du        
  10564 ****        13.2500  29.7500  19.0000 Du        
  10565 ****        13.2500  29.7500  19.2500 Du        
  10566 ****        13.2500  29.7500  19.5000 Du        
  10567 ****        13.2500  30.0000  17.7500 Du        
  10568 ****        13.2500  30.0000  18.0000 Du        
  10569 ****        13.2500  30.0000  18.2500 Du        
  10570 ****        13.2500  30.0000  18.5000 Du        
  10571 ****        13.2500  30.0000  18.7500 Du        
  10572 ****        13.2500  30.0000  19.0000 Du        
  10573 ****        13.2500  30.0000  19.2500 Du        
  10574 ****        13.2500  30.2500  17.7500 Du        
  10575 ****        13.2500  30.2500  18.0000 Du        
  10576 ****        13.2500  30.2500  18.2500 Du        
  10577 ****        13.2500  30.2500  18.5000 Du        
  10578 ****        13.2500  30.2500  18.7500 Du        
  10579 ****        13.2500  30.2500  19.0000 Du        
  10580 ****        13.2500  30.5000  18.2500 Du        
  10581 ****        13.2500  30.5000  18.5000 Du        
  10582 ****        13.2500  34.5000   4.5000 Du        
  10583 ****        13.2500  34.5000   4.7500 Du        
  10584 ****        13.2500  34.5000   5.0000 Du        
  10585 ****        13.2500  34.7500   4.0000 Du        
  10586 ****        13.2500  34.7500   4.2500 Du        
  10587 ****        13.2500  34.7500   4.5000 Du        
  10588 ****        13.2500  34.7500   4.7500 Du        
  10589 ****        13.2500  34.7500   5.0000 Du        
  10590 ****        13.2500  34.7500   5.2500 Du        
  10591 ****        13.2500  35.0000   3.7500 Du        
  10592 ****        13.2500  35.0000   4.0000 Du        
  10593 ****        13.2500  35.0000   4.2500 Du        
  10594 ****        13.2500  35.0000   4.5000 Du        
  10595 ****        13.2500  35.0000   4.7500 Du        
  10596 ****        13.2500  35.0000   5.0000 Du        
  10597 ****        13.2500  35.0000   5.2500 Du        
  10598 ****        13.2500  35.0000   5.5000 Du        
  10599 ****        13.2500  35.2500   3.7500 Du        
  10600 ****        13.2500  35.2500   4.0000 Du        
  10601 ****        13.2500  35.2500   4.2500 Du        
  10602 ****        13.2500  35.2500   4.5000 Du        
  10603 ****        13.2500  35.2500   4.7500 Du        
  10604 ****        13.2500  35.2500   5.0000 Du        
  10605 ****        13.2500  35.2500   5.2500 Du        
  10606 ****        13.2500  35.2500   5.5000 Du        
  10607 ****        13.2500  35.5000   4.0000 Du        
  10608 ****        13.2500  35.5000   4.2500 Du        
  10609 ****        13.2500  35.5000   4.5000 Du        
  10610 ****        13.2500  35.5000   4.7500 Du        
  10611 ****        13.2500  35.5000   5.0000 Du        
  10612 ****        13.2500  35.5000   5.2500 Du        
  10613 ****        13.2500  35.7500   4.0000 Du        
  10614 ****        13.2500  35.7500   4.2500 Du        
  10615 ****        13.2500  35.7500   4.5000 Du        
  10616 ****        13.2500  35.7500   4.7500 Du        
  10617 ****        13.2500  35.7500   5.0000 Du        
  10618 ****        13.2500  35.7500   5.2500 Du        
  10619 ****        13.2500  35.7500   5.5000 Du        
  10620 ****        13.2500  36.0000   4.7500 Du        
  10621 ****        13.2500  36.0000   5.0000 Du        
  10622 ****        13.2500  36.0000   5.2500 Du        
  10623 ****        13.2500  36.0000   5.5000 Du        
  10624 ****        13.2500  36.2500   4.7500 Du        
  10625 ****        13.2500  36.2500   5.0000 Du        
  10626 ****        13.2500  36.2500   5.2500 Du        
  10627 ****        13.5000  12.0000  12.5000 Du        
  10628 ****        13.5000  12.0000  12.7500 Du        
  10629 ****        13.5000  15.0000   5.5000 Du        
  10630 ****        13.5000  15.0000   5.7500 Du        
  10631 ****        13.5000  15.2500   5.5000 Du        
  10632 ****        13.5000  15.2500   5.7500 Du        
  10633 ****        13.5000  15.5000   5.2500 Du        
  10634 ****        13.5000  15.5000   5.5000 Du        
  10635 ****        13.5000  15.5000   5.7500 Du        
  10636 ****        13.5000  15.7500   5.0000 Du        
  10637 ****        13.5000  15.7500   5.2500 Du        
  10638 ****        13.5000  15.7500   5.5000 Du        
  10639 ****        13.5000  15.7500   5.7500 Du        
  10640 ****        13.5000  16.0000   4.7500 Du        
  10641 ****        13.5000  16.0000   5.0000 Du        
  10642 ****        13.5000  16.0000   5.2500 Du        
  10643 ****        13.5000  16.0000   5.5000 Du        
  10644 ****        13.5000  16.0000   5.7500 Du        
  10645 ****        13.5000  16.2500   4.5000 Du        
  10646 ****        13.5000  16.2500   4.7500 Du        
  10647 ****        13.5000  16.2500   5.0000 Du        
  10648 ****        13.5000  16.2500   5.2500 Du        
  10649 ****        13.5000  16.2500   5.5000 Du        
  10650 ****        13.5000  16.2500   5.7500 Du        
  10651 ****        13.5000  16.5000   4.5000 Du        
  10652 ****        13.5000  16.5000   4.7500 Du        
  10653 ****        13.5000  16.5000   5.0000 Du        
  10654 ****        13.5000  16.5000   5.2500 Du        
  10655 ****        13.5000  16.5000   5.5000 Du        
  10656 ****        13.5000  22.0000  15.0000 Du        
  10657 ****        13.5000  22.0000  15.2500 Du        
  10658 ****        13.5000  22.2500  14.2500 Du        
  10659 ****        13.5000  22.2500  14.5000 Du        
  10660 ****        13.5000  22.2500  14.7500 Du        
  10661 ****        13.5000  22.2500  15.0000 Du        
  10662 ****        13.5000  22.2500  15.2500 Du        
  10663 ****        13.5000  22.2500  15.5000 Du        
  10664 ****        13.5000  22.2500  15.7500 Du        
  10665 ****        13.5000  22.5000  14.0000 Du        
  10666 ****        13.5000  22.5000  14.2500 Du        
  10667 ****        13.5000  22.5000  14.5000 Du        
  10668 ****        13.5000  22.5000  14.7500 Du        
  10669 ****        13.5000  22.5000  15.0000 Du        
  10670 ****        13.5000  22.5000  15.2500 Du        
  10671 ****        13.5000  22.5000  15.5000 Du        
  10672 ****        13.5000  22.5000  15.7500 Du        
  10673 ****        13.5000  22.5000  16.0000 Du        
  10674 ****        13.5000  22.5000  16.2500 Du        
  10675 ****        13.5000  22.7500  14.0000 Du        
  10676 ****        13.5000  22.7500  14.2500 Du        
  10677 ****        13.5000  22.7500  14.5000 Du        
  10678 ****        13.5000  22.7500  14.7500 Du        
  10679 ****        13.5000  22.7500  15.0000 Du        
  10680 ****        13.5000  22.7500  15.2500 Du        
  10681 ****        13.5000  22.7500  15.5000 Du        
  10682 ****        13.5000  22.7500  15.7500 Du        
  10683 ****        13.5000  22.7500  16.0000 Du        
  10684 ****        13.5000  22.7500  16.2500 Du        
  10685 ****        13.5000  22.7500  16.5000 Du        
  10686 ****        13.5000  23.0000  14.0000 Du        
  10687 ****        13.5000  23.0000  14.2500 Du        
  10688 ****        13.5000  23.0000  14.5000 Du        
  10689 ****        13.5000  23.0000  14.7500 Du        
  10690 ****        13.5000  23.0000  15.0000 Du        
  10691 ****        13.5000  23.0000  15.2500 Du        
  10692 ****        13.5000  23.0000  15.5000 Du        
  10693 ****        13.5000  23.0000  15.7500 Du        
  10694 ****        13.5000  23.0000  16.0000 Du        
  10695 ****        13.5000  23.0000  16.2500 Du        
  10696 ****        13.5000  23.0000  16.5000 Du        
  10697 ****        13.5000  23.0000  16.7500 Du        
  10698 ****        13.5000  23.2500  14.0000 Du        
  10699 ****        13.5000  23.2500  14.2500 Du        
  10700 ****        13.5000  23.2500  14.5000 Du        
  10701 ****        13.5000  23.2500  14.7500 Du        
  10702 ****        13.5000  23.2500  15.0000 Du        
  10703 ****        13.5000  23.2500  15.2500 Du        
  10704 ****        13.5000  23.2500  15.5000 Du        
  10705 ****        13.5000  23.2500  15.7500 Du        
  10706 ****        13.5000  23.2500  16.0000 Du        
  10707 ****        13.5000  23.2500  16.2500 Du        
  10708 ****        13.5000  23.2500  16.5000 Du        
  10709 ****        13.5000  23.2500  16.7500 Du        
  10710 ****        13.5000  23.5000  14.0000 Du        
  10711 ****        13.5000  23.5000  14.2500 Du        
  10712 ****        13.5000  23.5000  14.5000 Du        
  10713 ****        13.5000  23.5000  14.7500 Du        
  10714 ****        13.5000  23.5000  15.0000 Du        
  10715 ****        13.5000  23.5000  15.2500 Du        
  10716 ****        13.5000  23.5000  15.5000 Du        
  10717 ****        13.5000  23.5000  15.7500 Du        
  10718 ****        13.5000  23.5000  16.0000 Du        
  10719 ****        13.5000  23.5000  16.2500 Du        
  10720 ****        13.5000  23.7500  14.0000 Du        
  10721 ****        13.5000  23.7500  14.2500 Du        
  10722 ****        13.5000  23.7500  14.5000 Du        
  10723 ****        13.5000  23.7500  14.7500 Du        
  10724 ****        13.5000  23.7500  15.0000 Du        
  10725 ****        13.5000  23.7500  15.2500 Du        
  10726 ****        13.5000  23.7500  15.5000 Du        
  10727 ****        13.5000  23.7500  15.7500 Du        
  10728 ****        13.5000  23.7500  16.0000 Du        
  10729 ****        13.5000  24.0000  14.0000 Du        
  10730 ****        13.5000  24.0000  14.2500 Du        
  10731 ****        13.5000  24.0000  14.5000 Du        
  10732 ****        13.5000  24.0000  14.7500 Du        
  10733 ****        13.5000  24.0000  15.0000 Du        
  10734 ****        13.5000  24.0000  15.2500 Du        
  10735 ****        13.5000  24.0000  15.5000 Du        
  10736 ****        13.5000  24.2500  14.0000 Du        
  10737 ****        13.5000  24.2500  14.2500 Du        
  10738 ****        13.5000  24.2500  14.5000 Du        
  10739 ****        13.5000  24.2500  14.7500 Du        
  10740 ****        13.5000  24.2500  15.0000 Du        
  10741 ****        13.5000  24.2500  15.2500 Du        
  10742 ****        13.5000  24.5000  14.2500 Du        
  10743 ****        13.5000  24.5000  14.5000 Du        
  10744 ****        13.5000  24.5000  14.7500 Du        
  10745 ****        13.5000  24.5000  15.0000 Du        
  10746 ****        13.5000  24.7500  14.0000 Du        
  10747 ****        13.5000  24.7500  14.2500 Du        
  10748 ****        13.5000  24.7500  14.5000 Du        
  10749 ****        13.5000  24.7500  14.7500 Du        
  10750 ****        13.5000  24.7500  15.0000 Du        
  10751 ****        13.5000  25.0000  14.0000 Du        
  10752 ****        13.5000  25.0000  14.2500 Du        
  10753 ****        13.5000  25.0000  14.5000 Du        
  10754 ****        13.5000  25.0000  14.7500 Du        
  10755 ****        13.5000  25.2500  14.0000 Du        
  10756 ****        13.5000  25.2500  14.2500 Du        
  10757 ****        13.5000  26.0000  14.0000 Du        
  10758 ****        13.5000  26.2500  14.0000 Du        
  10759 ****        13.5000  29.5000  17.5000 Du        
  10760 ****        13.5000  29.5000  17.7500 Du        
  10761 ****        13.5000  29.5000  18.0000 Du        
  10762 ****        13.5000  29.5000  18.2500 Du        
  10763 ****        13.5000  29.5000  18.5000 Du        
  10764 ****        13.5000  29.5000  18.7500 Du        
  10765 ****        13.5000  29.5000  19.0000 Du        
  10766 ****        13.5000  29.5000  19.2500 Du        
  10767 ****        13.5000  29.7500  17.7500 Du        
  10768 ****        13.5000  29.7500  18.0000 Du        
  10769 ****        13.5000  29.7500  18.2500 Du        
  10770 ****        13.5000  29.7500  18.5000 Du        
  10771 ****        13.5000  29.7500  18.7500 Du        
  10772 ****        13.5000  29.7500  19.0000 Du        
  10773 ****        13.5000  29.7500  19.2500 Du        
  10774 ****        13.5000  30.0000  17.7500 Du        
  10775 ****        13.5000  30.0000  18.0000 Du        
  10776 ****        13.5000  30.0000  18.2500 Du        
  10777 ****        13.5000  30.0000  18.5000 Du        
  10778 ****        13.5000  30.0000  18.7500 Du        
  10779 ****        13.5000  30.0000  19.0000 Du        
  10780 ****        13.5000  30.2500  18.0000 Du        
  10781 ****        13.5000  30.2500  18.2500 Du        
  10782 ****        13.5000  30.2500  18.5000 Du        
  10783 ****        13.5000  30.2500  18.7500 Du        
  10784 ****        13.5000  35.0000   4.0000 Du        
  10785 ****        13.5000  35.0000   4.2500 Du        
  10786 ****        13.5000  35.0000   4.5000 Du        
  10787 ****        13.5000  35.2500   4.0000 Du        
  10788 ****        13.5000  35.2500   4.2500 Du        
  10789 ****        13.5000  35.2500   4.5000 Du        
  10790 ****        13.5000  35.2500   4.7500 Du        
  10791 ****        13.5000  35.2500   5.0000 Du        
  10792 ****        13.7500  12.0000  12.5000 Du        
  10793 ****        13.7500  12.0000  12.7500 Du        
  10794 ****        13.7500  12.0000  13.0000 Du        
  10795 ****        13.7500  12.2500  12.7500 Du        
  10796 ****        13.7500  12.2500  13.0000 Du        
  10797 ****        13.7500  12.5000  12.7500 Du        
  10798 ****        13.7500  15.0000   5.5000 Du        
  10799 ****        13.7500  15.0000   5.7500 Du        
  10800 ****        13.7500  15.2500   5.2500 Du        
  10801 ****        13.7500  15.2500   5.5000 Du        
  10802 ****        13.7500  15.2500   5.7500 Du        
  10803 ****        13.7500  15.5000   5.0000 Du        
  10804 ****        13.7500  15.5000   5.2500 Du        
  10805 ****        13.7500  15.5000   5.5000 Du        
  10806 ****        13.7500  15.5000   5.7500 Du        
  10807 ****        13.7500  15.7500   5.0000 Du        
  10808 ****        13.7500  15.7500   5.2500 Du        
  10809 ****        13.7500  15.7500   5.5000 Du        
  10810 ****        13.7500  15.7500   5.7500 Du        
  10811 ****        13.7500  16.0000   4.7500 Du        
  10812 ****        13.7500  16.0000   5.0000 Du        
  10813 ****        13.7500  16.0000   5.2500 Du        
  10814 ****        13.7500  16.0000   5.5000 Du        
  10815 ****        13.7500  16.0000   5.7500 Du        
  10816 ****        13.7500  16.2500   4.5000 Du        
  10817 ****        13.7500  16.2500   4.7500 Du        
  10818 ****        13.7500  16.2500   5.0000 Du        
  10819 ****        13.7500  16.2500   5.2500 Du        
  10820 ****        13.7500  16.2500   5.5000 Du        
  10821 ****        13.7500  16.2500   5.7500 Du        
  10822 ****        13.7500  16.5000   4.5000 Du        
  10823 ****        13.7500  16.5000   4.7500 Du        
  10824 ****        13.7500  16.5000   5.0000 Du        
  10825 ****        13.7500  16.5000   5.2500 Du        
  10826 ****        13.7500  16.5000   5.5000 Du        
  10827 ****        13.7500  17.7500   2.7500 Du        
  10828 ****        13.7500  22.0000  15.2500 Du        
  10829 ****        13.7500  22.0000  15.5000 Du        
  10830 ****        13.7500  22.2500  14.2500 Du        
  10831 ****        13.7500  22.2500  14.5000 Du        
  10832 ****        13.7500  22.2500  14.7500 Du        
  10833 ****        13.7500  22.2500  15.0000 Du        
  10834 ****        13.7500  22.2500  15.2500 Du        
  10835 ****        13.7500  22.2500  15.5000 Du        
  10836 ****        13.7500  22.2500  15.7500 Du        
  10837 ****        13.7500  22.2500  16.0000 Du        
  10838 ****        13.7500  22.2500  16.2500 Du        
  10839 ****        13.7500  22.5000  14.0000 Du        
  10840 ****        13.7500  22.5000  14.2500 Du        
  10841 ****        13.7500  22.5000  14.5000 Du        
  10842 ****        13.7500  22.5000  14.7500 Du        
  10843 ****        13.7500  22.5000  15.0000 Du        
  10844 ****        13.7500  22.5000  15.2500 Du        
  10845 ****        13.7500  22.5000  15.5000 Du        
  10846 ****        13.7500  22.5000  15.7500 Du        
  10847 ****        13.7500  22.5000  16.0000 Du        
  10848 ****        13.7500  22.5000  16.2500 Du        
  10849 ****        13.7500  22.7500  14.0000 Du        
  10850 ****        13.7500  22.7500  14.2500 Du        
  10851 ****        13.7500  22.7500  14.5000 Du        
  10852 ****        13.7500  22.7500  14.7500 Du        
  10853 ****        13.7500  22.7500  15.0000 Du        
  10854 ****        13.7500  22.7500  15.2500 Du        
  10855 ****        13.7500  22.7500  15.5000 Du        
  10856 ****        13.7500  22.7500  15.7500 Du        
  10857 ****        13.7500  22.7500  16.0000 Du        
  10858 ****        13.7500  22.7500  16.2500 Du        
  10859 ****        13.7500  22.7500  16.5000 Du        
  10860 ****        13.7500  22.7500  16.7500 Du        
  10861 ****        13.7500  23.0000  14.0000 Du        
  10862 ****        13.7500  23.0000  14.2500 Du        
  10863 ****        13.7500  23.0000  14.5000 Du        
  10864 ****        13.7500  23.0000  14.7500 Du        
  10865 ****        13.7500  23.0000  15.0000 Du        
  10866 ****        13.7500  23.0000  15.2500 Du        
  10867 ****        13.7500  23.0000  15.5000 Du        
  10868 ****        13.7500  23.0000  15.7500 Du        
  10869 ****        13.7500  23.0000  16.0000 Du        
  10870 ****        13.7500  23.0000  16.2500 Du        
  10871 ****        13.7500  23.0000  16.5000 Du        
  10872 ****        13.7500  23.0000  16.7500 Du        
  10873 ****        13.7500  23.0000  17.0000 Du        
  10874 ****        13.7500  23.2500  14.0000 Du        
  10875 ****        13.7500  23.2500  14.2500 Du        
  10876 ****        13.7500  23.2500  14.5000 Du        
  10877 ****        13.7500  23.2500  14.7500 Du        
  10878 ****        13.7500  23.2500  15.0000 Du        
  10879 ****        13.7500  23.2500  15.2500 Du        
  10880 ****        13.7500  23.2500  15.5000 Du        
  10881 ****        13.7500  23.2500  15.7500 Du        
  10882 ****        13.7500  23.2500  16.0000 Du        
  10883 ****        13.7500  23.2500  16.2500 Du        
  10884 ****        13.7500  23.2500  16.5000 Du        
  10885 ****        13.7500  23.2500  16.7500 Du        
  10886 ****        13.7500  23.5000  14.0000 Du        
  10887 ****        13.7500  23.5000  14.2500 Du        
  10888 ****        13.7500  23.5000  14.5000 Du        
  10889 ****        13.7500  23.5000  14.7500 Du        
  10890 ****        13.7500  23.5000  15.0000 Du        
  10891 ****        13.7500  23.5000  15.2500 Du        
  10892 ****        13.7500  23.5000  15.5000 Du        
  10893 ****        13.7500  23.5000  15.7500 Du        
  10894 ****        13.7500  23.5000  16.0000 Du        
  10895 ****        13.7500  23.5000  16.2500 Du        
  10896 ****        13.7500  23.7500  14.0000 Du        
  10897 ****        13.7500  23.7500  14.2500 Du        
  10898 ****        13.7500  23.7500  14.5000 Du        
  10899 ****        13.7500  23.7500  14.7500 Du        
  10900 ****        13.7500  23.7500  15.0000 Du        
  10901 ****        13.7500  23.7500  15.2500 Du        
  10902 ****        13.7500  23.7500  15.5000 Du        
  10903 ****        13.7500  23.7500  15.7500 Du        
  10904 ****        13.7500  23.7500  16.0000 Du        
  10905 ****        13.7500  24.0000  14.0000 Du        
  10906 ****        13.7500  24.0000  14.2500 Du        
  10907 ****        13.7500  24.0000  14.5000 Du        
  10908 ****        13.7500  24.0000  14.7500 Du        
  10909 ****        13.7500  24.0000  15.0000 Du        
  10910 ****        13.7500  24.0000  15.2500 Du        
  10911 ****        13.7500  24.0000  15.5000 Du        
  10912 ****        13.7500  24.2500  14.0000 Du        
  10913 ****        13.7500  24.2500  14.2500 Du        
  10914 ****        13.7500  24.2500  14.5000 Du        
  10915 ****        13.7500  24.2500  14.7500 Du        
  10916 ****        13.7500  24.2500  15.0000 Du        
  10917 ****        13.7500  24.2500  15.2500 Du        
  10918 ****        13.7500  24.5000  14.2500 Du        
  10919 ****        13.7500  24.5000  14.5000 Du        
  10920 ****        13.7500  24.5000  14.7500 Du        
  10921 ****        13.7500  24.5000  15.0000 Du        
  10922 ****        13.7500  24.7500  14.2500 Du        
  10923 ****        13.7500  24.7500  14.5000 Du        
  10924 ****        13.7500  24.7500  14.7500 Du        
  10925 ****        13.7500  25.0000  14.2500 Du        
  10926 ****        13.7500  25.0000  14.5000 Du        
  10927 ****        13.7500  25.0000  14.7500 Du        
  10928 ****        13.7500  25.2500  14.2500 Du        
  10929 ****        13.7500  26.2500  14.0000 Du        
  10930 ****        13.7500  27.0000  14.0000 Du        
  10931 ****        13.7500  29.5000  17.5000 Du        
  10932 ****        13.7500  29.5000  17.7500 Du        
  10933 ****        13.7500  29.5000  18.0000 Du        
  10934 ****        13.7500  29.5000  18.2500 Du        
  10935 ****        13.7500  29.5000  18.5000 Du        
  10936 ****        13.7500  29.5000  18.7500 Du        
  10937 ****        13.7500  29.5000  19.0000 Du        
  10938 ****        13.7500  29.7500  17.7500 Du        
  10939 ****        13.7500  29.7500  18.0000 Du        
  10940 ****        13.7500  29.7500  18.2500 Du        
  10941 ****        13.7500  29.7500  18.5000 Du        
  10942 ****        13.7500  29.7500  18.7500 Du        
  10943 ****        13.7500  29.7500  19.0000 Du        
  10944 ****        13.7500  30.0000  18.0000 Du        
  10945 ****        13.7500  30.0000  18.2500 Du        
  10946 ****        13.7500  30.0000  18.5000 Du        
  10947 ****        13.7500  30.0000  18.7500 Du        
  10948 ****        13.7500  30.2500  18.2500 Du        
  10949 ****        13.7500  30.2500  18.5000 Du        
  10950 ****        14.0000  12.0000  12.7500 Du        
  10951 ****        14.0000  12.0000  13.0000 Du        
  10952 ****        14.0000  12.0000  13.2500 Du        
  10953 ****        14.0000  12.0000  13.5000 Du        
  10954 ****        14.0000  12.2500  12.7500 Du        
  10955 ****        14.0000  12.2500  13.0000 Du        
  10956 ****        14.0000  12.2500  13.2500 Du        
  10957 ****        14.0000  12.2500  13.5000 Du        
  10958 ****        14.0000  12.5000  12.7500 Du        
  10959 ****        14.0000  12.5000  13.0000 Du        
  10960 ****        14.0000  12.5000  13.2500 Du        
  10961 ****        14.0000  15.0000   5.2500 Du        
  10962 ****        14.0000  15.0000   5.5000 Du        
  10963 ****        14.0000  15.0000   5.7500 Du        
  10964 ****        14.0000  15.2500   5.2500 Du        
  10965 ****        14.0000  15.2500   5.5000 Du        
  10966 ****        14.0000  15.2500   5.7500 Du        
  10967 ****        14.0000  15.5000   5.0000 Du        
  10968 ****        14.0000  15.5000   5.2500 Du        
  10969 ****        14.0000  15.5000   5.5000 Du        
  10970 ****        14.0000  15.5000   5.7500 Du        
  10971 ****        14.0000  15.7500   4.7500 Du        
  10972 ****        14.0000  15.7500   5.0000 Du        
  10973 ****        14.0000  15.7500   5.2500 Du        
  10974 ****        14.0000  15.7500   5.5000 Du        
  10975 ****        14.0000  15.7500   5.7500 Du        
  10976 ****        14.0000  16.0000   4.5000 Du        
  10977 ****        14.0000  16.0000   4.7500 Du        
  10978 ****        14.0000  16.0000   5.0000 Du        
  10979 ****        14.0000  16.0000   5.2500 Du        
  10980 ****        14.0000  16.0000   5.5000 Du        
  10981 ****        14.0000  16.0000   5.7500 Du        
  10982 ****        14.0000  16.2500   4.5000 Du        
  10983 ****        14.0000  16.2500   4.7500 Du        
  10984 ****        14.0000  16.2500   5.0000 Du        
  10985 ****        14.0000  16.2500   5.2500 Du        
  10986 ****        14.0000  16.2500   5.5000 Du        
  10987 ****        14.0000  16.2500   5.7500 Du        
  10988 ****        14.0000  16.5000   4.5000 Du        
  10989 ****        14.0000  16.5000   4.7500 Du        
  10990 ****        14.0000  16.5000   5.0000 Du        
  10991 ****        14.0000  16.5000   5.2500 Du        
  10992 ****        14.0000  16.5000   5.5000 Du        
  10993 ****        14.0000  16.7500   3.7500 Du        
  10994 ****        14.0000  17.2500   3.0000 Du        
  10995 ****        14.0000  17.5000   2.7500 Du        
  10996 ****        14.0000  17.5000   3.0000 Du        
  10997 ****        14.0000  17.7500   2.7500 Du        
  10998 ****        14.0000  17.7500   3.0000 Du        
  10999 ****        14.0000  22.0000  15.7500 Du        
  11000 ****        14.0000  22.0000  16.0000 Du        
  11001 ****        14.0000  22.2500  14.5000 Du        
  11002 ****        14.0000  22.2500  14.7500 Du        
  11003 ****        14.0000  22.2500  15.0000 Du        
  11004 ****        14.0000  22.2500  15.2500 Du        
  11005 ****        14.0000  22.2500  15.5000 Du        
  11006 ****        14.0000  22.2500  15.7500 Du        
  11007 ****        14.0000  22.2500  16.0000 Du        
  11008 ****        14.0000  22.2500  16.2500 Du        
  11009 ****        14.0000  22.5000  14.0000 Du        
  11010 ****        14.0000  22.5000  14.2500 Du        
  11011 ****        14.0000  22.5000  14.5000 Du        
  11012 ****        14.0000  22.5000  14.7500 Du        
  11013 ****        14.0000  22.5000  15.0000 Du        
  11014 ****        14.0000  22.5000  15.2500 Du        
  11015 ****        14.0000  22.5000  15.5000 Du        
  11016 ****        14.0000  22.5000  15.7500 Du        
  11017 ****        14.0000  22.5000  16.0000 Du        
  11018 ****        14.0000  22.5000  16.2500 Du        
  11019 ****        14.0000  22.5000  16.5000 Du        
  11020 ****        14.0000  22.5000  16.7500 Du        
  11021 ****        14.0000  22.7500  14.0000 Du        
  11022 ****        14.0000  22.7500  14.2500 Du        
  11023 ****        14.0000  22.7500  14.5000 Du        
  11024 ****        14.0000  22.7500  14.7500 Du        
  11025 ****        14.0000  22.7500  15.0000 Du        
  11026 ****        14.0000  22.7500  15.2500 Du        
  11027 ****        14.0000  22.7500  15.5000 Du        
  11028 ****        14.0000  22.7500  15.7500 Du        
  11029 ****        14.0000  22.7500  16.0000 Du        
  11030 ****        14.0000  22.7500  16.2500 Du        
  11031 ****        14.0000  22.7500  16.5000 Du        
  11032 ****        14.0000  22.7500  16.7500 Du        
  11033 ****        14.0000  22.7500  17.0000 Du        
  11034 ****        14.0000  23.0000  14.0000 Du        
  11035 ****        14.0000  23.0000  14.2500 Du        
  11036 ****        14.0000  23.0000  14.5000 Du        
  11037 ****        14.0000  23.0000  14.7500 Du        
  11038 ****        14.0000  23.0000  15.0000 Du        
  11039 ****        14.0000  23.0000  15.2500 Du        
  11040 ****        14.0000  23.0000  15.5000 Du        
  11041 ****        14.0000  23.0000  15.7500 Du        
  11042 ****        14.0000  23.0000  16.0000 Du        
  11043 ****        14.0000  23.0000  16.2500 Du        
  11044 ****        14.0000  23.0000  16.5000 Du        
  11045 ****        14.0000  23.0000  16.7500 Du        
  11046 ****        14.0000  23.0000  17.0000 Du        
  11047 ****        14.0000  23.2500  14.0000 Du        
  11048 ****        14.0000  23.2500  14.2500 Du        
  11049 ****        14.0000  23.2500  14.5000 Du        
  11050 ****        14.0000  23.2500  14.7500 Du        
  11051 ****        14.0000  23.2500  15.0000 Du        
  11052 ****        14.0000  23.2500  15.2500 Du        
  11053 ****        14.0000  23.2500  15.5000 Du        
  11054 ****        14.0000  23.2500  15.7500 Du        
  11055 ****        14.0000  23.2500  16.0000 Du        
  11056 ****        14.0000  23.2500  16.2500 Du        
  11057 ****        14.0000  23.2500  16.5000 Du        
  11058 ****        14.0000  23.2500  16.7500 Du        
  11059 ****        14.0000  23.5000  14.0000 Du        
  11060 ****        14.0000  23.5000  14.2500 Du        
  11061 ****        14.0000  23.5000  14.5000 Du        
  11062 ****        14.0000  23.5000  14.7500 Du        
  11063 ****        14.0000  23.5000  15.0000 Du        
  11064 ****        14.0000  23.5000  15.2500 Du        
  11065 ****        14.0000  23.5000  15.5000 Du        
  11066 ****        14.0000  23.5000  15.7500 Du        
  11067 ****        14.0000  23.5000  16.0000 Du        
  11068 ****        14.0000  23.5000  16.2500 Du        
  11069 ****        14.0000  23.7500  14.2500 Du        
  11070 ****        14.0000  23.7500  14.5000 Du        
  11071 ****        14.0000  23.7500  14.7500 Du        
  11072 ****        14.0000  23.7500  15.0000 Du        
  11073 ****        14.0000  23.7500  15.2500 Du        
  11074 ****        14.0000  23.7500  15.5000 Du        
  11075 ****        14.0000  23.7500  15.7500 Du        
  11076 ****        14.0000  24.0000  14.2500 Du        
  11077 ****        14.0000  24.0000  14.5000 Du        
  11078 ****        14.0000  24.0000  14.7500 Du        
  11079 ****        14.0000  24.0000  15.0000 Du        
  11080 ****        14.0000  24.0000  15.2500 Du        
  11081 ****        14.0000  24.0000  15.5000 Du        
  11082 ****        14.0000  24.2500  14.2500 Du        
  11083 ****        14.0000  24.2500  14.5000 Du        
  11084 ****        14.0000  24.2500  14.7500 Du        
  11085 ****        14.0000  24.2500  15.0000 Du        
  11086 ****        14.0000  24.2500  15.2500 Du        
  11087 ****        14.0000  24.5000  14.2500 Du        
  11088 ****        14.0000  24.5000  14.5000 Du        
  11089 ****        14.0000  24.5000  14.7500 Du        
  11090 ****        14.0000  24.7500  14.2500 Du        
  11091 ****        14.0000  24.7500  14.5000 Du        
  11092 ****        14.0000  24.7500  14.7500 Du        
  11093 ****        14.0000  24.7500  15.0000 Du        
  11094 ****        14.0000  25.0000  14.7500 Du        
  11095 ****        14.0000  27.0000  14.0000 Du        
  11096 ****        14.0000  27.2500  13.7500 Du        
  11097 ****        14.0000  29.5000  17.7500 Du        
  11098 ****        14.0000  29.5000  18.0000 Du        
  11099 ****        14.0000  29.5000  18.2500 Du        
  11100 ****        14.0000  29.5000  18.5000 Du        
  11101 ****        14.0000  29.7500  18.0000 Du        
  11102 ****        14.0000  29.7500  18.2500 Du        
  11103 ****        14.0000  29.7500  18.5000 Du        
  11104 ****        14.0000  29.7500  18.7500 Du        
  11105 ****        14.0000  30.0000  18.2500 Du        
  11106 ****        14.0000  30.0000  18.5000 Du        
  11107 ****        14.2500  12.0000  13.0000 Du        
  11108 ****        14.2500  12.0000  13.2500 Du        
  11109 ****        14.2500  12.0000  13.5000 Du        
  11110 ****        14.2500  12.0000  13.7500 Du        
  11111 ****        14.2500  12.2500  13.0000 Du        
  11112 ****        14.2500  12.2500  13.2500 Du        
  11113 ****        14.2500  12.2500  13.5000 Du        
  11114 ****        14.2500  12.2500  13.7500 Du        
  11115 ****        14.2500  12.5000  13.0000 Du        
  11116 ****        14.2500  12.5000  13.2500 Du        
  11117 ****        14.2500  12.5000  13.5000 Du        
  11118 ****        14.2500  12.5000  13.7500 Du        
  11119 ****        14.2500  12.7500  13.0000 Du        
  11120 ****        14.2500  12.7500  13.2500 Du        
  11121 ****        14.2500  12.7500  13.5000 Du        
  11122 ****        14.2500  12.7500  13.7500 Du        
  11123 ****        14.2500  15.0000   5.2500 Du        
  11124 ****        14.2500  15.0000   5.5000 Du        
  11125 ****        14.2500  15.2500   5.2500 Du        
  11126 ****        14.2500  15.2500   5.5000 Du        
  11127 ****        14.2500  15.2500   5.7500 Du        
  11128 ****        14.2500  15.5000   4.7500 Du        
  11129 ****        14.2500  15.5000   5.0000 Du        
  11130 ****        14.2500  15.5000   5.2500 Du        
  11131 ****        14.2500  15.5000   5.5000 Du        
  11132 ****        14.2500  15.5000   5.7500 Du        
  11133 ****        14.2500  15.7500   4.7500 Du        
  11134 ****        14.2500  15.7500   5.0000 Du        
  11135 ****        14.2500  15.7500   5.2500 Du        
  11136 ****        14.2500  15.7500   5.5000 Du        
  11137 ****        14.2500  15.7500   5.7500 Du        
  11138 ****        14.2500  16.0000   4.5000 Du        
  11139 ****        14.2500  16.0000   4.7500 Du        
  11140 ****        14.2500  16.0000   5.0000 Du        
  11141 ****        14.2500  16.0000   5.2500 Du        
  11142 ****        14.2500  16.0000   5.5000 Du        
  11143 ****        14.2500  16.0000   5.7500 Du        
  11144 ****        14.2500  16.2500   4.5000 Du        
  11145 ****        14.2500  16.2500   4.7500 Du        
  11146 ****        14.2500  16.2500   5.0000 Du        
  11147 ****        14.2500  16.2500   5.2500 Du        
  11148 ****        14.2500  16.2500   5.5000 Du        
  11149 ****        14.2500  16.2500   5.7500 Du        
  11150 ****        14.2500  16.5000   4.0000 Du        
  11151 ****        14.2500  16.5000   4.2500 Du        
  11152 ****        14.2500  16.5000   4.5000 Du        
  11153 ****        14.2500  16.5000   4.7500 Du        
  11154 ****        14.2500  16.5000   5.0000 Du        
  11155 ****        14.2500  16.5000   5.2500 Du        
  11156 ****        14.2500  16.5000   5.5000 Du        
  11157 ****        14.2500  16.7500   3.7500 Du        
  11158 ****        14.2500  16.7500   4.0000 Du        
  11159 ****        14.2500  16.7500   4.2500 Du        
  11160 ****        14.2500  16.7500   4.5000 Du        
  11161 ****        14.2500  16.7500   4.7500 Du        
  11162 ****        14.2500  17.0000   3.2500 Du        
  11163 ****        14.2500  17.0000   3.5000 Du        
  11164 ****        14.2500  17.0000   3.7500 Du        
  11165 ****        14.2500  17.2500   2.7500 Du        
  11166 ****        14.2500  17.2500   3.0000 Du        
  11167 ****        14.2500  17.2500   3.2500 Du        
  11168 ****        14.2500  17.5000   2.7500 Du        
  11169 ****        14.2500  17.5000   3.0000 Du        
  11170 ****        14.2500  17.5000   3.2500 Du        
  11171 ****        14.2500  17.7500   2.7500 Du        
  11172 ****        14.2500  17.7500   3.0000 Du        
  11173 ****        14.2500  18.0000   2.7500 Du        
  11174 ****        14.2500  18.0000   3.0000 Du        
  11175 ****        14.2500  22.0000  15.7500 Du        
  11176 ****        14.2500  22.0000  16.0000 Du        
  11177 ****        14.2500  22.0000  16.2500 Du        
  11178 ****        14.2500  22.2500  15.0000 Du        
  11179 ****        14.2500  22.2500  15.2500 Du        
  11180 ****        14.2500  22.2500  15.5000 Du        
  11181 ****        14.2500  22.2500  15.7500 Du        
  11182 ****        14.2500  22.2500  16.0000 Du        
  11183 ****        14.2500  22.2500  16.2500 Du        
  11184 ****        14.2500  22.2500  16.5000 Du        
  11185 ****        14.2500  22.5000  14.2500 Du        
  11186 ****        14.2500  22.5000  14.5000 Du        
  11187 ****        14.2500  22.5000  14.7500 Du        
  11188 ****        14.2500  22.5000  15.0000 Du        
  11189 ****        14.2500  22.5000  15.2500 Du        
  11190 ****        14.2500  22.5000  15.5000 Du        
  11191 ****        14.2500  22.5000  15.7500 Du        
  11192 ****        14.2500  22.5000  16.0000 Du        
  11193 ****        14.2500  22.5000  16.2500 Du        
  11194 ****        14.2500  22.5000  16.5000 Du        
  11195 ****        14.2500  22.5000  16.7500 Du        
  11196 ****        14.2500  22.7500  14.0000 Du        
  11197 ****        14.2500  22.7500  14.2500 Du        
  11198 ****        14.2500  22.7500  14.5000 Du        
  11199 ****        14.2500  22.7500  14.7500 Du        
  11200 ****        14.2500  22.7500  15.0000 Du        
  11201 ****        14.2500  22.7500  15.2500 Du        
  11202 ****        14.2500  22.7500  15.5000 Du        
  11203 ****        14.2500  22.7500  15.7500 Du        
  11204 ****        14.2500  22.7500  16.0000 Du        
  11205 ****        14.2500  22.7500  16.2500 Du        
  11206 ****        14.2500  22.7500  16.5000 Du        
  11207 ****        14.2500  22.7500  16.7500 Du        
  11208 ****        14.2500  22.7500  17.0000 Du        
  11209 ****        14.2500  23.0000  14.0000 Du        
  11210 ****        14.2500  23.0000  14.2500 Du        
  11211 ****        14.2500  23.0000  14.5000 Du        
  11212 ****        14.2500  23.0000  14.7500 Du        
  11213 ****        14.2500  23.0000  15.0000 Du        
  11214 ****        14.2500  23.0000  15.2500 Du        
  11215 ****        14.2500  23.0000  15.5000 Du        
  11216 ****        14.2500  23.0000  15.7500 Du        
  11217 ****        14.2500  23.0000  16.0000 Du        
  11218 ****        14.2500  23.0000  16.2500 Du        
  11219 ****        14.2500  23.0000  16.5000 Du        
  11220 ****        14.2500  23.0000  16.7500 Du        
  11221 ****        14.2500  23.0000  17.0000 Du        
  11222 ****        14.2500  23.2500  14.2500 Du        
  11223 ****        14.2500  23.2500  14.5000 Du        
  11224 ****        14.2500  23.2500  14.7500 Du        
  11225 ****        14.2500  23.2500  15.0000 Du        
  11226 ****        14.2500  23.2500  15.2500 Du        
  11227 ****        14.2500  23.2500  15.5000 Du        
  11228 ****        14.2500  23.2500  15.7500 Du        
  11229 ****        14.2500  23.2500  16.0000 Du        
  11230 ****        14.2500  23.2500  16.2500 Du        
  11231 ****        14.2500  23.2500  16.5000 Du        
  11232 ****        14.2500  23.2500  16.7500 Du        
  11233 ****        14.2500  23.5000  14.2500 Du        
  11234 ****        14.2500  23.5000  14.5000 Du        
  11235 ****        14.2500  23.5000  14.7500 Du        
  11236 ****        14.2500  23.5000  15.0000 Du        
  11237 ****        14.2500  23.5000  15.2500 Du        
  11238 ****        14.2500  23.5000  15.5000 Du        
  11239 ****        14.2500  23.5000  15.7500 Du        
  11240 ****        14.2500  23.5000  16.0000 Du        
  11241 ****        14.2500  23.7500  14.2500 Du        
  11242 ****        14.2500  23.7500  14.5000 Du        
  11243 ****        14.2500  23.7500  14.7500 Du        
  11244 ****        14.2500  23.7500  15.0000 Du        
  11245 ****        14.2500  23.7500  15.2500 Du        
  11246 ****        14.2500  23.7500  15.5000 Du        
  11247 ****        14.2500  23.7500  15.7500 Du        
  11248 ****        14.2500  24.0000  14.2500 Du        
  11249 ****        14.2500  24.0000  14.5000 Du        
  11250 ****        14.2500  24.0000  14.7500 Du        
  11251 ****        14.2500  24.0000  15.0000 Du        
  11252 ****        14.2500  24.0000  15.2500 Du        
  11253 ****        14.2500  24.2500  14.2500 Du        
  11254 ****        14.2500  24.2500  14.5000 Du        
  11255 ****        14.2500  24.2500  14.7500 Du        
  11256 ****        14.2500  24.2500  15.0000 Du        
  11257 ****        14.2500  24.2500  15.2500 Du        
  11258 ****        14.2500  27.5000  13.0000 Du        
  11259 ****        14.2500  27.5000  13.2500 Du        
  11260 ****        14.2500  32.7500  11.0000 Du        
  11261 ****        14.2500  33.0000  10.7500 Du        
  11262 ****        14.2500  33.0000  11.0000 Du        
  11263 ****        14.2500  33.0000  11.2500 Du        
  11264 ****        14.2500  33.2500  10.7500 Du        
  11265 ****        14.2500  33.2500  11.0000 Du        
  11266 ****        14.2500  33.2500  11.2500 Du        
  11267 ****        14.2500  33.5000  11.0000 Du        
  11268 ****        14.2500  33.5000  11.2500 Du        
  11269 ****        14.2500  33.5000  11.5000 Du        
  11270 ****        14.2500  33.7500  11.2500 Du        
  11271 ****        14.5000  12.0000  13.5000 Du        
  11272 ****        14.5000  12.0000  13.7500 Du        
  11273 ****        14.5000  12.2500  13.2500 Du        
  11274 ****        14.5000  12.2500  13.5000 Du        
  11275 ****        14.5000  12.2500  13.7500 Du        
  11276 ****        14.5000  12.2500  14.0000 Du        
  11277 ****        14.5000  12.5000  13.0000 Du        
  11278 ****        14.5000  12.5000  13.2500 Du        
  11279 ****        14.5000  12.5000  13.5000 Du        
  11280 ****        14.5000  12.5000  13.7500 Du        
  11281 ****        14.5000  12.5000  14.0000 Du        
  11282 ****        14.5000  12.5000  14.2500 Du        
  11283 ****        14.5000  12.7500  13.0000 Du        
  11284 ****        14.5000  12.7500  13.2500 Du        
  11285 ****        14.5000  12.7500  13.5000 Du        
  11286 ****        14.5000  12.7500  13.7500 Du        
  11287 ****        14.5000  12.7500  14.0000 Du        
  11288 ****        14.5000  13.0000  13.2500 Du        
  11289 ****        14.5000  13.0000  13.5000 Du        
  11290 ****        14.5000  13.0000  13.7500 Du        
  11291 ****        14.5000  13.0000  14.0000 Du        
  11292 ****        14.5000  13.2500  13.5000 Du        
  11293 ****        14.5000  15.0000   5.5000 Du        
  11294 ****        14.5000  15.2500   5.2500 Du        
  11295 ****        14.5000  15.2500   5.5000 Du        
  11296 ****        14.5000  15.2500   5.7500 Du        
  11297 ****        14.5000  15.5000   5.0000 Du        
  11298 ****        14.5000  15.5000   5.2500 Du        
  11299 ****        14.5000  15.5000   5.5000 Du        
  11300 ****        14.5000  15.5000   5.7500 Du        
  11301 ****        14.5000  15.7500   4.7500 Du        
  11302 ****        14.5000  15.7500   5.0000 Du        
  11303 ****        14.5000  15.7500   5.2500 Du        
  11304 ****        14.5000  15.7500   5.5000 Du        
  11305 ****        14.5000  15.7500   5.7500 Du        
  11306 ****        14.5000  16.0000   4.5000 Du        
  11307 ****        14.5000  16.0000   4.7500 Du        
  11308 ****        14.5000  16.0000   5.0000 Du        
  11309 ****        14.5000  16.0000   5.2500 Du        
  11310 ****        14.5000  16.0000   5.5000 Du        
  11311 ****        14.5000  16.0000   5.7500 Du        
  11312 ****        14.5000  16.2500   4.5000 Du        
  11313 ****        14.5000  16.2500   4.7500 Du        
  11314 ****        14.5000  16.2500   5.0000 Du        
  11315 ****        14.5000  16.2500   5.2500 Du        
  11316 ****        14.5000  16.2500   5.5000 Du        
  11317 ****        14.5000  16.2500   5.7500 Du        
  11318 ****        14.5000  16.5000   3.7500 Du        
  11319 ****        14.5000  16.5000   4.0000 Du        
  11320 ****        14.5000  16.5000   4.2500 Du        
  11321 ****        14.5000  16.5000   4.5000 Du        
  11322 ****        14.5000  16.5000   4.7500 Du        
  11323 ****        14.5000  16.5000   5.0000 Du        
  11324 ****        14.5000  16.5000   5.2500 Du        
  11325 ****        14.5000  16.5000   5.5000 Du        
  11326 ****        14.5000  16.7500   3.5000 Du        
  11327 ****        14.5000  16.7500   3.7500 Du        
  11328 ****        14.5000  16.7500   4.0000 Du        
  11329 ****        14.5000  16.7500   4.2500 Du        
  11330 ****        14.5000  16.7500   4.5000 Du        
  11331 ****        14.5000  17.0000   3.2500 Du        
  11332 ****        14.5000  17.0000   3.5000 Du        
  11333 ****        14.5000  17.0000   3.7500 Du        
  11334 ****        14.5000  17.0000   4.0000 Du        
  11335 ****        14.5000  17.2500   2.7500 Du        
  11336 ****        14.5000  17.2500   3.0000 Du        
  11337 ****        14.5000  17.2500   3.2500 Du        
  11338 ****        14.5000  17.2500   3.5000 Du        
  11339 ****        14.5000  17.2500   3.7500 Du        
  11340 ****        14.5000  17.5000   2.7500 Du        
  11341 ****        14.5000  17.5000   3.0000 Du        
  11342 ****        14.5000  17.5000   3.2500 Du        
  11343 ****        14.5000  17.5000   3.5000 Du        
  11344 ****        14.5000  17.7500   2.7500 Du        
  11345 ****        14.5000  17.7500   3.0000 Du        
  11346 ****        14.5000  17.7500   3.2500 Du        
  11347 ****        14.5000  18.0000   2.7500 Du        
  11348 ****        14.5000  18.0000   3.0000 Du        
  11349 ****        14.5000  18.2500   2.7500 Du        
  11350 ****        14.5000  19.2500  25.0000 Du        
  11351 ****        14.5000  19.2500  25.2500 Du        
  11352 ****        14.5000  22.0000  15.7500 Du        
  11353 ****        14.5000  22.0000  16.0000 Du        
  11354 ****        14.5000  22.0000  16.2500 Du        
  11355 ****        14.5000  22.2500  15.2500 Du        
  11356 ****        14.5000  22.2500  15.5000 Du        
  11357 ****        14.5000  22.2500  15.7500 Du        
  11358 ****        14.5000  22.2500  16.0000 Du        
  11359 ****        14.5000  22.2500  16.2500 Du        
  11360 ****        14.5000  22.2500  16.5000 Du        
  11361 ****        14.5000  22.2500  16.7500 Du        
  11362 ****        14.5000  22.5000  14.5000 Du        
  11363 ****        14.5000  22.5000  14.7500 Du        
  11364 ****        14.5000  22.5000  15.0000 Du        
  11365 ****        14.5000  22.5000  15.2500 Du        
  11366 ****        14.5000  22.5000  15.5000 Du        
  11367 ****        14.5000  22.5000  15.7500 Du        
  11368 ****        14.5000  22.5000  16.0000 Du        
  11369 ****        14.5000  22.5000  16.2500 Du        
  11370 ****        14.5000  22.5000  16.5000 Du        
  11371 ****        14.5000  22.5000  16.7500 Du        
  11372 ****        14.5000  22.5000  17.0000 Du        
  11373 ****        14.5000  22.7500  14.2500 Du        
  11374 ****        14.5000  22.7500  14.5000 Du        
  11375 ****        14.5000  22.7500  14.7500 Du        
  11376 ****        14.5000  22.7500  15.0000 Du        
  11377 ****        14.5000  22.7500  15.2500 Du        
  11378 ****        14.5000  22.7500  15.5000 Du        
  11379 ****        14.5000  22.7500  15.7500 Du        
  11380 ****        14.5000  22.7500  16.0000 Du        
  11381 ****        14.5000  22.7500  16.2500 Du        
  11382 ****        14.5000  22.7500  16.5000 Du        
  11383 ****        14.5000  22.7500  16.7500 Du        
  11384 ****        14.5000  22.7500  17.0000 Du        
  11385 ****        14.5000  22.7500  17.2500 Du        
  11386 ****        14.5000  23.0000  14.2500 Du        
  11387 ****        14.5000  23.0000  14.5000 Du        
  11388 ****        14.5000  23.0000  14.7500 Du        
  11389 ****        14.5000  23.0000  15.0000 Du        
  11390 ****        14.5000  23.0000  15.2500 Du        
  11391 ****        14.5000  23.0000  15.5000 Du        
  11392 ****        14.5000  23.0000  15.7500 Du        
  11393 ****        14.5000  23.0000  16.0000 Du        
  11394 ****        14.5000  23.0000  16.2500 Du        
  11395 ****        14.5000  23.0000  16.5000 Du        
  11396 ****        14.5000  23.0000  16.7500 Du        
  11397 ****        14.5000  23.0000  17.0000 Du        
  11398 ****        14.5000  23.2500  14.2500 Du        
  11399 ****        14.5000  23.2500  14.5000 Du        
  11400 ****        14.5000  23.2500  14.7500 Du        
  11401 ****        14.5000  23.2500  15.0000 Du        
  11402 ****        14.5000  23.2500  15.2500 Du        
  11403 ****        14.5000  23.2500  15.5000 Du        
  11404 ****        14.5000  23.2500  15.7500 Du        
  11405 ****        14.5000  23.2500  16.0000 Du        
  11406 ****        14.5000  23.2500  16.2500 Du        
  11407 ****        14.5000  23.5000  14.5000 Du        
  11408 ****        14.5000  23.5000  14.7500 Du        
  11409 ****        14.5000  23.5000  15.0000 Du        
  11410 ****        14.5000  23.5000  15.2500 Du        
  11411 ****        14.5000  23.7500  14.5000 Du        
  11412 ****        14.5000  23.7500  14.7500 Du        
  11413 ****        14.5000  23.7500  15.0000 Du        
  11414 ****        14.5000  23.7500  15.2500 Du        
  11415 ****        14.5000  24.0000  14.5000 Du        
  11416 ****        14.5000  24.0000  14.7500 Du        
  11417 ****        14.5000  24.0000  15.0000 Du        
  11418 ****        14.5000  24.0000  15.2500 Du        
  11419 ****        14.5000  24.2500  14.5000 Du        
  11420 ****        14.5000  24.2500  14.7500 Du        
  11421 ****        14.5000  24.2500  15.0000 Du        
  11422 ****        14.5000  27.5000  13.0000 Du        
  11423 ****        14.5000  27.5000  13.2500 Du        
  11424 ****        14.5000  27.7500  12.7500 Du        
  11425 ****        14.5000  27.7500  13.0000 Du        
  11426 ****        14.5000  32.5000  11.0000 Du        
  11427 ****        14.5000  32.7500  10.7500 Du        
  11428 ****        14.5000  32.7500  11.0000 Du        
  11429 ****        14.5000  32.7500  11.2500 Du        
  11430 ****        14.5000  33.0000  10.5000 Du        
  11431 ****        14.5000  33.0000  10.7500 Du        
  11432 ****        14.5000  33.0000  11.0000 Du        
  11433 ****        14.5000  33.0000  11.2500 Du        
  11434 ****        14.5000  33.0000  11.5000 Du        
  11435 ****        14.5000  33.2500  10.5000 Du        
  11436 ****        14.5000  33.2500  10.7500 Du        
  11437 ****        14.5000  33.2500  11.0000 Du        
  11438 ****        14.5000  33.2500  11.2500 Du        
  11439 ****        14.5000  33.2500  11.5000 Du        
  11440 ****        14.5000  33.5000  10.5000 Du        
  11441 ****        14.5000  33.5000  10.7500 Du        
  11442 ****        14.5000  33.5000  11.0000 Du        
  11443 ****        14.5000  33.5000  11.2500 Du        
  11444 ****        14.5000  33.5000  11.5000 Du        
  11445 ****        14.5000  33.5000  11.7500 Du        
  11446 ****        14.5000  33.7500  10.7500 Du        
  11447 ****        14.5000  33.7500  11.0000 Du        
  11448 ****        14.5000  33.7500  11.2500 Du        
  11449 ****        14.5000  33.7500  11.5000 Du        
  11450 ****        14.5000  33.7500  11.7500 Du        
  11451 ****        14.5000  34.0000  11.2500 Du        
  11452 ****        14.5000  34.0000  11.5000 Du        
  11453 ****        14.7500  12.2500  13.5000 Du        
  11454 ****        14.7500  12.2500  13.7500 Du        
  11455 ****        14.7500  12.2500  14.0000 Du        
  11456 ****        14.7500  12.2500  14.2500 Du        
  11457 ****        14.7500  12.5000  13.2500 Du        
  11458 ****        14.7500  12.5000  13.5000 Du        
  11459 ****        14.7500  12.5000  13.7500 Du        
  11460 ****        14.7500  12.5000  14.0000 Du        
  11461 ****        14.7500  12.5000  14.2500 Du        
  11462 ****        14.7500  12.7500  13.0000 Du        
  11463 ****        14.7500  12.7500  13.2500 Du        
  11464 ****        14.7500  12.7500  13.5000 Du        
  11465 ****        14.7500  12.7500  13.7500 Du        
  11466 ****        14.7500  12.7500  14.0000 Du        
  11467 ****        14.7500  12.7500  14.2500 Du        
  11468 ****        14.7500  12.7500  14.5000 Du        
  11469 ****        14.7500  13.0000  13.0000 Du        
  11470 ****        14.7500  13.0000  13.2500 Du        
  11471 ****        14.7500  13.0000  13.5000 Du        
  11472 ****        14.7500  13.0000  13.7500 Du        
  11473 ****        14.7500  13.0000  14.0000 Du        
  11474 ****        14.7500  13.0000  14.2500 Du        
  11475 ****        14.7500  13.0000  14.5000 Du        
  11476 ****        14.7500  13.2500  13.2500 Du        
  11477 ****        14.7500  13.2500  13.5000 Du        
  11478 ****        14.7500  13.2500  13.7500 Du        
  11479 ****        14.7500  13.2500  14.0000 Du        
  11480 ****        14.7500  13.2500  14.2500 Du        
  11481 ****        14.7500  13.5000  13.2500 Du        
  11482 ****        14.7500  13.5000  13.5000 Du        
  11483 ****        14.7500  13.5000  13.7500 Du        
  11484 ****        14.7500  13.5000  14.0000 Du        
  11485 ****        14.7500  13.5000  14.2500 Du        
  11486 ****        14.7500  13.7500  13.5000 Du        
  11487 ****        14.7500  13.7500  13.7500 Du        
  11488 ****        14.7500  13.7500  14.0000 Du        
  11489 ****        14.7500  15.0000   5.5000 Du        
  11490 ****        14.7500  15.2500   5.0000 Du        
  11491 ****        14.7500  15.2500   5.2500 Du        
  11492 ****        14.7500  15.2500   5.5000 Du        
  11493 ****        14.7500  15.5000   5.0000 Du        
  11494 ****        14.7500  15.5000   5.2500 Du        
  11495 ****        14.7500  15.5000   5.5000 Du        
  11496 ****        14.7500  15.7500   4.7500 Du        
  11497 ****        14.7500  15.7500   5.0000 Du        
  11498 ****        14.7500  15.7500   5.2500 Du        
  11499 ****        14.7500  15.7500   5.5000 Du        
  11500 ****        14.7500  15.7500   5.7500 Du        
  11501 ****        14.7500  16.0000   4.5000 Du        
  11502 ****        14.7500  16.0000   4.7500 Du        
  11503 ****        14.7500  16.0000   5.0000 Du        
  11504 ****        14.7500  16.0000   5.2500 Du        
  11505 ****        14.7500  16.0000   5.5000 Du        
  11506 ****        14.7500  16.0000   5.7500 Du        
  11507 ****        14.7500  16.2500   4.2500 Du        
  11508 ****        14.7500  16.2500   4.5000 Du        
  11509 ****        14.7500  16.2500   4.7500 Du        
  11510 ****        14.7500  16.2500   5.0000 Du        
  11511 ****        14.7500  16.2500   5.2500 Du        
  11512 ****        14.7500  16.2500   5.5000 Du        
  11513 ****        14.7500  16.2500   5.7500 Du        
  11514 ****        14.7500  16.5000   3.7500 Du        
  11515 ****        14.7500  16.5000   4.0000 Du        
  11516 ****        14.7500  16.5000   4.2500 Du        
  11517 ****        14.7500  16.5000   4.5000 Du        
  11518 ****        14.7500  16.5000   4.7500 Du        
  11519 ****        14.7500  16.5000   5.0000 Du        
  11520 ****        14.7500  16.5000   5.2500 Du        
  11521 ****        14.7500  16.5000   5.5000 Du        
  11522 ****        14.7500  16.7500   3.5000 Du        
  11523 ****        14.7500  16.7500   3.7500 Du        
  11524 ****        14.7500  16.7500   4.0000 Du        
  11525 ****        14.7500  16.7500   4.2500 Du        
  11526 ****        14.7500  16.7500   4.5000 Du        
  11527 ****        14.7500  16.7500   4.7500 Du        
  11528 ****        14.7500  16.7500   5.0000 Du        
  11529 ****        14.7500  17.0000   3.2500 Du        
  11530 ****        14.7500  17.0000   3.5000 Du        
  11531 ****        14.7500  17.0000   3.7500 Du        
  11532 ****        14.7500  17.0000   4.0000 Du        
  11533 ****        14.7500  17.2500   3.2500 Du        
  11534 ****        14.7500  17.2500   3.5000 Du        
  11535 ****        14.7500  17.2500   3.7500 Du        
  11536 ****        14.7500  17.5000   3.2500 Du        
  11537 ****        14.7500  17.5000   3.5000 Du        
  11538 ****        14.7500  17.7500   2.7500 Du        
  11539 ****        14.7500  17.7500   3.0000 Du        
  11540 ****        14.7500  17.7500   3.2500 Du        
  11541 ****        14.7500  17.7500   3.5000 Du        
  11542 ****        14.7500  18.0000   2.7500 Du        
  11543 ****        14.7500  18.0000   3.0000 Du        
  11544 ****        14.7500  18.0000   3.2500 Du        
  11545 ****        14.7500  18.2500   2.7500 Du        
  11546 ****        14.7500  18.2500   3.0000 Du        
  11547 ****        14.7500  19.0000  25.0000 Du        
  11548 ****        14.7500  19.0000  25.2500 Du        
  11549 ****        14.7500  19.0000  25.5000 Du        
  11550 ****        14.7500  19.2500  25.0000 Du        
  11551 ****        14.7500  19.2500  25.2500 Du        
  11552 ****        14.7500  19.2500  25.5000 Du        
  11553 ****        14.7500  19.5000  25.0000 Du        
  11554 ****        14.7500  19.5000  25.2500 Du        
  11555 ****        14.7500  19.7500  25.0000 Du        
  11556 ****        14.7500  19.7500  25.2500 Du        
  11557 ****        14.7500  20.0000  25.0000 Du        
  11558 ****        14.7500  20.0000  25.2500 Du        
  11559 ****        14.7500  21.7500  16.2500 Du        
  11560 ****        14.7500  22.0000  15.7500 Du        
  11561 ****        14.7500  22.0000  16.0000 Du        
  11562 ****        14.7500  22.0000  16.2500 Du        
  11563 ****        14.7500  22.0000  16.5000 Du        
  11564 ****        14.7500  22.0000  16.7500 Du        
  11565 ****        14.7500  22.2500  15.2500 Du        
  11566 ****        14.7500  22.2500  15.5000 Du        
  11567 ****        14.7500  22.2500  15.7500 Du        
  11568 ****        14.7500  22.2500  16.0000 Du        
  11569 ****        14.7500  22.2500  16.2500 Du        
  11570 ****        14.7500  22.2500  16.5000 Du        
  11571 ****        14.7500  22.2500  16.7500 Du        
  11572 ****        14.7500  22.2500  17.0000 Du        
  11573 ****        14.7500  22.5000  14.7500 Du        
  11574 ****        14.7500  22.5000  15.0000 Du        
  11575 ****        14.7500  22.5000  15.2500 Du        
  11576 ****        14.7500  22.5000  15.5000 Du        
  11577 ****        14.7500  22.5000  15.7500 Du        
  11578 ****        14.7500  22.5000  16.0000 Du        
  11579 ****        14.7500  22.5000  16.2500 Du        
  11580 ****        14.7500  22.5000  16.5000 Du        
  11581 ****        14.7500  22.5000  16.7500 Du        
  11582 ****        14.7500  22.5000  17.0000 Du        
  11583 ****        14.7500  22.5000  17.2500 Du        
  11584 ****        14.7500  22.7500  14.5000 Du        
  11585 ****        14.7500  22.7500  14.7500 Du        
  11586 ****        14.7500  22.7500  15.0000 Du        
  11587 ****        14.7500  22.7500  15.2500 Du        
  11588 ****        14.7500  22.7500  15.5000 Du        
  11589 ****        14.7500  22.7500  15.7500 Du        
  11590 ****        14.7500  22.7500  16.0000 Du        
  11591 ****        14.7500  22.7500  16.2500 Du        
  11592 ****        14.7500  22.7500  16.5000 Du        
  11593 ****        14.7500  22.7500  16.7500 Du        
  11594 ****        14.7500  22.7500  17.0000 Du        
  11595 ****        14.7500  22.7500  17.2500 Du        
  11596 ****        14.7500  23.0000  14.5000 Du        
  11597 ****        14.7500  23.0000  14.7500 Du        
  11598 ****        14.7500  23.0000  15.0000 Du        
  11599 ****        14.7500  23.0000  15.2500 Du        
  11600 ****        14.7500  23.0000  15.5000 Du        
  11601 ****        14.7500  23.0000  15.7500 Du        
  11602 ****        14.7500  23.0000  16.0000 Du        
  11603 ****        14.7500  23.0000  16.2500 Du        
  11604 ****        14.7500  23.0000  16.5000 Du        
  11605 ****        14.7500  23.0000  16.7500 Du        
  11606 ****        14.7500  23.0000  17.0000 Du        
  11607 ****        14.7500  23.0000  17.2500 Du        
  11608 ****        14.7500  23.2500  14.5000 Du        
  11609 ****        14.7500  23.2500  14.7500 Du        
  11610 ****        14.7500  23.2500  15.0000 Du        
  11611 ****        14.7500  23.2500  15.2500 Du        
  11612 ****        14.7500  23.2500  15.5000 Du        
  11613 ****        14.7500  23.2500  15.7500 Du        
  11614 ****        14.7500  23.2500  16.0000 Du        
  11615 ****        14.7500  23.2500  16.2500 Du        
  11616 ****        14.7500  23.2500  16.5000 Du        
  11617 ****        14.7500  23.2500  16.7500 Du        
  11618 ****        14.7500  23.5000  14.5000 Du        
  11619 ****        14.7500  23.5000  14.7500 Du        
  11620 ****        14.7500  23.5000  15.0000 Du        
  11621 ****        14.7500  23.5000  15.2500 Du        
  11622 ****        14.7500  23.7500  14.5000 Du        
  11623 ****        14.7500  23.7500  14.7500 Du        
  11624 ****        14.7500  23.7500  15.0000 Du        
  11625 ****        14.7500  23.7500  15.2500 Du        
  11626 ****        14.7500  24.0000  14.7500 Du        
  11627 ****        14.7500  24.0000  15.0000 Du        
  11628 ****        14.7500  24.0000  15.2500 Du        
  11629 ****        14.7500  24.2500  14.7500 Du        
  11630 ****        14.7500  24.2500  15.0000 Du        
  11631 ****        14.7500  27.5000  13.2500 Du        
  11632 ****        14.7500  27.7500  12.5000 Du        
  11633 ****        14.7500  27.7500  12.7500 Du        
  11634 ****        14.7500  27.7500  13.0000 Du        
  11635 ****        14.7500  27.7500  13.2500 Du        
  11636 ****        14.7500  28.0000  12.2500 Du        
  11637 ****        14.7500  28.0000  12.5000 Du        
  11638 ****        14.7500  28.0000  12.7500 Du        
  11639 ****        14.7500  28.0000  13.0000 Du        
  11640 ****        14.7500  32.0000  11.0000 Du        
  11641 ****        14.7500  32.2500  11.0000 Du        
  11642 ****        14.7500  32.2500  11.2500 Du        
  11643 ****        14.7500  32.5000  10.7500 Du        
  11644 ****        14.7500  32.5000  11.0000 Du        
  11645 ****        14.7500  32.5000  11.2500 Du        
  11646 ****        14.7500  32.7500  10.5000 Du        
  11647 ****        14.7500  32.7500  10.7500 Du        
  11648 ****        14.7500  32.7500  11.0000 Du        
  11649 ****        14.7500  32.7500  11.2500 Du        
  11650 ****        14.7500  32.7500  11.5000 Du        
  11651 ****        14.7500  33.0000  10.5000 Du        
  11652 ****        14.7500  33.0000  10.7500 Du        
  11653 ****        14.7500  33.0000  11.0000 Du        
  11654 ****        14.7500  33.0000  11.2500 Du        
  11655 ****        14.7500  33.0000  11.5000 Du        
  11656 ****        14.7500  33.2500  10.2500 Du        
  11657 ****        14.7500  33.2500  10.5000 Du        
  11658 ****        14.7500  33.2500  10.7500 Du        
  11659 ****        14.7500  33.2500  11.0000 Du        
  11660 ****        14.7500  33.2500  11.2500 Du        
  11661 ****        14.7500  33.2500  11.5000 Du        
  11662 ****        14.7500  33.2500  11.7500 Du        
  11663 ****        14.7500  33.5000  10.5000 Du        
  11664 ****        14.7500  33.5000  10.7500 Du        
  11665 ****        14.7500  33.5000  11.0000 Du        
  11666 ****        14.7500  33.5000  11.2500 Du        
  11667 ****        14.7500  33.5000  11.5000 Du        
  11668 ****        14.7500  33.5000  11.7500 Du        
  11669 ****        14.7500  33.7500  10.5000 Du        
  11670 ****        14.7500  33.7500  10.7500 Du        
  11671 ****        14.7500  33.7500  11.0000 Du        
  11672 ****        14.7500  33.7500  11.2500 Du        
  11673 ****        14.7500  33.7500  11.5000 Du        
  11674 ****        14.7500  33.7500  11.7500 Du        
  11675 ****        14.7500  34.0000  11.0000 Du        
  11676 ****        14.7500  34.0000  11.2500 Du        
  11677 ****        14.7500  34.0000  11.5000 Du        
  11678 ****        14.7500  34.0000  11.7500 Du        
  11679 ****        15.0000  12.2500  14.0000 Du        
  11680 ****        15.0000  12.5000  13.2500 Du        
  11681 ****        15.0000  12.5000  13.5000 Du        
  11682 ****        15.0000  12.5000  13.7500 Du        
  11683 ****        15.0000  12.5000  14.0000 Du        
  11684 ****        15.0000  12.5000  14.2500 Du        
  11685 ****        15.0000  12.7500  13.0000 Du        
  11686 ****        15.0000  12.7500  13.2500 Du        
  11687 ****        15.0000  12.7500  13.5000 Du        
  11688 ****        15.0000  12.7500  13.7500 Du        
  11689 ****        15.0000  12.7500  14.0000 Du        
  11690 ****        15.0000  12.7500  14.2500 Du        
  11691 ****        15.0000  12.7500  14.5000 Du        
  11692 ****        15.0000  12.7500  14.7500 Du        
  11693 ****        15.0000  13.0000  13.0000 Du        
  11694 ****        15.0000  13.0000  13.2500 Du        
  11695 ****        15.0000  13.0000  13.5000 Du        
  11696 ****        15.0000  13.0000  13.7500 Du        
  11697 ****        15.0000  13.0000  14.0000 Du        
  11698 ****        15.0000  13.0000  14.2500 Du        
  11699 ****        15.0000  13.0000  14.5000 Du        
  11700 ****        15.0000  13.0000  14.7500 Du        
  11701 ****        15.0000  13.0000  15.0000 Du        
  11702 ****        15.0000  13.2500  13.2500 Du        
  11703 ****        15.0000  13.2500  13.5000 Du        
  11704 ****        15.0000  13.2500  13.7500 Du        
  11705 ****        15.0000  13.2500  14.0000 Du        
  11706 ****        15.0000  13.2500  14.2500 Du        
  11707 ****        15.0000  13.2500  14.5000 Du        
  11708 ****        15.0000  13.2500  14.7500 Du        
  11709 ****        15.0000  13.5000  13.2500 Du        
  11710 ****        15.0000  13.5000  13.5000 Du        
  11711 ****        15.0000  13.5000  13.7500 Du        
  11712 ****        15.0000  13.5000  14.0000 Du        
  11713 ****        15.0000  13.5000  14.2500 Du        
  11714 ****        15.0000  13.5000  14.5000 Du        
  11715 ****        15.0000  13.5000  14.7500 Du        
  11716 ****        15.0000  13.7500  13.2500 Du        
  11717 ****        15.0000  13.7500  13.5000 Du        
  11718 ****        15.0000  13.7500  13.7500 Du        
  11719 ****        15.0000  13.7500  14.0000 Du        
  11720 ****        15.0000  13.7500  14.2500 Du        
  11721 ****        15.0000  13.7500  14.5000 Du        
  11722 ****        15.0000  13.7500  14.7500 Du        
  11723 ****        15.0000  14.0000  13.2500 Du        
  11724 ****        15.0000  14.0000  13.5000 Du        
  11725 ****        15.0000  14.0000  13.7500 Du        
  11726 ****        15.0000  14.0000  14.0000 Du        
  11727 ****        15.0000  14.0000  14.2500 Du        
  11728 ****        15.0000  14.2500  13.5000 Du        
  11729 ****        15.0000  14.2500  13.7500 Du        
  11730 ****        15.0000  15.0000   5.2500 Du        
  11731 ****        15.0000  15.2500   5.0000 Du        
  11732 ****        15.0000  15.2500   5.2500 Du        
  11733 ****        15.0000  15.2500   5.5000 Du        
  11734 ****        15.0000  15.5000   4.7500 Du        
  11735 ****        15.0000  15.5000   5.0000 Du        
  11736 ****        15.0000  15.5000   5.2500 Du        
  11737 ****        15.0000  15.5000   5.5000 Du        
  11738 ****        15.0000  15.7500   4.5000 Du        
  11739 ****        15.0000  15.7500   4.7500 Du        
  11740 ****        15.0000  15.7500   5.0000 Du        
  11741 ****        15.0000  15.7500   5.2500 Du        
  11742 ****        15.0000  15.7500   5.5000 Du        
  11743 ****        15.0000  16.0000   4.5000 Du        
  11744 ****        15.0000  16.0000   4.7500 Du        
  11745 ****        15.0000  16.0000   5.0000 Du        
  11746 ****        15.0000  16.0000   5.2500 Du        
  11747 ****        15.0000  16.0000   5.5000 Du        
  11748 ****        15.0000  16.0000   5.7500 Du        
  11749 ****        15.0000  16.2500   4.2500 Du        
  11750 ****        15.0000  16.2500   4.5000 Du        
  11751 ****        15.0000  16.2500   4.7500 Du        
  11752 ****        15.0000  16.2500   5.0000 Du        
  11753 ****        15.0000  16.2500   5.2500 Du        
  11754 ****        15.0000  16.2500   5.5000 Du        
  11755 ****        15.0000  16.2500   5.7500 Du        
  11756 ****        15.0000  16.5000   3.7500 Du        
  11757 ****        15.0000  16.5000   4.0000 Du        
  11758 ****        15.0000  16.5000   4.2500 Du        
  11759 ****        15.0000  16.5000   4.5000 Du        
  11760 ****        15.0000  16.5000   4.7500 Du        
  11761 ****        15.0000  16.5000   5.0000 Du        
  11762 ****        15.0000  16.5000   5.2500 Du        
  11763 ****        15.0000  16.5000   5.5000 Du        
  11764 ****        15.0000  16.7500   3.2500 Du        
  11765 ****        15.0000  16.7500   3.5000 Du        
  11766 ****        15.0000  16.7500   3.7500 Du        
  11767 ****        15.0000  16.7500   4.0000 Du        
  11768 ****        15.0000  16.7500   4.2500 Du        
  11769 ****        15.0000  16.7500   4.5000 Du        
  11770 ****        15.0000  16.7500   4.7500 Du        
  11771 ****        15.0000  16.7500   5.0000 Du        
  11772 ****        15.0000  17.0000   3.2500 Du        
  11773 ****        15.0000  17.0000   3.5000 Du        
  11774 ****        15.0000  17.0000   3.7500 Du        
  11775 ****        15.0000  17.0000   4.0000 Du        
  11776 ****        15.0000  17.0000   4.2500 Du        
  11777 ****        15.0000  17.2500   3.2500 Du        
  11778 ****        15.0000  17.2500   3.5000 Du        
  11779 ****        15.0000  17.2500   3.7500 Du        
  11780 ****        15.0000  17.2500   4.0000 Du        
  11781 ****        15.0000  17.5000   3.2500 Du        
  11782 ****        15.0000  17.5000   3.5000 Du        
  11783 ****        15.0000  17.5000   3.7500 Du        
  11784 ****        15.0000  17.7500   2.7500 Du        
  11785 ****        15.0000  17.7500   3.0000 Du        
  11786 ****        15.0000  17.7500   3.2500 Du        
  11787 ****        15.0000  17.7500   3.5000 Du        
  11788 ****        15.0000  18.0000   2.7500 Du        
  11789 ****        15.0000  18.0000   3.0000 Du        
  11790 ****        15.0000  18.0000   3.2500 Du        
  11791 ****        15.0000  18.2500   2.7500 Du        
  11792 ****        15.0000  18.2500   3.0000 Du        
  11793 ****        15.0000  19.0000  25.2500 Du        
  11794 ****        15.0000  19.2500  25.0000 Du        
  11795 ****        15.0000  19.2500  25.2500 Du        
  11796 ****        15.0000  19.2500  25.5000 Du        
  11797 ****        15.0000  19.2500  25.7500 Du        
  11798 ****        15.0000  19.5000  25.0000 Du        
  11799 ****        15.0000  19.5000  25.2500 Du        
  11800 ****        15.0000  19.5000  25.5000 Du        
  11801 ****        15.0000  19.7500  25.0000 Du        
  11802 ****        15.0000  19.7500  25.2500 Du        
  11803 ****        15.0000  19.7500  25.5000 Du        
  11804 ****        15.0000  20.0000  25.0000 Du        
  11805 ****        15.0000  20.0000  25.2500 Du        
  11806 ****        15.0000  20.2500  25.0000 Du        
  11807 ****        15.0000  20.2500  25.2500 Du        
  11808 ****        15.0000  21.7500  16.0000 Du        
  11809 ****        15.0000  21.7500  16.2500 Du        
  11810 ****        15.0000  21.7500  16.5000 Du        
  11811 ****        15.0000  21.7500  16.7500 Du        
  11812 ****        15.0000  22.0000  15.7500 Du        
  11813 ****        15.0000  22.0000  16.0000 Du        
  11814 ****        15.0000  22.0000  16.2500 Du        
  11815 ****        15.0000  22.0000  16.5000 Du        
  11816 ****        15.0000  22.0000  16.7500 Du        
  11817 ****        15.0000  22.0000  17.0000 Du        
  11818 ****        15.0000  22.2500  15.2500 Du        
  11819 ****        15.0000  22.2500  15.5000 Du        
  11820 ****        15.0000  22.2500  15.7500 Du        
  11821 ****        15.0000  22.2500  16.0000 Du        
  11822 ****        15.0000  22.2500  16.2500 Du        
  11823 ****        15.0000  22.2500  16.5000 Du        
  11824 ****        15.0000  22.2500  16.7500 Du        
  11825 ****        15.0000  22.2500  17.0000 Du        
  11826 ****        15.0000  22.2500  17.2500 Du        
  11827 ****        15.0000  22.5000  15.0000 Du        
  11828 ****        15.0000  22.5000  15.2500 Du        
  11829 ****        15.0000  22.5000  15.5000 Du        
  11830 ****        15.0000  22.5000  15.7500 Du        
  11831 ****        15.0000  22.5000  16.0000 Du        
  11832 ****        15.0000  22.5000  16.2500 Du        
  11833 ****        15.0000  22.5000  16.5000 Du        
  11834 ****        15.0000  22.5000  16.7500 Du        
  11835 ****        15.0000  22.5000  17.0000 Du        
  11836 ****        15.0000  22.5000  17.2500 Du        
  11837 ****        15.0000  22.7500  14.7500 Du        
  11838 ****        15.0000  22.7500  15.0000 Du        
  11839 ****        15.0000  22.7500  15.2500 Du        
  11840 ****        15.0000  22.7500  15.5000 Du        
  11841 ****        15.0000  22.7500  15.7500 Du        
  11842 ****        15.0000  22.7500  16.0000 Du        
  11843 ****        15.0000  22.7500  16.2500 Du        
  11844 ****        15.0000  22.7500  16.5000 Du        
  11845 ****        15.0000  22.7500  16.7500 Du        
  11846 ****        15.0000  22.7500  17.0000 Du        
  11847 ****        15.0000  22.7500  17.2500 Du        
  11848 ****        15.0000  23.0000  14.7500 Du        
  11849 ****        15.0000  23.0000  15.0000 Du        
  11850 ****        15.0000  23.0000  15.2500 Du        
  11851 ****        15.0000  23.0000  15.5000 Du        
  11852 ****        15.0000  23.0000  15.7500 Du        
  11853 ****        15.0000  23.0000  16.0000 Du        
  11854 ****        15.0000  23.0000  16.2500 Du        
  11855 ****        15.0000  23.0000  16.5000 Du        
  11856 ****        15.0000  23.0000  16.7500 Du        
  11857 ****        15.0000  23.0000  17.0000 Du        
  11858 ****        15.0000  23.0000  17.2500 Du        
  11859 ****        15.0000  23.2500  14.7500 Du        
  11860 ****        15.0000  23.2500  15.0000 Du        
  11861 ****        15.0000  23.2500  15.2500 Du        
  11862 ****        15.0000  23.2500  15.5000 Du        
  11863 ****        15.0000  23.2500  15.7500 Du        
  11864 ****        15.0000  23.2500  16.0000 Du        
  11865 ****        15.0000  23.2500  16.2500 Du        
  11866 ****        15.0000  23.2500  16.5000 Du        
  11867 ****        15.0000  23.2500  16.7500 Du        
  11868 ****        15.0000  23.2500  17.0000 Du        
  11869 ****        15.0000  23.5000  14.7500 Du        
  11870 ****        15.0000  23.5000  15.0000 Du        
  11871 ****        15.0000  23.5000  15.2500 Du        
  11872 ****        15.0000  23.7500  14.7500 Du        
  11873 ****        15.0000  23.7500  15.0000 Du        
  11874 ****        15.0000  23.7500  15.2500 Du        
  11875 ****        15.0000  24.0000  15.0000 Du        
  11876 ****        15.0000  27.5000  13.2500 Du        
  11877 ****        15.0000  27.7500  12.5000 Du        
  11878 ****        15.0000  27.7500  12.7500 Du        
  11879 ****        15.0000  27.7500  13.0000 Du        
  11880 ****        15.0000  27.7500  13.2500 Du        
  11881 ****        15.0000  28.0000  12.2500 Du        
  11882 ****        15.0000  28.0000  12.5000 Du        
  11883 ****        15.0000  28.0000  12.7500 Du        
  11884 ****        15.0000  28.0000  13.0000 Du        
  11885 ****        15.0000  28.2500  12.0000 Du        
  11886 ****        15.0000  28.2500  12.2500 Du        
  11887 ****        15.0000  28.2500  12.5000 Du        
  11888 ****        15.0000  31.7500  11.0000 Du        
  11889 ****        15.0000  31.7500  11.2500 Du        
  11890 ****        15.0000  32.0000  10.7500 Du        
  11891 ****        15.0000  32.0000  11.0000 Du        
  11892 ****        15.0000  32.0000  11.2500 Du        
  11893 ****        15.0000  32.2500  10.7500 Du        
  11894 ****        15.0000  32.2500  11.0000 Du        
  11895 ****        15.0000  32.2500  11.2500 Du        
  11896 ****        15.0000  32.5000  10.7500 Du        
  11897 ****        15.0000  32.5000  11.0000 Du        
  11898 ****        15.0000  32.5000  11.2500 Du        
  11899 ****        15.0000  32.5000  11.5000 Du        
  11900 ****        15.0000  32.7500  10.5000 Du        
  11901 ****        15.0000  32.7500  10.7500 Du        
  11902 ****        15.0000  32.7500  11.0000 Du        
  11903 ****        15.0000  32.7500  11.2500 Du        
  11904 ****        15.0000  32.7500  11.5000 Du        
  11905 ****        15.0000  33.0000  10.2500 Du        
  11906 ****        15.0000  33.0000  10.5000 Du        
  11907 ****        15.0000  33.0000  10.7500 Du        
  11908 ****        15.0000  33.0000  11.0000 Du        
  11909 ****        15.0000  33.0000  11.2500 Du        
  11910 ****        15.0000  33.0000  11.5000 Du        
  11911 ****        15.0000  33.0000  11.7500 Du        
  11912 ****        15.0000  33.2500  10.2500 Du        
  11913 ****        15.0000  33.2500  10.5000 Du        
  11914 ****        15.0000  33.2500  10.7500 Du        
  11915 ****        15.0000  33.2500  11.0000 Du        
  11916 ****        15.0000  33.2500  11.2500 Du        
  11917 ****        15.0000  33.2500  11.5000 Du        
  11918 ****        15.0000  33.2500  11.7500 Du        
  11919 ****        15.0000  33.5000  10.2500 Du        
  11920 ****        15.0000  33.5000  10.5000 Du        
  11921 ****        15.0000  33.5000  10.7500 Du        
  11922 ****        15.0000  33.5000  11.0000 Du        
  11923 ****        15.0000  33.5000  11.2500 Du        
  11924 ****        15.0000  33.5000  11.5000 Du        
  11925 ****        15.0000  33.5000  11.7500 Du        
  11926 ****        15.0000  33.5000  12.0000 Du        
  11927 ****        15.0000  33.7500  10.2500 Du        
  11928 ****        15.0000  33.7500  10.5000 Du        
  11929 ****        15.0000  33.7500  10.7500 Du        
  11930 ****        15.0000  33.7500  11.0000 Du        
  11931 ****        15.0000  33.7500  11.2500 Du        
  11932 ****        15.0000  33.7500  11.5000 Du        
  11933 ****        15.0000  33.7500  11.7500 Du        
  11934 ****        15.0000  33.7500  12.0000 Du        
  11935 ****        15.0000  34.0000  11.2500 Du        
  11936 ****        15.0000  34.0000  11.5000 Du        
  11937 ****        15.0000  34.0000  11.7500 Du        
  11938 ****        15.0000  34.0000  12.0000 Du        
  11939 ****        15.2500  12.5000  13.2500 Du        
  11940 ****        15.2500  12.5000  13.5000 Du        
  11941 ****        15.2500  12.5000  13.7500 Du        
  11942 ****        15.2500  12.5000  14.0000 Du        
  11943 ****        15.2500  12.5000  14.2500 Du        
  11944 ****        15.2500  12.5000  14.5000 Du        
  11945 ****        15.2500  12.7500  13.2500 Du        
  11946 ****        15.2500  12.7500  13.5000 Du        
  11947 ****        15.2500  12.7500  13.7500 Du        
  11948 ****        15.2500  12.7500  14.0000 Du        
  11949 ****        15.2500  12.7500  14.2500 Du        
  11950 ****        15.2500  12.7500  14.5000 Du        
  11951 ****        15.2500  12.7500  14.7500 Du        
  11952 ****        15.2500  13.0000  13.2500 Du        
  11953 ****        15.2500  13.0000  13.5000 Du        
  11954 ****        15.2500  13.0000  13.7500 Du        
  11955 ****        15.2500  13.0000  14.0000 Du        
  11956 ****        15.2500  13.0000  14.2500 Du        
  11957 ****        15.2500  13.0000  14.5000 Du        
  11958 ****        15.2500  13.0000  14.7500 Du        
  11959 ****        15.2500  13.0000  15.0000 Du        
  11960 ****        15.2500  13.0000  15.2500 Du        
  11961 ****        15.2500  13.2500  13.2500 Du        
  11962 ****        15.2500  13.2500  13.5000 Du        
  11963 ****        15.2500  13.2500  13.7500 Du        
  11964 ****        15.2500  13.2500  14.0000 Du        
  11965 ****        15.2500  13.2500  14.2500 Du        
  11966 ****        15.2500  13.2500  14.5000 Du        
  11967 ****        15.2500  13.2500  14.7500 Du        
  11968 ****        15.2500  13.2500  15.0000 Du        
  11969 ****        15.2500  13.2500  15.2500 Du        
  11970 ****        15.2500  13.5000  13.2500 Du        
  11971 ****        15.2500  13.5000  13.5000 Du        
  11972 ****        15.2500  13.5000  13.7500 Du        
  11973 ****        15.2500  13.5000  14.0000 Du        
  11974 ****        15.2500  13.5000  14.2500 Du        
  11975 ****        15.2500  13.5000  14.5000 Du        
  11976 ****        15.2500  13.5000  14.7500 Du        
  11977 ****        15.2500  13.5000  15.0000 Du        
  11978 ****        15.2500  13.5000  15.2500 Du        
  11979 ****        15.2500  13.7500  13.2500 Du        
  11980 ****        15.2500  13.7500  13.5000 Du        
  11981 ****        15.2500  13.7500  13.7500 Du        
  11982 ****        15.2500  13.7500  14.0000 Du        
  11983 ****        15.2500  13.7500  14.2500 Du        
  11984 ****        15.2500  13.7500  14.5000 Du        
  11985 ****        15.2500  13.7500  14.7500 Du        
  11986 ****        15.2500  13.7500  15.0000 Du        
  11987 ****        15.2500  14.0000  13.2500 Du        
  11988 ****        15.2500  14.0000  13.5000 Du        
  11989 ****        15.2500  14.0000  13.7500 Du        
  11990 ****        15.2500  14.0000  14.0000 Du        
  11991 ****        15.2500  14.0000  14.2500 Du        
  11992 ****        15.2500  14.0000  14.5000 Du        
  11993 ****        15.2500  14.2500  13.2500 Du        
  11994 ****        15.2500  14.2500  13.5000 Du        
  11995 ****        15.2500  14.2500  13.7500 Du        
  11996 ****        15.2500  15.0000   5.2500 Du        
  11997 ****        15.2500  15.2500   5.0000 Du        
  11998 ****        15.2500  15.2500   5.2500 Du        
  11999 ****        15.2500  15.2500   5.5000 Du        
  12000 ****        15.2500  15.5000   4.7500 Du        
  12001 ****        15.2500  15.5000   5.0000 Du        
  12002 ****        15.2500  15.5000   5.2500 Du        
  12003 ****        15.2500  15.5000   5.5000 Du        
  12004 ****        15.2500  15.7500   4.7500 Du        
  12005 ****        15.2500  15.7500   5.0000 Du        
  12006 ****        15.2500  15.7500   5.2500 Du        
  12007 ****        15.2500  15.7500   5.5000 Du        
  12008 ****        15.2500  16.0000   4.5000 Du        
  12009 ****        15.2500  16.0000   4.7500 Du        
  12010 ****        15.2500  16.0000   5.0000 Du        
  12011 ****        15.2500  16.0000   5.2500 Du        
  12012 ****        15.2500  16.0000   5.5000 Du        
  12013 ****        15.2500  16.2500   4.2500 Du        
  12014 ****        15.2500  16.2500   4.5000 Du        
  12015 ****        15.2500  16.2500   4.7500 Du        
  12016 ****        15.2500  16.2500   5.0000 Du        
  12017 ****        15.2500  16.2500   5.2500 Du        
  12018 ****        15.2500  16.2500   5.5000 Du        
  12019 ****        15.2500  16.5000   3.7500 Du        
  12020 ****        15.2500  16.5000   4.0000 Du        
  12021 ****        15.2500  16.5000   4.2500 Du        
  12022 ****        15.2500  16.5000   4.5000 Du        
  12023 ****        15.2500  16.5000   4.7500 Du        
  12024 ****        15.2500  16.5000   5.0000 Du        
  12025 ****        15.2500  16.5000   5.2500 Du        
  12026 ****        15.2500  16.5000   5.5000 Du        
  12027 ****        15.2500  16.7500   3.2500 Du        
  12028 ****        15.2500  16.7500   3.5000 Du        
  12029 ****        15.2500  16.7500   3.7500 Du        
  12030 ****        15.2500  16.7500   4.0000 Du        
  12031 ****        15.2500  16.7500   4.2500 Du        
  12032 ****        15.2500  16.7500   4.5000 Du        
  12033 ****        15.2500  16.7500   4.7500 Du        
  12034 ****        15.2500  16.7500   5.0000 Du        
  12035 ****        15.2500  17.0000   3.2500 Du        
  12036 ****        15.2500  17.0000   3.5000 Du        
  12037 ****        15.2500  17.0000   3.7500 Du        
  12038 ****        15.2500  17.0000   4.0000 Du        
  12039 ****        15.2500  17.0000   4.2500 Du        
  12040 ****        15.2500  17.0000   4.5000 Du        
  12041 ****        15.2500  17.2500   3.2500 Du        
  12042 ****        15.2500  17.2500   3.5000 Du        
  12043 ****        15.2500  17.2500   3.7500 Du        
  12044 ****        15.2500  17.2500   4.0000 Du        
  12045 ****        15.2500  17.5000   3.2500 Du        
  12046 ****        15.2500  17.5000   3.5000 Du        
  12047 ****        15.2500  17.5000   3.7500 Du        
  12048 ****        15.2500  17.7500   2.7500 Du        
  12049 ****        15.2500  17.7500   3.0000 Du        
  12050 ****        15.2500  17.7500   3.2500 Du        
  12051 ****        15.2500  17.7500   3.5000 Du        
  12052 ****        15.2500  18.0000   2.7500 Du        
  12053 ****        15.2500  18.0000   3.0000 Du        
  12054 ****        15.2500  18.0000   3.2500 Du        
  12055 ****        15.2500  18.2500   2.7500 Du        
  12056 ****        15.2500  18.2500   3.0000 Du        
  12057 ****        15.2500  19.2500  25.2500 Du        
  12058 ****        15.2500  19.2500  25.5000 Du        
  12059 ****        15.2500  19.2500  25.7500 Du        
  12060 ****        15.2500  19.2500  26.0000 Du        
  12061 ****        15.2500  19.5000  25.0000 Du        
  12062 ****        15.2500  19.5000  25.2500 Du        
  12063 ****        15.2500  19.5000  25.5000 Du        
  12064 ****        15.2500  19.7500  25.0000 Du        
  12065 ****        15.2500  19.7500  25.2500 Du        
  12066 ****        15.2500  19.7500  25.5000 Du        
  12067 ****        15.2500  20.0000  25.0000 Du        
  12068 ****        15.2500  20.0000  25.2500 Du        
  12069 ****        15.2500  20.0000  25.5000 Du        
  12070 ****        15.2500  20.2500  25.0000 Du        
  12071 ****        15.2500  20.2500  25.2500 Du        
  12072 ****        15.2500  21.7500  16.0000 Du        
  12073 ****        15.2500  21.7500  16.2500 Du        
  12074 ****        15.2500  21.7500  16.5000 Du        
  12075 ****        15.2500  21.7500  16.7500 Du        
  12076 ****        15.2500  21.7500  17.0000 Du        
  12077 ****        15.2500  22.0000  15.7500 Du        
  12078 ****        15.2500  22.0000  16.0000 Du        
  12079 ****        15.2500  22.0000  16.2500 Du        
  12080 ****        15.2500  22.0000  16.5000 Du        
  12081 ****        15.2500  22.0000  16.7500 Du        
  12082 ****        15.2500  22.0000  17.0000 Du        
  12083 ****        15.2500  22.0000  17.2500 Du        
  12084 ****        15.2500  22.2500  15.5000 Du        
  12085 ****        15.2500  22.2500  15.7500 Du        
  12086 ****        15.2500  22.2500  16.0000 Du        
  12087 ****        15.2500  22.2500  16.2500 Du        
  12088 ****        15.2500  22.2500  16.5000 Du        
  12089 ****        15.2500  22.2500  16.7500 Du        
  12090 ****        15.2500  22.2500  17.0000 Du        
  12091 ****        15.2500  22.2500  17.2500 Du        
  12092 ****        15.2500  22.5000  15.2500 Du        
  12093 ****        15.2500  22.5000  15.5000 Du        
  12094 ****        15.2500  22.5000  15.7500 Du        
  12095 ****        15.2500  22.5000  16.0000 Du        
  12096 ****        15.2500  22.5000  16.2500 Du        
  12097 ****        15.2500  22.5000  16.5000 Du        
  12098 ****        15.2500  22.5000  16.7500 Du        
  12099 ****        15.2500  22.5000  17.0000 Du        
  12100 ****        15.2500  22.5000  17.2500 Du        
  12101 ****        15.2500  22.7500  15.2500 Du        
  12102 ****        15.2500  22.7500  15.5000 Du        
  12103 ****        15.2500  22.7500  15.7500 Du        
  12104 ****        15.2500  22.7500  16.0000 Du        
  12105 ****        15.2500  22.7500  16.2500 Du        
  12106 ****        15.2500  22.7500  16.5000 Du        
  12107 ****        15.2500  22.7500  16.7500 Du        
  12108 ****        15.2500  22.7500  17.0000 Du        
  12109 ****        15.2500  22.7500  17.2500 Du        
  12110 ****        15.2500  23.0000  15.0000 Du        
  12111 ****        15.2500  23.0000  15.2500 Du        
  12112 ****        15.2500  23.0000  15.5000 Du        
  12113 ****        15.2500  23.0000  15.7500 Du        
  12114 ****        15.2500  23.0000  16.0000 Du        
  12115 ****        15.2500  23.0000  16.2500 Du        
  12116 ****        15.2500  23.0000  16.5000 Du        
  12117 ****        15.2500  23.0000  16.7500 Du        
  12118 ****        15.2500  23.0000  17.0000 Du        
  12119 ****        15.2500  23.0000  17.2500 Du        
  12120 ****        15.2500  23.2500  15.2500 Du        
  12121 ****        15.2500  23.2500  15.5000 Du        
  12122 ****        15.2500  23.2500  15.7500 Du        
  12123 ****        15.2500  23.2500  16.0000 Du        
  12124 ****        15.2500  23.2500  16.2500 Du        
  12125 ****        15.2500  23.2500  16.5000 Du        
  12126 ****        15.2500  23.2500  16.7500 Du        
  12127 ****        15.2500  23.2500  17.0000 Du        
  12128 ****        15.2500  28.0000  12.2500 Du        
  12129 ****        15.2500  28.0000  12.5000 Du        
  12130 ****        15.2500  28.0000  12.7500 Du        
  12131 ****        15.2500  28.0000  13.0000 Du        
  12132 ****        15.2500  28.2500  12.0000 Du        
  12133 ****        15.2500  28.2500  12.2500 Du        
  12134 ****        15.2500  31.2500  11.0000 Du        
  12135 ****        15.2500  31.2500  11.2500 Du        
  12136 ****        15.2500  31.5000  11.0000 Du        
  12137 ****        15.2500  31.5000  11.2500 Du        
  12138 ****        15.2500  31.7500  10.7500 Du        
  12139 ****        15.2500  31.7500  11.0000 Du        
  12140 ****        15.2500  31.7500  11.2500 Du        
  12141 ****        15.2500  31.7500  11.5000 Du        
  12142 ****        15.2500  32.0000  10.7500 Du        
  12143 ****        15.2500  32.0000  11.0000 Du        
  12144 ****        15.2500  32.0000  11.2500 Du        
  12145 ****        15.2500  32.0000  11.5000 Du        
  12146 ****        15.2500  32.2500  10.7500 Du        
  12147 ****        15.2500  32.2500  11.0000 Du        
  12148 ****        15.2500  32.2500  11.2500 Du        
  12149 ****        15.2500  32.2500  11.5000 Du        
  12150 ****        15.2500  32.5000  10.5000 Du        
  12151 ****        15.2500  32.5000  10.7500 Du        
  12152 ****        15.2500  32.5000  11.0000 Du        
  12153 ****        15.2500  32.5000  11.2500 Du        
  12154 ****        15.2500  32.5000  11.5000 Du        
  12155 ****        15.2500  32.5000  11.7500 Du        
  12156 ****        15.2500  32.7500  10.2500 Du        
  12157 ****        15.2500  32.7500  10.5000 Du        
  12158 ****        15.2500  32.7500  10.7500 Du        
  12159 ****        15.2500  32.7500  11.0000 Du        
  12160 ****        15.2500  32.7500  11.2500 Du        
  12161 ****        15.2500  32.7500  11.5000 Du        
  12162 ****        15.2500  32.7500  11.7500 Du        
  12163 ****        15.2500  33.0000  10.2500 Du        
  12164 ****        15.2500  33.0000  10.5000 Du        
  12165 ****        15.2500  33.0000  10.7500 Du        
  12166 ****        15.2500  33.0000  11.0000 Du        
  12167 ****        15.2500  33.0000  11.2500 Du        
  12168 ****        15.2500  33.0000  11.5000 Du        
  12169 ****        15.2500  33.0000  11.7500 Du        
  12170 ****        15.2500  33.2500  10.0000 Du        
  12171 ****        15.2500  33.2500  10.2500 Du        
  12172 ****        15.2500  33.2500  10.5000 Du        
  12173 ****        15.2500  33.2500  10.7500 Du        
  12174 ****        15.2500  33.2500  11.0000 Du        
  12175 ****        15.2500  33.2500  11.2500 Du        
  12176 ****        15.2500  33.2500  11.5000 Du        
  12177 ****        15.2500  33.2500  11.7500 Du        
  12178 ****        15.2500  33.2500  12.0000 Du        
  12179 ****        15.2500  33.5000  10.0000 Du        
  12180 ****        15.2500  33.5000  10.2500 Du        
  12181 ****        15.2500  33.5000  10.5000 Du        
  12182 ****        15.2500  33.5000  10.7500 Du        
  12183 ****        15.2500  33.5000  11.0000 Du        
  12184 ****        15.2500  33.5000  11.2500 Du        
  12185 ****        15.2500  33.5000  11.5000 Du        
  12186 ****        15.2500  33.5000  11.7500 Du        
  12187 ****        15.2500  33.5000  12.0000 Du        
  12188 ****        15.2500  33.7500  11.0000 Du        
  12189 ****        15.2500  33.7500  11.2500 Du        
  12190 ****        15.2500  33.7500  11.5000 Du        
  12191 ****        15.2500  33.7500  11.7500 Du        
  12192 ****        15.2500  33.7500  12.0000 Du        
  12193 ****        15.5000  12.5000  13.7500 Du        
  12194 ****        15.5000  12.5000  14.0000 Du        
  12195 ****        15.5000  12.7500  13.2500 Du        
  12196 ****        15.5000  12.7500  13.5000 Du        
  12197 ****        15.5000  12.7500  13.7500 Du        
  12198 ****        15.5000  12.7500  14.0000 Du        
  12199 ****        15.5000  12.7500  14.2500 Du        
  12200 ****        15.5000  13.0000  13.2500 Du        
  12201 ****        15.5000  13.0000  13.5000 Du        
  12202 ****        15.5000  13.0000  13.7500 Du        
  12203 ****        15.5000  13.0000  14.0000 Du        
  12204 ****        15.5000  13.0000  14.2500 Du        
  12205 ****        15.5000  13.0000  14.5000 Du        
  12206 ****        15.5000  13.0000  14.7500 Du        
  12207 ****        15.5000  13.2500  13.2500 Du        
  12208 ****        15.5000  13.2500  13.5000 Du        
  12209 ****        15.5000  13.2500  13.7500 Du        
  12210 ****        15.5000  13.2500  14.0000 Du        
  12211 ****        15.5000  13.2500  14.2500 Du        
  12212 ****        15.5000  13.2500  14.5000 Du        
  12213 ****        15.5000  13.2500  14.7500 Du        
  12214 ****        15.5000  13.2500  15.0000 Du        
  12215 ****        15.5000  13.5000  13.2500 Du        
  12216 ****        15.5000  13.5000  13.5000 Du        
  12217 ****        15.5000  13.5000  13.7500 Du        
  12218 ****        15.5000  13.5000  14.0000 Du        
  12219 ****        15.5000  13.5000  14.2500 Du        
  12220 ****        15.5000  13.5000  14.5000 Du        
  12221 ****        15.5000  13.5000  14.7500 Du        
  12222 ****        15.5000  13.5000  15.0000 Du        
  12223 ****        15.5000  13.5000  15.2500 Du        
  12224 ****        15.5000  13.7500  13.2500 Du        
  12225 ****        15.5000  13.7500  13.5000 Du        
  12226 ****        15.5000  13.7500  13.7500 Du        
  12227 ****        15.5000  13.7500  14.0000 Du        
  12228 ****        15.5000  13.7500  14.2500 Du        
  12229 ****        15.5000  13.7500  14.5000 Du        
  12230 ****        15.5000  13.7500  14.7500 Du        
  12231 ****        15.5000  13.7500  15.0000 Du        
  12232 ****        15.5000  14.0000  13.2500 Du        
  12233 ****        15.5000  14.0000  13.5000 Du        
  12234 ****        15.5000  14.0000  13.7500 Du        
  12235 ****        15.5000  14.0000  14.0000 Du        
  12236 ****        15.5000  14.0000  14.2500 Du        
  12237 ****        15.5000  14.2500  13.2500 Du        
  12238 ****        15.5000  14.2500  13.5000 Du        
  12239 ****        15.5000  14.2500  13.7500 Du        
  12240 ****        15.5000  15.5000   4.7500 Du        
  12241 ****        15.5000  15.5000   5.0000 Du        
  12242 ****        15.5000  15.5000   5.2500 Du        
  12243 ****        15.5000  15.7500   4.2500 Du        
  12244 ****        15.5000  15.7500   4.5000 Du        
  12245 ****        15.5000  15.7500   4.7500 Du        
  12246 ****        15.5000  15.7500   5.0000 Du        
  12247 ****        15.5000  15.7500   5.2500 Du        
  12248 ****        15.5000  15.7500   5.5000 Du        
  12249 ****        15.5000  16.0000   4.2500 Du        
  12250 ****        15.5000  16.0000   4.5000 Du        
  12251 ****        15.5000  16.0000   4.7500 Du        
  12252 ****        15.5000  16.0000   5.0000 Du        
  12253 ****        15.5000  16.0000   5.2500 Du        
  12254 ****        15.5000  16.0000   5.5000 Du        
  12255 ****        15.5000  16.2500   3.7500 Du        
  12256 ****        15.5000  16.2500   4.0000 Du        
  12257 ****        15.5000  16.2500   4.2500 Du        
  12258 ****        15.5000  16.2500   4.5000 Du        
  12259 ****        15.5000  16.2500   4.7500 Du        
  12260 ****        15.5000  16.2500   5.0000 Du        
  12261 ****        15.5000  16.2500   5.2500 Du        
  12262 ****        15.5000  16.2500   5.5000 Du        
  12263 ****        15.5000  16.5000   3.7500 Du        
  12264 ****        15.5000  16.5000   4.0000 Du        
  12265 ****        15.5000  16.5000   4.2500 Du        
  12266 ****        15.5000  16.5000   4.5000 Du        
  12267 ****        15.5000  16.5000   4.7500 Du        
  12268 ****        15.5000  16.5000   5.0000 Du        
  12269 ****        15.5000  16.5000   5.2500 Du        
  12270 ****        15.5000  16.5000   5.5000 Du        
  12271 ****        15.5000  16.7500   3.2500 Du        
  12272 ****        15.5000  16.7500   3.5000 Du        
  12273 ****        15.5000  16.7500   3.7500 Du        
  12274 ****        15.5000  16.7500   4.0000 Du        
  12275 ****        15.5000  16.7500   4.2500 Du        
  12276 ****        15.5000  16.7500   4.5000 Du        
  12277 ****        15.5000  16.7500   4.7500 Du        
  12278 ****        15.5000  16.7500   5.0000 Du        
  12279 ****        15.5000  17.0000   3.2500 Du        
  12280 ****        15.5000  17.0000   3.5000 Du        
  12281 ****        15.5000  17.0000   3.7500 Du        
  12282 ****        15.5000  17.0000   4.0000 Du        
  12283 ****        15.5000  17.0000   4.2500 Du        
  12284 ****        15.5000  17.0000   4.5000 Du        
  12285 ****        15.5000  17.2500   3.2500 Du        
  12286 ****        15.5000  17.2500   3.5000 Du        
  12287 ****        15.5000  17.2500   3.7500 Du        
  12288 ****        15.5000  17.2500   4.0000 Du        
  12289 ****        15.5000  17.5000   3.2500 Du        
  12290 ****        15.5000  17.5000   3.5000 Du        
  12291 ****        15.5000  17.5000   3.7500 Du        
  12292 ****        15.5000  17.7500   2.7500 Du        
  12293 ****        15.5000  17.7500   3.0000 Du        
  12294 ****        15.5000  17.7500   3.2500 Du        
  12295 ****        15.5000  17.7500   3.5000 Du        
  12296 ****        15.5000  18.0000   2.7500 Du        
  12297 ****        15.5000  18.0000   3.0000 Du        
  12298 ****        15.5000  18.0000   3.2500 Du        
  12299 ****        15.5000  18.0000   3.5000 Du        
  12300 ****        15.5000  18.2500   3.0000 Du        
  12301 ****        15.5000  19.5000  25.2500 Du        
  12302 ****        15.5000  19.5000  25.5000 Du        
  12303 ****        15.5000  19.5000  25.7500 Du        
  12304 ****        15.5000  19.7500  25.0000 Du        
  12305 ****        15.5000  19.7500  25.2500 Du        
  12306 ****        15.5000  19.7500  25.5000 Du        
  12307 ****        15.5000  19.7500  25.7500 Du        
  12308 ****        15.5000  20.0000  25.0000 Du        
  12309 ****        15.5000  20.0000  25.2500 Du        
  12310 ****        15.5000  20.0000  25.5000 Du        
  12311 ****        15.5000  20.2500  25.0000 Du        
  12312 ****        15.5000  20.2500  25.2500 Du        
  12313 ****        15.5000  20.2500  25.5000 Du        
  12314 ****        15.5000  20.5000  25.0000 Du        
  12315 ****        15.5000  20.5000  25.2500 Du        
  12316 ****        15.5000  20.7500  24.7500 Du        
  12317 ****        15.5000  20.7500  25.0000 Du        
  12318 ****        15.5000  20.7500  25.2500 Du        
  12319 ****        15.5000  21.0000  25.0000 Du        
  12320 ****        15.5000  21.0000  25.2500 Du        
  12321 ****        15.5000  21.7500  16.2500 Du        
  12322 ****        15.5000  21.7500  16.5000 Du        
  12323 ****        15.5000  21.7500  16.7500 Du        
  12324 ****        15.5000  21.7500  17.0000 Du        
  12325 ****        15.5000  22.0000  16.0000 Du        
  12326 ****        15.5000  22.0000  16.2500 Du        
  12327 ****        15.5000  22.0000  16.5000 Du        
  12328 ****        15.5000  22.0000  16.7500 Du        
  12329 ****        15.5000  22.0000  17.0000 Du        
  12330 ****        15.5000  22.0000  17.2500 Du        
  12331 ****        15.5000  22.2500  15.7500 Du        
  12332 ****        15.5000  22.2500  16.0000 Du        
  12333 ****        15.5000  22.2500  16.2500 Du        
  12334 ****        15.5000  22.2500  16.5000 Du        
  12335 ****        15.5000  22.2500  16.7500 Du        
  12336 ****        15.5000  22.2500  17.0000 Du        
  12337 ****        15.5000  22.2500  17.2500 Du        
  12338 ****        15.5000  22.5000  15.7500 Du        
  12339 ****        15.5000  22.5000  16.0000 Du        
  12340 ****        15.5000  22.5000  16.2500 Du        
  12341 ****        15.5000  22.5000  16.5000 Du        
  12342 ****        15.5000  22.5000  16.7500 Du        
  12343 ****        15.5000  22.5000  17.0000 Du        
  12344 ****        15.5000  22.5000  17.2500 Du        
  12345 ****        15.5000  22.7500  15.7500 Du        
  12346 ****        15.5000  22.7500  16.0000 Du        
  12347 ****        15.5000  22.7500  16.2500 Du        
  12348 ****        15.5000  22.7500  16.5000 Du        
  12349 ****        15.5000  22.7500  16.7500 Du        
  12350 ****        15.5000  22.7500  17.0000 Du        
  12351 ****        15.5000  22.7500  17.2500 Du        
  12352 ****        15.5000  22.7500  17.5000 Du        
  12353 ****        15.5000  23.0000  15.7500 Du        
  12354 ****        15.5000  23.0000  16.0000 Du        
  12355 ****        15.5000  23.0000  16.2500 Du        
  12356 ****        15.5000  23.0000  16.5000 Du        
  12357 ****        15.5000  23.0000  16.7500 Du        
  12358 ****        15.5000  23.0000  17.0000 Du        
  12359 ****        15.5000  23.0000  17.2500 Du        
  12360 ****        15.5000  23.0000  17.5000 Du        
  12361 ****        15.5000  23.2500  16.0000 Du        
  12362 ****        15.5000  23.2500  16.2500 Du        
  12363 ****        15.5000  23.2500  16.5000 Du        
  12364 ****        15.5000  23.2500  16.7500 Du        
  12365 ****        15.5000  23.2500  17.0000 Du        
  12366 ****        15.5000  30.7500  11.2500 Du        
  12367 ****        15.5000  31.0000  11.0000 Du        
  12368 ****        15.5000  31.0000  11.2500 Du        
  12369 ****        15.5000  31.2500  10.7500 Du        
  12370 ****        15.5000  31.2500  11.0000 Du        
  12371 ****        15.5000  31.2500  11.2500 Du        
  12372 ****        15.5000  31.2500  11.5000 Du        
  12373 ****        15.5000  31.5000  10.7500 Du        
  12374 ****        15.5000  31.5000  11.0000 Du        
  12375 ****        15.5000  31.5000  11.2500 Du        
  12376 ****        15.5000  31.5000  11.5000 Du        
  12377 ****        15.5000  31.7500  10.7500 Du        
  12378 ****        15.5000  31.7500  11.0000 Du        
  12379 ****        15.5000  31.7500  11.2500 Du        
  12380 ****        15.5000  31.7500  11.5000 Du        
  12381 ****        15.5000  32.0000  10.5000 Du        
  12382 ****        15.5000  32.0000  10.7500 Du        
  12383 ****        15.5000  32.0000  11.0000 Du        
  12384 ****        15.5000  32.0000  11.2500 Du        
  12385 ****        15.5000  32.0000  11.5000 Du        
  12386 ****        15.5000  32.0000  11.7500 Du        
  12387 ****        15.5000  32.2500  10.5000 Du        
  12388 ****        15.5000  32.2500  10.7500 Du        
  12389 ****        15.5000  32.2500  11.0000 Du        
  12390 ****        15.5000  32.2500  11.2500 Du        
  12391 ****        15.5000  32.2500  11.5000 Du        
  12392 ****        15.5000  32.2500  11.7500 Du        
  12393 ****        15.5000  32.5000  10.2500 Du        
  12394 ****        15.5000  32.5000  10.5000 Du        
  12395 ****        15.5000  32.5000  10.7500 Du        
  12396 ****        15.5000  32.5000  11.0000 Du        
  12397 ****        15.5000  32.5000  11.2500 Du        
  12398 ****        15.5000  32.5000  11.5000 Du        
  12399 ****        15.5000  32.5000  11.7500 Du        
  12400 ****        15.5000  32.7500  10.2500 Du        
  12401 ****        15.5000  32.7500  10.5000 Du        
  12402 ****        15.5000  32.7500  10.7500 Du        
  12403 ****        15.5000  32.7500  11.0000 Du        
  12404 ****        15.5000  32.7500  11.2500 Du        
  12405 ****        15.5000  32.7500  11.5000 Du        
  12406 ****        15.5000  32.7500  11.7500 Du        
  12407 ****        15.5000  33.0000  10.0000 Du        
  12408 ****        15.5000  33.0000  10.2500 Du        
  12409 ****        15.5000  33.0000  10.5000 Du        
  12410 ****        15.5000  33.0000  10.7500 Du        
  12411 ****        15.5000  33.0000  11.0000 Du        
  12412 ****        15.5000  33.0000  11.2500 Du        
  12413 ****        15.5000  33.0000  11.5000 Du        
  12414 ****        15.5000  33.0000  11.7500 Du        
  12415 ****        15.5000  33.0000  12.0000 Du        
  12416 ****        15.5000  33.2500   9.7500 Du        
  12417 ****        15.5000  33.2500  10.0000 Du        
  12418 ****        15.5000  33.2500  10.2500 Du        
  12419 ****        15.5000  33.2500  10.5000 Du        
  12420 ****        15.5000  33.2500  10.7500 Du        
  12421 ****        15.5000  33.2500  11.0000 Du        
  12422 ****        15.5000  33.2500  11.2500 Du        
  12423 ****        15.5000  33.2500  11.5000 Du        
  12424 ****        15.5000  33.2500  11.7500 Du        
  12425 ****        15.5000  33.2500  12.0000 Du        
  12426 ****        15.5000  33.5000   9.7500 Du        
  12427 ****        15.5000  33.5000  10.0000 Du        
  12428 ****        15.5000  33.5000  10.2500 Du        
  12429 ****        15.5000  33.5000  11.5000 Du        
  12430 ****        15.5000  33.5000  11.7500 Du        
  12431 ****        15.5000  33.5000  12.0000 Du        
  12432 ****        15.7500  12.7500  13.5000 Du        
  12433 ****        15.7500  12.7500  13.7500 Du        
  12434 ****        15.7500  12.7500  14.0000 Du        
  12435 ****        15.7500  12.7500  14.2500 Du        
  12436 ****        15.7500  13.0000  13.2500 Du        
  12437 ****        15.7500  13.0000  13.5000 Du        
  12438 ****        15.7500  13.0000  13.7500 Du        
  12439 ****        15.7500  13.0000  14.0000 Du        
  12440 ****        15.7500  13.0000  14.2500 Du        
  12441 ****        15.7500  13.2500  13.2500 Du        
  12442 ****        15.7500  13.2500  13.5000 Du        
  12443 ****        15.7500  13.2500  13.7500 Du        
  12444 ****        15.7500  13.2500  14.0000 Du        
  12445 ****        15.7500  13.2500  14.2500 Du        
  12446 ****        15.7500  13.2500  14.5000 Du        
  12447 ****        15.7500  13.2500  14.7500 Du        
  12448 ****        15.7500  13.5000  13.2500 Du        
  12449 ****        15.7500  13.5000  13.5000 Du        
  12450 ****        15.7500  13.5000  13.7500 Du        
  12451 ****        15.7500  13.5000  14.0000 Du        
  12452 ****        15.7500  13.5000  14.2500 Du        
  12453 ****        15.7500  13.5000  14.5000 Du        
  12454 ****        15.7500  13.5000  14.7500 Du        
  12455 ****        15.7500  13.5000  15.0000 Du        
  12456 ****        15.7500  13.5000  15.2500 Du        
  12457 ****        15.7500  13.7500  13.2500 Du        
  12458 ****        15.7500  13.7500  13.5000 Du        
  12459 ****        15.7500  13.7500  13.7500 Du        
  12460 ****        15.7500  13.7500  14.0000 Du        
  12461 ****        15.7500  13.7500  14.2500 Du        
  12462 ****        15.7500  13.7500  14.5000 Du        
  12463 ****        15.7500  13.7500  14.7500 Du        
  12464 ****        15.7500  13.7500  15.0000 Du        
  12465 ****        15.7500  14.0000  13.2500 Du        
  12466 ****        15.7500  14.0000  13.5000 Du        
  12467 ****        15.7500  14.0000  13.7500 Du        
  12468 ****        15.7500  14.0000  14.0000 Du        
  12469 ****        15.7500  14.0000  14.2500 Du        
  12470 ****        15.7500  14.0000  18.7500 Du        
  12471 ****        15.7500  14.0000  19.0000 Du        
  12472 ****        15.7500  14.2500  13.2500 Du        
  12473 ****        15.7500  14.2500  13.5000 Du        
  12474 ****        15.7500  14.2500  18.7500 Du        
  12475 ****        15.7500  14.2500  19.0000 Du        
  12476 ****        15.7500  14.5000  18.7500 Du        
  12477 ****        15.7500  14.5000  19.0000 Du        
  12478 ****        15.7500  14.7500  18.7500 Du        
  12479 ****        15.7500  14.7500  19.0000 Du        
  12480 ****        15.7500  15.5000   4.7500 Du        
  12481 ****        15.7500  15.5000   5.0000 Du        
  12482 ****        15.7500  15.5000   5.2500 Du        
  12483 ****        15.7500  15.5000   5.5000 Du        
  12484 ****        15.7500  15.7500   4.2500 Du        
  12485 ****        15.7500  15.7500   4.5000 Du        
  12486 ****        15.7500  15.7500   4.7500 Du        
  12487 ****        15.7500  15.7500   5.0000 Du        
  12488 ****        15.7500  15.7500   5.2500 Du        
  12489 ****        15.7500  15.7500   5.5000 Du        
  12490 ****        15.7500  16.0000   4.2500 Du        
  12491 ****        15.7500  16.0000   4.5000 Du        
  12492 ****        15.7500  16.0000   4.7500 Du        
  12493 ****        15.7500  16.0000   5.0000 Du        
  12494 ****        15.7500  16.0000   5.2500 Du        
  12495 ****        15.7500  16.0000   5.5000 Du        
  12496 ****        15.7500  16.2500   3.7500 Du        
  12497 ****        15.7500  16.2500   4.0000 Du        
  12498 ****        15.7500  16.2500   4.2500 Du        
  12499 ****        15.7500  16.2500   4.5000 Du        
  12500 ****        15.7500  16.2500   4.7500 Du        
  12501 ****        15.7500  16.2500   5.0000 Du        
  12502 ****        15.7500  16.2500   5.2500 Du        
  12503 ****        15.7500  16.2500   5.5000 Du        
  12504 ****        15.7500  16.5000   3.7500 Du        
  12505 ****        15.7500  16.5000   4.0000 Du        
  12506 ****        15.7500  16.5000   4.2500 Du        
  12507 ****        15.7500  16.5000   4.5000 Du        
  12508 ****        15.7500  16.5000   4.7500 Du        
  12509 ****        15.7500  16.5000   5.0000 Du        
  12510 ****        15.7500  16.5000   5.2500 Du        
  12511 ****        15.7500  16.7500   3.2500 Du        
  12512 ****        15.7500  16.7500   3.5000 Du        
  12513 ****        15.7500  16.7500   3.7500 Du        
  12514 ****        15.7500  16.7500   4.0000 Du        
  12515 ****        15.7500  16.7500   4.2500 Du        
  12516 ****        15.7500  16.7500   4.5000 Du        
  12517 ****        15.7500  16.7500   4.7500 Du        
  12518 ****        15.7500  16.7500   5.0000 Du        
  12519 ****        15.7500  17.0000   3.2500 Du        
  12520 ****        15.7500  17.0000   3.5000 Du        
  12521 ****        15.7500  17.0000   3.7500 Du        
  12522 ****        15.7500  17.0000   4.0000 Du        
  12523 ****        15.7500  17.0000   4.2500 Du        
  12524 ****        15.7500  17.0000   4.5000 Du        
  12525 ****        15.7500  17.2500   3.2500 Du        
  12526 ****        15.7500  17.2500   3.5000 Du        
  12527 ****        15.7500  17.2500   3.7500 Du        
  12528 ****        15.7500  17.2500   4.0000 Du        
  12529 ****        15.7500  17.5000   3.2500 Du        
  12530 ****        15.7500  17.5000   3.5000 Du        
  12531 ****        15.7500  17.5000   3.7500 Du        
  12532 ****        15.7500  17.7500   2.7500 Du        
  12533 ****        15.7500  17.7500   3.0000 Du        
  12534 ****        15.7500  17.7500   3.2500 Du        
  12535 ****        15.7500  17.7500   3.5000 Du        
  12536 ****        15.7500  18.0000   2.7500 Du        
  12537 ****        15.7500  18.0000   3.0000 Du        
  12538 ****        15.7500  18.0000   3.2500 Du        
  12539 ****        15.7500  18.0000   3.5000 Du        
  12540 ****        15.7500  19.7500  25.2500 Du        
  12541 ****        15.7500  20.0000  25.0000 Du        
  12542 ****        15.7500  20.0000  25.2500 Du        
  12543 ****        15.7500  20.2500  25.0000 Du        
  12544 ****        15.7500  20.2500  25.2500 Du        
  12545 ****        15.7500  20.5000  25.0000 Du        
  12546 ****        15.7500  20.5000  25.2500 Du        
  12547 ****        15.7500  20.7500  25.0000 Du        
  12548 ****        15.7500  20.7500  25.2500 Du        
  12549 ****        15.7500  21.0000  24.7500 Du        
  12550 ****        15.7500  21.0000  25.0000 Du        
  12551 ****        15.7500  21.2500  25.0000 Du        
  12552 ****        15.7500  21.7500  16.2500 Du        
  12553 ****        15.7500  21.7500  16.5000 Du        
  12554 ****        15.7500  21.7500  16.7500 Du        
  12555 ****        15.7500  21.7500  17.0000 Du        
  12556 ****        15.7500  22.0000  16.0000 Du        
  12557 ****        15.7500  22.0000  16.2500 Du        
  12558 ****        15.7500  22.0000  16.5000 Du        
  12559 ****        15.7500  22.0000  16.7500 Du        
  12560 ****        15.7500  22.0000  17.0000 Du        
  12561 ****        15.7500  22.0000  17.2500 Du        
  12562 ****        15.7500  22.2500  16.0000 Du        
  12563 ****        15.7500  22.2500  16.2500 Du        
  12564 ****        15.7500  22.2500  16.5000 Du        
  12565 ****        15.7500  22.2500  16.7500 Du        
  12566 ****        15.7500  22.2500  17.0000 Du        
  12567 ****        15.7500  22.2500  17.2500 Du        
  12568 ****        15.7500  22.5000  16.0000 Du        
  12569 ****        15.7500  22.5000  16.2500 Du        
  12570 ****        15.7500  22.5000  16.5000 Du        
  12571 ****        15.7500  22.5000  16.7500 Du        
  12572 ****        15.7500  22.5000  17.0000 Du        
  12573 ****        15.7500  22.5000  17.2500 Du        
  12574 ****        15.7500  22.7500  16.0000 Du        
  12575 ****        15.7500  22.7500  16.2500 Du        
  12576 ****        15.7500  22.7500  16.5000 Du        
  12577 ****        15.7500  22.7500  16.7500 Du        
  12578 ****        15.7500  22.7500  17.0000 Du        
  12579 ****        15.7500  22.7500  17.2500 Du        
  12580 ****        15.7500  22.7500  17.5000 Du        
  12581 ****        15.7500  23.0000  16.2500 Du        
  12582 ****        15.7500  23.0000  16.5000 Du        
  12583 ****        15.7500  23.0000  16.7500 Du        
  12584 ****        15.7500  23.0000  17.0000 Du        
  12585 ****        15.7500  23.0000  17.2500 Du        
  12586 ****        15.7500  23.0000  17.5000 Du        
  12587 ****        15.7500  23.2500  16.5000 Du        
  12588 ****        15.7500  23.2500  16.7500 Du        
  12589 ****        15.7500  23.2500  17.0000 Du        
  12590 ****        15.7500  23.2500  17.2500 Du        
  12591 ****        15.7500  30.5000  11.2500 Du        
  12592 ****        15.7500  30.7500  11.0000 Du        
  12593 ****        15.7500  30.7500  11.2500 Du        
  12594 ****        15.7500  30.7500  11.5000 Du        
  12595 ****        15.7500  31.0000  10.7500 Du        
  12596 ****        15.7500  31.0000  11.0000 Du        
  12597 ****        15.7500  31.0000  11.2500 Du        
  12598 ****        15.7500  31.0000  11.5000 Du        
  12599 ****        15.7500  31.0000  11.7500 Du        
  12600 ****        15.7500  31.2500  10.7500 Du        
  12601 ****        15.7500  31.2500  11.0000 Du        
  12602 ****        15.7500  31.2500  11.2500 Du        
  12603 ****        15.7500  31.2500  11.5000 Du        
  12604 ****        15.7500  31.2500  11.7500 Du        
  12605 ****        15.7500  31.5000  10.5000 Du        
  12606 ****        15.7500  31.5000  10.7500 Du        
  12607 ****        15.7500  31.5000  11.0000 Du        
  12608 ****        15.7500  31.5000  11.2500 Du        
  12609 ****        15.7500  31.5000  11.5000 Du        
  12610 ****        15.7500  31.5000  11.7500 Du        
  12611 ****        15.7500  31.7500  10.5000 Du        
  12612 ****        15.7500  31.7500  10.7500 Du        
  12613 ****        15.7500  31.7500  11.0000 Du        
  12614 ****        15.7500  31.7500  11.2500 Du        
  12615 ****        15.7500  31.7500  11.5000 Du        
  12616 ****        15.7500  31.7500  11.7500 Du        
  12617 ****        15.7500  32.0000  10.2500 Du        
  12618 ****        15.7500  32.0000  10.5000 Du        
  12619 ****        15.7500  32.0000  10.7500 Du        
  12620 ****        15.7500  32.0000  11.0000 Du        
  12621 ****        15.7500  32.0000  11.2500 Du        
  12622 ****        15.7500  32.0000  11.5000 Du        
  12623 ****        15.7500  32.0000  11.7500 Du        
  12624 ****        15.7500  32.2500  10.2500 Du        
  12625 ****        15.7500  32.2500  10.5000 Du        
  12626 ****        15.7500  32.2500  10.7500 Du        
  12627 ****        15.7500  32.2500  11.0000 Du        
  12628 ****        15.7500  32.2500  11.2500 Du        
  12629 ****        15.7500  32.2500  11.5000 Du        
  12630 ****        15.7500  32.2500  11.7500 Du        
  12631 ****        15.7500  32.5000  10.2500 Du        
  12632 ****        15.7500  32.5000  10.5000 Du        
  12633 ****        15.7500  32.5000  10.7500 Du        
  12634 ****        15.7500  32.5000  11.0000 Du        
  12635 ****        15.7500  32.5000  11.2500 Du        
  12636 ****        15.7500  32.5000  11.5000 Du        
  12637 ****        15.7500  32.5000  11.7500 Du        
  12638 ****        15.7500  32.5000  12.0000 Du        
  12639 ****        15.7500  32.7500  10.0000 Du        
  12640 ****        15.7500  32.7500  10.2500 Du        
  12641 ****        15.7500  32.7500  10.5000 Du        
  12642 ****        15.7500  32.7500  10.7500 Du        
  12643 ****        15.7500  32.7500  11.0000 Du        
  12644 ****        15.7500  32.7500  11.2500 Du        
  12645 ****        15.7500  32.7500  11.5000 Du        
  12646 ****        15.7500  32.7500  11.7500 Du        
  12647 ****        15.7500  32.7500  12.0000 Du        
  12648 ****        15.7500  33.0000   9.7500 Du        
  12649 ****        15.7500  33.0000  10.0000 Du        
  12650 ****        15.7500  33.0000  10.2500 Du        
  12651 ****        15.7500  33.0000  10.5000 Du        
  12652 ****        15.7500  33.0000  10.7500 Du        
  12653 ****        15.7500  33.0000  11.0000 Du        
  12654 ****        15.7500  33.0000  11.2500 Du        
  12655 ****        15.7500  33.0000  11.5000 Du        
  12656 ****        15.7500  33.0000  11.7500 Du        
  12657 ****        15.7500  33.0000  12.0000 Du        
  12658 ****        15.7500  33.2500   9.7500 Du        
  12659 ****        15.7500  33.2500  10.0000 Du        
  12660 ****        15.7500  33.2500  10.2500 Du        
  12661 ****        15.7500  33.2500  10.5000 Du        
  12662 ****        15.7500  33.2500  10.7500 Du        
  12663 ****        15.7500  33.2500  11.0000 Du        
  12664 ****        15.7500  33.2500  11.2500 Du        
  12665 ****        15.7500  33.2500  11.5000 Du        
  12666 ****        15.7500  33.2500  11.7500 Du        
  12667 ****        15.7500  33.2500  12.0000 Du        
  12668 ****        16.0000  13.0000  13.5000 Du        
  12669 ****        16.0000  13.0000  13.7500 Du        
  12670 ****        16.0000  13.0000  14.0000 Du        
  12671 ****        16.0000  13.2500  13.2500 Du        
  12672 ****        16.0000  13.2500  13.5000 Du        
  12673 ****        16.0000  13.2500  13.7500 Du        
  12674 ****        16.0000  13.2500  14.0000 Du        
  12675 ****        16.0000  13.2500  14.2500 Du        
  12676 ****        16.0000  13.5000  13.2500 Du        
  12677 ****        16.0000  13.5000  13.5000 Du        
  12678 ****        16.0000  13.5000  13.7500 Du        
  12679 ****        16.0000  13.5000  14.0000 Du        
  12680 ****        16.0000  13.5000  14.2500 Du        
  12681 ****        16.0000  13.5000  14.5000 Du        
  12682 ****        16.0000  13.5000  14.7500 Du        
  12683 ****        16.0000  13.5000  15.0000 Du        
  12684 ****        16.0000  13.5000  18.2500 Du        
  12685 ****        16.0000  13.5000  18.5000 Du        
  12686 ****        16.0000  13.5000  18.7500 Du        
  12687 ****        16.0000  13.7500  13.0000 Du        
  12688 ****        16.0000  13.7500  13.2500 Du        
  12689 ****        16.0000  13.7500  13.5000 Du        
  12690 ****        16.0000  13.7500  13.7500 Du        
  12691 ****        16.0000  13.7500  14.0000 Du        
  12692 ****        16.0000  13.7500  14.2500 Du        
  12693 ****        16.0000  13.7500  14.5000 Du        
  12694 ****        16.0000  13.7500  14.7500 Du        
  12695 ****        16.0000  13.7500  17.7500 Du        
  12696 ****        16.0000  13.7500  18.0000 Du        
  12697 ****        16.0000  13.7500  18.2500 Du        
  12698 ****        16.0000  13.7500  18.5000 Du        
  12699 ****        16.0000  13.7500  18.7500 Du        
  12700 ****        16.0000  13.7500  19.0000 Du        
  12701 ****        16.0000  14.0000  13.0000 Du        
  12702 ****        16.0000  14.0000  13.2500 Du        
  12703 ****        16.0000  14.0000  13.5000 Du        
  12704 ****        16.0000  14.0000  13.7500 Du        
  12705 ****        16.0000  14.0000  14.0000 Du        
  12706 ****        16.0000  14.0000  17.7500 Du        
  12707 ****        16.0000  14.0000  18.0000 Du        
  12708 ****        16.0000  14.0000  18.2500 Du        
  12709 ****        16.0000  14.0000  18.5000 Du        
  12710 ****        16.0000  14.0000  18.7500 Du        
  12711 ****        16.0000  14.0000  19.0000 Du        
  12712 ****        16.0000  14.2500  13.0000 Du        
  12713 ****        16.0000  14.2500  13.2500 Du        
  12714 ****        16.0000  14.2500  13.5000 Du        
  12715 ****        16.0000  14.2500  17.7500 Du        
  12716 ****        16.0000  14.2500  18.0000 Du        
  12717 ****        16.0000  14.2500  18.2500 Du        
  12718 ****        16.0000  14.2500  18.5000 Du        
  12719 ****        16.0000  14.2500  18.7500 Du        
  12720 ****        16.0000  14.2500  19.0000 Du        
  12721 ****        16.0000  14.5000  17.7500 Du        
  12722 ****        16.0000  14.5000  18.0000 Du        
  12723 ****        16.0000  14.5000  18.2500 Du        
  12724 ****        16.0000  14.5000  18.5000 Du        
  12725 ****        16.0000  14.5000  18.7500 Du        
  12726 ****        16.0000  14.5000  19.0000 Du        
  12727 ****        16.0000  14.5000  19.2500 Du        
  12728 ****        16.0000  14.7500  18.0000 Du        
  12729 ****        16.0000  14.7500  18.2500 Du        
  12730 ****        16.0000  14.7500  18.5000 Du        
  12731 ****        16.0000  14.7500  18.7500 Du        
  12732 ****        16.0000  14.7500  19.0000 Du        
  12733 ****        16.0000  15.0000  18.2500 Du        
  12734 ****        16.0000  15.0000  18.5000 Du        
  12735 ****        16.0000  15.0000  18.7500 Du        
  12736 ****        16.0000  15.0000  19.0000 Du        
  12737 ****        16.0000  15.2500   5.0000 Du        
  12738 ****        16.0000  15.2500   5.2500 Du        
  12739 ****        16.0000  15.5000   4.7500 Du        
  12740 ****        16.0000  15.5000   5.0000 Du        
  12741 ****        16.0000  15.5000   5.2500 Du        
  12742 ****        16.0000  15.5000   5.5000 Du        
  12743 ****        16.0000  15.7500   4.2500 Du        
  12744 ****        16.0000  15.7500   4.5000 Du        
  12745 ****        16.0000  15.7500   4.7500 Du        
  12746 ****        16.0000  15.7500   5.0000 Du        
  12747 ****        16.0000  15.7500   5.2500 Du        
  12748 ****        16.0000  15.7500   5.5000 Du        
  12749 ****        16.0000  16.0000   4.2500 Du        
  12750 ****        16.0000  16.0000   4.5000 Du        
  12751 ****        16.0000  16.0000   4.7500 Du        
  12752 ****        16.0000  16.0000   5.0000 Du        
  12753 ****        16.0000  16.0000   5.2500 Du        
  12754 ****        16.0000  16.0000   5.5000 Du        
  12755 ****        16.0000  16.2500   3.7500 Du        
  12756 ****        16.0000  16.2500   4.0000 Du        
  12757 ****        16.0000  16.2500   4.2500 Du        
  12758 ****        16.0000  16.2500   4.5000 Du        
  12759 ****        16.0000  16.2500   4.7500 Du        
  12760 ****        16.0000  16.2500   5.0000 Du        
  12761 ****        16.0000  16.2500   5.2500 Du        
  12762 ****        16.0000  16.2500   5.5000 Du        
  12763 ****        16.0000  16.2500  28.0000 Du        
  12764 ****        16.0000  16.2500  28.2500 Du        
  12765 ****        16.0000  16.5000   3.7500 Du        
  12766 ****        16.0000  16.5000   4.0000 Du        
  12767 ****        16.0000  16.5000   4.2500 Du        
  12768 ****        16.0000  16.5000   4.5000 Du        
  12769 ****        16.0000  16.5000   4.7500 Du        
  12770 ****        16.0000  16.5000   5.0000 Du        
  12771 ****        16.0000  16.5000   5.2500 Du        
  12772 ****        16.0000  16.5000  28.0000 Du        
  12773 ****        16.0000  16.5000  28.2500 Du        
  12774 ****        16.0000  16.7500   3.2500 Du        
  12775 ****        16.0000  16.7500   3.5000 Du        
  12776 ****        16.0000  16.7500   3.7500 Du        
  12777 ****        16.0000  16.7500   4.0000 Du        
  12778 ****        16.0000  16.7500   4.2500 Du        
  12779 ****        16.0000  16.7500   4.5000 Du        
  12780 ****        16.0000  16.7500   4.7500 Du        
  12781 ****        16.0000  16.7500  28.0000 Du        
  12782 ****        16.0000  16.7500  28.2500 Du        
  12783 ****        16.0000  16.7500  29.0000 Du        
  12784 ****        16.0000  17.0000   3.2500 Du        
  12785 ****        16.0000  17.0000   3.5000 Du        
  12786 ****        16.0000  17.0000   3.7500 Du        
  12787 ****        16.0000  17.0000   4.0000 Du        
  12788 ****        16.0000  17.0000   4.2500 Du        
  12789 ****        16.0000  17.0000  28.0000 Du        
  12790 ****        16.0000  17.0000  28.2500 Du        
  12791 ****        16.0000  17.0000  28.7500 Du        
  12792 ****        16.0000  17.0000  29.0000 Du        
  12793 ****        16.0000  17.2500   3.2500 Du        
  12794 ****        16.0000  17.2500   3.5000 Du        
  12795 ****        16.0000  17.2500   3.7500 Du        
  12796 ****        16.0000  17.2500   4.0000 Du        
  12797 ****        16.0000  17.2500  28.2500 Du        
  12798 ****        16.0000  17.2500  28.7500 Du        
  12799 ****        16.0000  17.2500  29.0000 Du        
  12800 ****        16.0000  17.5000   3.2500 Du        
  12801 ****        16.0000  17.5000   3.5000 Du        
  12802 ****        16.0000  17.5000   3.7500 Du        
  12803 ****        16.0000  17.5000  28.7500 Du        
  12804 ****        16.0000  17.5000  29.0000 Du        
  12805 ****        16.0000  17.7500   2.7500 Du        
  12806 ****        16.0000  17.7500   3.0000 Du        
  12807 ****        16.0000  17.7500   3.2500 Du        
  12808 ****        16.0000  17.7500   3.5000 Du        
  12809 ****        16.0000  17.7500  28.7500 Du        
  12810 ****        16.0000  17.7500  29.0000 Du        
  12811 ****        16.0000  17.7500  29.2500 Du        
  12812 ****        16.0000  17.7500  29.5000 Du        
  12813 ****        16.0000  17.7500  29.7500 Du        
  12814 ****        16.0000  18.0000  28.7500 Du        
  12815 ****        16.0000  18.0000  29.0000 Du        
  12816 ****        16.0000  18.0000  29.2500 Du        
  12817 ****        16.0000  18.0000  29.5000 Du        
  12818 ****        16.0000  18.0000  29.7500 Du        
  12819 ****        16.0000  18.2500  29.0000 Du        
  12820 ****        16.0000  18.2500  29.2500 Du        
  12821 ****        16.0000  18.2500  29.5000 Du        
  12822 ****        16.0000  18.2500  29.7500 Du        
  12823 ****        16.0000  18.2500  30.0000 Du        
  12824 ****        16.0000  18.5000  29.5000 Du        
  12825 ****        16.0000  18.5000  29.7500 Du        
  12826 ****        16.0000  18.5000  30.0000 Du        
  12827 ****        16.0000  18.7500  29.5000 Du        
  12828 ****        16.0000  18.7500  29.7500 Du        
  12829 ****        16.0000  18.7500  30.0000 Du        
  12830 ****        16.0000  19.0000  29.5000 Du        
  12831 ****        16.0000  19.0000  29.7500 Du        
  12832 ****        16.0000  19.0000  30.0000 Du        
  12833 ****        16.0000  19.2500  29.7500 Du        
  12834 ****        16.0000  19.2500  30.0000 Du        
  12835 ****        16.0000  21.5000  16.7500 Du        
  12836 ****        16.0000  21.7500  16.2500 Du        
  12837 ****        16.0000  21.7500  16.5000 Du        
  12838 ****        16.0000  21.7500  16.7500 Du        
  12839 ****        16.0000  21.7500  17.0000 Du        
  12840 ****        16.0000  21.7500  17.2500 Du        
  12841 ****        16.0000  22.0000  16.2500 Du        
  12842 ****        16.0000  22.0000  16.5000 Du        
  12843 ****        16.0000  22.0000  16.7500 Du        
  12844 ****        16.0000  22.0000  17.0000 Du        
  12845 ****        16.0000  22.0000  17.2500 Du        
  12846 ****        16.0000  22.2500  16.2500 Du        
  12847 ****        16.0000  22.2500  16.5000 Du        
  12848 ****        16.0000  22.2500  16.7500 Du        
  12849 ****        16.0000  22.2500  17.0000 Du        
  12850 ****        16.0000  22.2500  17.2500 Du        
  12851 ****        16.0000  22.5000  16.2500 Du        
  12852 ****        16.0000  22.5000  16.5000 Du        
  12853 ****        16.0000  22.5000  16.7500 Du        
  12854 ****        16.0000  22.5000  17.0000 Du        
  12855 ****        16.0000  22.5000  17.2500 Du        
  12856 ****        16.0000  22.7500  16.2500 Du        
  12857 ****        16.0000  22.7500  16.5000 Du        
  12858 ****        16.0000  22.7500  16.7500 Du        
  12859 ****        16.0000  22.7500  17.0000 Du        
  12860 ****        16.0000  22.7500  17.2500 Du        
  12861 ****        16.0000  22.7500  17.5000 Du        
  12862 ****        16.0000  23.0000  16.2500 Du        
  12863 ****        16.0000  23.0000  16.5000 Du        
  12864 ****        16.0000  23.0000  16.7500 Du        
  12865 ****        16.0000  23.0000  17.0000 Du        
  12866 ****        16.0000  23.0000  17.2500 Du        
  12867 ****        16.0000  23.0000  17.5000 Du        
  12868 ****        16.0000  23.2500  16.5000 Du        
  12869 ****        16.0000  23.2500  16.7500 Du        
  12870 ****        16.0000  23.2500  17.0000 Du        
  12871 ****        16.0000  23.2500  17.2500 Du        
  12872 ****        16.0000  30.2500  11.2500 Du        
  12873 ****        16.0000  30.5000  11.0000 Du        
  12874 ****        16.0000  30.5000  11.2500 Du        
  12875 ****        16.0000  30.7500  10.7500 Du        
  12876 ****        16.0000  30.7500  11.0000 Du        
  12877 ****        16.0000  30.7500  11.2500 Du        
  12878 ****        16.0000  30.7500  11.5000 Du        
  12879 ****        16.0000  31.0000  10.5000 Du        
  12880 ****        16.0000  31.0000  10.7500 Du        
  12881 ****        16.0000  31.0000  11.0000 Du        
  12882 ****        16.0000  31.0000  11.2500 Du        
  12883 ****        16.0000  31.0000  11.5000 Du        
  12884 ****        16.0000  31.0000  11.7500 Du        
  12885 ****        16.0000  31.2500  10.5000 Du        
  12886 ****        16.0000  31.2500  10.7500 Du        
  12887 ****        16.0000  31.2500  11.0000 Du        
  12888 ****        16.0000  31.2500  11.2500 Du        
  12889 ****        16.0000  31.2500  11.5000 Du        
  12890 ****        16.0000  31.2500  11.7500 Du        
  12891 ****        16.0000  31.5000  10.2500 Du        
  12892 ****        16.0000  31.5000  10.5000 Du        
  12893 ****        16.0000  31.5000  10.7500 Du        
  12894 ****        16.0000  31.5000  11.0000 Du        
  12895 ****        16.0000  31.5000  11.2500 Du        
  12896 ****        16.0000  31.5000  11.5000 Du        
  12897 ****        16.0000  31.5000  11.7500 Du        
  12898 ****        16.0000  31.5000  12.0000 Du        
  12899 ****        16.0000  31.7500  10.2500 Du        
  12900 ****        16.0000  31.7500  10.5000 Du        
  12901 ****        16.0000  31.7500  10.7500 Du        
  12902 ****        16.0000  31.7500  11.0000 Du        
  12903 ****        16.0000  31.7500  11.2500 Du        
  12904 ****        16.0000  31.7500  11.5000 Du        
  12905 ****        16.0000  31.7500  11.7500 Du        
  12906 ****        16.0000  31.7500  12.0000 Du        
  12907 ****        16.0000  32.0000  10.2500 Du        
  12908 ****        16.0000  32.0000  10.5000 Du        
  12909 ****        16.0000  32.0000  10.7500 Du        
  12910 ****        16.0000  32.0000  11.0000 Du        
  12911 ****        16.0000  32.0000  11.2500 Du        
  12912 ****        16.0000  32.0000  11.5000 Du        
  12913 ****        16.0000  32.0000  11.7500 Du        
  12914 ****        16.0000  32.0000  12.0000 Du        
  12915 ****        16.0000  32.2500  10.0000 Du        
  12916 ****        16.0000  32.2500  10.2500 Du        
  12917 ****        16.0000  32.2500  10.5000 Du        
  12918 ****        16.0000  32.2500  10.7500 Du        
  12919 ****        16.0000  32.2500  11.0000 Du        
  12920 ****        16.0000  32.2500  11.2500 Du        
  12921 ****        16.0000  32.2500  11.5000 Du        
  12922 ****        16.0000  32.2500  11.7500 Du        
  12923 ****        16.0000  32.2500  12.0000 Du        
  12924 ****        16.0000  32.5000  10.0000 Du        
  12925 ****        16.0000  32.5000  10.2500 Du        
  12926 ****        16.0000  32.5000  10.5000 Du        
  12927 ****        16.0000  32.5000  10.7500 Du        
  12928 ****        16.0000  32.5000  11.0000 Du        
  12929 ****        16.0000  32.5000  11.2500 Du        
  12930 ****        16.0000  32.5000  11.5000 Du        
  12931 ****        16.0000  32.5000  11.7500 Du        
  12932 ****        16.0000  32.5000  12.0000 Du        
  12933 ****        16.0000  32.7500   9.7500 Du        
  12934 ****        16.0000  32.7500  10.0000 Du        
  12935 ****        16.0000  32.7500  10.2500 Du        
  12936 ****        16.0000  32.7500  10.5000 Du        
  12937 ****        16.0000  32.7500  10.7500 Du        
  12938 ****        16.0000  32.7500  11.0000 Du        
  12939 ****        16.0000  32.7500  11.2500 Du        
  12940 ****        16.0000  32.7500  11.5000 Du        
  12941 ****        16.0000  32.7500  11.7500 Du        
  12942 ****        16.0000  32.7500  12.0000 Du        
  12943 ****        16.0000  33.0000   9.7500 Du        
  12944 ****        16.0000  33.0000  10.0000 Du        
  12945 ****        16.0000  33.0000  10.2500 Du        
  12946 ****        16.0000  33.0000  10.5000 Du        
  12947 ****        16.0000  33.0000  10.7500 Du        
  12948 ****        16.0000  33.0000  11.0000 Du        
  12949 ****        16.0000  33.0000  11.2500 Du        
  12950 ****        16.0000  33.0000  11.5000 Du        
  12951 ****        16.0000  33.0000  11.7500 Du        
  12952 ****        16.0000  33.0000  12.0000 Du        
  12953 ****        16.0000  33.2500   9.7500 Du        
  12954 ****        16.0000  33.2500  10.0000 Du        
  12955 ****        16.2500  13.2500  14.0000 Du        
  12956 ****        16.2500  13.5000  13.2500 Du        
  12957 ****        16.2500  13.5000  13.5000 Du        
  12958 ****        16.2500  13.5000  13.7500 Du        
  12959 ****        16.2500  13.5000  14.0000 Du        
  12960 ****        16.2500  13.5000  14.2500 Du        
  12961 ****        16.2500  13.5000  14.5000 Du        
  12962 ****        16.2500  13.5000  14.7500 Du        
  12963 ****        16.2500  13.5000  18.2500 Du        
  12964 ****        16.2500  13.5000  18.5000 Du        
  12965 ****        16.2500  13.5000  18.7500 Du        
  12966 ****        16.2500  13.7500  13.0000 Du        
  12967 ****        16.2500  13.7500  13.2500 Du        
  12968 ****        16.2500  13.7500  13.5000 Du        
  12969 ****        16.2500  13.7500  13.7500 Du        
  12970 ****        16.2500  13.7500  14.0000 Du        
  12971 ****        16.2500  13.7500  14.2500 Du        
  12972 ****        16.2500  13.7500  17.2500 Du        
  12973 ****        16.2500  13.7500  17.5000 Du        
  12974 ****        16.2500  13.7500  17.7500 Du        
  12975 ****        16.2500  13.7500  18.0000 Du        
  12976 ****        16.2500  13.7500  18.2500 Du        
  12977 ****        16.2500  13.7500  18.5000 Du        
  12978 ****        16.2500  13.7500  18.7500 Du        
  12979 ****        16.2500  13.7500  19.0000 Du        
  12980 ****        16.2500  14.0000  13.0000 Du        
  12981 ****        16.2500  14.0000  13.2500 Du        
  12982 ****        16.2500  14.0000  13.5000 Du        
  12983 ****        16.2500  14.0000  13.7500 Du        
  12984 ****        16.2500  14.0000  17.2500 Du        
  12985 ****        16.2500  14.0000  17.5000 Du        
  12986 ****        16.2500  14.0000  17.7500 Du        
  12987 ****        16.2500  14.0000  18.0000 Du        
  12988 ****        16.2500  14.0000  18.2500 Du        
  12989 ****        16.2500  14.0000  18.5000 Du        
  12990 ****        16.2500  14.0000  18.7500 Du        
  12991 ****        16.2500  14.0000  19.0000 Du        
  12992 ****        16.2500  14.2500  13.0000 Du        
  12993 ****        16.2500  14.2500  13.2500 Du        
  12994 ****        16.2500  14.2500  13.5000 Du        
  12995 ****        16.2500  14.2500  17.5000 Du        
  12996 ****        16.2500  14.2500  17.7500 Du        
  12997 ****        16.2500  14.2500  18.0000 Du        
  12998 ****        16.2500  14.2500  18.2500 Du        
  12999 ****        16.2500  14.2500  18.5000 Du        
  13000 ****        16.2500  14.2500  18.7500 Du        
  13001 ****        16.2500  14.2500  19.0000 Du        
  13002 ****        16.2500  14.5000  13.0000 Du        
  13003 ****        16.2500  14.5000  17.5000 Du        
  13004 ****        16.2500  14.5000  17.7500 Du        
  13005 ****        16.2500  14.5000  18.0000 Du        
  13006 ****        16.2500  14.5000  18.2500 Du        
  13007 ****        16.2500  14.5000  18.5000 Du        
  13008 ****        16.2500  14.5000  18.7500 Du        
  13009 ****        16.2500  14.5000  19.0000 Du        
  13010 ****        16.2500  14.5000  19.2500 Du        
  13011 ****        16.2500  14.7500  17.7500 Du        
  13012 ****        16.2500  14.7500  18.0000 Du        
  13013 ****        16.2500  14.7500  18.2500 Du        
  13014 ****        16.2500  14.7500  18.5000 Du        
  13015 ****        16.2500  14.7500  18.7500 Du        
  13016 ****        16.2500  14.7500  19.0000 Du        
  13017 ****        16.2500  14.7500  19.2500 Du        
  13018 ****        16.2500  15.0000  18.0000 Du        
  13019 ****        16.2500  15.0000  18.2500 Du        
  13020 ****        16.2500  15.0000  18.5000 Du        
  13021 ****        16.2500  15.0000  18.7500 Du        
  13022 ****        16.2500  15.0000  19.0000 Du        
  13023 ****        16.2500  15.2500   5.0000 Du        
  13024 ****        16.2500  15.2500   5.2500 Du        
  13025 ****        16.2500  15.2500  18.2500 Du        
  13026 ****        16.2500  15.2500  18.5000 Du        
  13027 ****        16.2500  15.2500  18.7500 Du        
  13028 ****        16.2500  15.5000   4.7500 Du        
  13029 ****        16.2500  15.5000   5.0000 Du        
  13030 ****        16.2500  15.5000   5.2500 Du        
  13031 ****        16.2500  15.5000   5.5000 Du        
  13032 ****        16.2500  15.7500   4.2500 Du        
  13033 ****        16.2500  15.7500   4.5000 Du        
  13034 ****        16.2500  15.7500   4.7500 Du        
  13035 ****        16.2500  15.7500   5.0000 Du        
  13036 ****        16.2500  15.7500   5.2500 Du        
  13037 ****        16.2500  15.7500   5.5000 Du        
  13038 ****        16.2500  16.0000   4.2500 Du        
  13039 ****        16.2500  16.0000   4.5000 Du        
  13040 ****        16.2500  16.0000   4.7500 Du        
  13041 ****        16.2500  16.0000   5.0000 Du        
  13042 ****        16.2500  16.0000   5.2500 Du        
  13043 ****        16.2500  16.0000   5.5000 Du        
  13044 ****        16.2500  16.2500   3.7500 Du        
  13045 ****        16.2500  16.2500   4.0000 Du        
  13046 ****        16.2500  16.2500   4.2500 Du        
  13047 ****        16.2500  16.2500   4.5000 Du        
  13048 ****        16.2500  16.2500   4.7500 Du        
  13049 ****        16.2500  16.2500   5.0000 Du        
  13050 ****        16.2500  16.2500   5.2500 Du        
  13051 ****        16.2500  16.2500  28.2500 Du        
  13052 ****        16.2500  16.5000   3.7500 Du        
  13053 ****        16.2500  16.5000   4.0000 Du        
  13054 ****        16.2500  16.5000   4.2500 Du        
  13055 ****        16.2500  16.5000   4.5000 Du        
  13056 ****        16.2500  16.5000   4.7500 Du        
  13057 ****        16.2500  16.5000   5.0000 Du        
  13058 ****        16.2500  16.5000  28.2500 Du        
  13059 ****        16.2500  16.7500   3.7500 Du        
  13060 ****        16.2500  16.7500   4.0000 Du        
  13061 ****        16.2500  16.7500  28.2500 Du        
  13062 ****        16.2500  16.7500  28.7500 Du        
  13063 ****        16.2500  16.7500  29.0000 Du        
  13064 ****        16.2500  17.0000  28.2500 Du        
  13065 ****        16.2500  17.0000  28.7500 Du        
  13066 ****        16.2500  17.0000  29.0000 Du        
  13067 ****        16.2500  17.2500  28.2500 Du        
  13068 ****        16.2500  17.2500  28.7500 Du        
  13069 ****        16.2500  17.2500  29.0000 Du        
  13070 ****        16.2500  17.5000  28.7500 Du        
  13071 ****        16.2500  17.5000  29.0000 Du        
  13072 ****        16.2500  17.7500  28.7500 Du        
  13073 ****        16.2500  17.7500  29.0000 Du        
  13074 ****        16.2500  17.7500  29.2500 Du        
  13075 ****        16.2500  17.7500  29.5000 Du        
  13076 ****        16.2500  17.7500  29.7500 Du        
  13077 ****        16.2500  18.0000  28.7500 Du        
  13078 ****        16.2500  18.0000  29.0000 Du        
  13079 ****        16.2500  18.0000  29.2500 Du        
  13080 ****        16.2500  18.0000  29.5000 Du        
  13081 ****        16.2500  18.0000  29.7500 Du        
  13082 ****        16.2500  18.2500  28.7500 Du        
  13083 ****        16.2500  18.2500  29.0000 Du        
  13084 ****        16.2500  18.2500  29.2500 Du        
  13085 ****        16.2500  18.2500  29.5000 Du        
  13086 ****        16.2500  18.2500  29.7500 Du        
  13087 ****        16.2500  18.2500  30.0000 Du        
  13088 ****        16.2500  18.5000  29.0000 Du        
  13089 ****        16.2500  18.5000  29.2500 Du        
  13090 ****        16.2500  18.5000  29.5000 Du        
  13091 ****        16.2500  18.5000  29.7500 Du        
  13092 ****        16.2500  18.5000  30.0000 Du        
  13093 ****        16.2500  18.7500  29.0000 Du        
  13094 ****        16.2500  18.7500  29.2500 Du        
  13095 ****        16.2500  18.7500  29.5000 Du        
  13096 ****        16.2500  18.7500  29.7500 Du        
  13097 ****        16.2500  18.7500  30.0000 Du        
  13098 ****        16.2500  19.0000  29.0000 Du        
  13099 ****        16.2500  19.0000  29.2500 Du        
  13100 ****        16.2500  19.0000  29.5000 Du        
  13101 ****        16.2500  19.0000  29.7500 Du        
  13102 ****        16.2500  19.0000  30.0000 Du        
  13103 ****        16.2500  19.0000  30.2500 Du        
  13104 ****        16.2500  19.2500  29.5000 Du        
  13105 ****        16.2500  19.2500  29.7500 Du        
  13106 ****        16.2500  19.2500  30.0000 Du        
  13107 ****        16.2500  21.7500  16.5000 Du        
  13108 ****        16.2500  21.7500  16.7500 Du        
  13109 ****        16.2500  21.7500  17.0000 Du        
  13110 ****        16.2500  21.7500  17.2500 Du        
  13111 ****        16.2500  22.0000  16.2500 Du        
  13112 ****        16.2500  22.0000  16.5000 Du        
  13113 ****        16.2500  22.0000  16.7500 Du        
  13114 ****        16.2500  22.0000  17.0000 Du        
  13115 ****        16.2500  22.0000  17.2500 Du        
  13116 ****        16.2500  22.2500  16.2500 Du        
  13117 ****        16.2500  22.2500  16.5000 Du        
  13118 ****        16.2500  22.2500  16.7500 Du        
  13119 ****        16.2500  22.2500  17.0000 Du        
  13120 ****        16.2500  22.2500  17.2500 Du        
  13121 ****        16.2500  22.5000  16.5000 Du        
  13122 ****        16.2500  22.5000  16.7500 Du        
  13123 ****        16.2500  22.5000  17.0000 Du        
  13124 ****        16.2500  22.5000  17.2500 Du        
  13125 ****        16.2500  22.7500  16.5000 Du        
  13126 ****        16.2500  22.7500  16.7500 Du        
  13127 ****        16.2500  22.7500  17.0000 Du        
  13128 ****        16.2500  22.7500  17.2500 Du        
  13129 ****        16.2500  22.7500  17.5000 Du        
  13130 ****        16.2500  23.0000  16.7500 Du        
  13131 ****        16.2500  23.0000  17.0000 Du        
  13132 ****        16.2500  23.0000  17.2500 Du        
  13133 ****        16.2500  23.0000  17.5000 Du        
  13134 ****        16.2500  23.2500  16.7500 Du        
  13135 ****        16.2500  23.2500  17.0000 Du        
  13136 ****        16.2500  23.2500  17.2500 Du        
  13137 ****        16.2500  30.0000  11.2500 Du        
  13138 ****        16.2500  30.2500  11.0000 Du        
  13139 ****        16.2500  30.2500  11.2500 Du        
  13140 ****        16.2500  30.5000  10.7500 Du        
  13141 ****        16.2500  30.5000  11.0000 Du        
  13142 ****        16.2500  30.5000  11.2500 Du        
  13143 ****        16.2500  30.7500  10.2500 Du        
  13144 ****        16.2500  30.7500  10.5000 Du        
  13145 ****        16.2500  30.7500  10.7500 Du        
  13146 ****        16.2500  30.7500  11.0000 Du        
  13147 ****        16.2500  30.7500  11.2500 Du        
  13148 ****        16.2500  31.0000  10.2500 Du        
  13149 ****        16.2500  31.0000  10.5000 Du        
  13150 ****        16.2500  31.0000  10.7500 Du        
  13151 ****        16.2500  31.0000  11.0000 Du        
  13152 ****        16.2500  31.0000  11.2500 Du        
  13153 ****        16.2500  31.0000  11.5000 Du        
  13154 ****        16.2500  31.2500  10.2500 Du        
  13155 ****        16.2500  31.2500  10.5000 Du        
  13156 ****        16.2500  31.2500  10.7500 Du        
  13157 ****        16.2500  31.2500  11.0000 Du        
  13158 ****        16.2500  31.2500  11.2500 Du        
  13159 ****        16.2500  31.2500  11.5000 Du        
  13160 ****        16.2500  31.2500  11.7500 Du        
  13161 ****        16.2500  31.5000  10.0000 Du        
  13162 ****        16.2500  31.5000  10.2500 Du        
  13163 ****        16.2500  31.5000  10.5000 Du        
  13164 ****        16.2500  31.5000  10.7500 Du        
  13165 ****        16.2500  31.5000  11.0000 Du        
  13166 ****        16.2500  31.5000  11.2500 Du        
  13167 ****        16.2500  31.5000  11.5000 Du        
  13168 ****        16.2500  31.5000  11.7500 Du        
  13169 ****        16.2500  31.5000  12.0000 Du        
  13170 ****        16.2500  31.7500  10.0000 Du        
  13171 ****        16.2500  31.7500  10.2500 Du        
  13172 ****        16.2500  31.7500  10.5000 Du        
  13173 ****        16.2500  31.7500  10.7500 Du        
  13174 ****        16.2500  31.7500  11.0000 Du        
  13175 ****        16.2500  31.7500  11.2500 Du        
  13176 ****        16.2500  31.7500  11.5000 Du        
  13177 ****        16.2500  31.7500  11.7500 Du        
  13178 ****        16.2500  31.7500  12.0000 Du        
  13179 ****        16.2500  32.0000  10.0000 Du        
  13180 ****        16.2500  32.0000  10.2500 Du        
  13181 ****        16.2500  32.0000  10.5000 Du        
  13182 ****        16.2500  32.0000  10.7500 Du        
  13183 ****        16.2500  32.0000  11.0000 Du        
  13184 ****        16.2500  32.0000  11.2500 Du        
  13185 ****        16.2500  32.0000  11.5000 Du        
  13186 ****        16.2500  32.0000  11.7500 Du        
  13187 ****        16.2500  32.0000  12.0000 Du        
  13188 ****        16.2500  32.2500   9.7500 Du        
  13189 ****        16.2500  32.2500  10.0000 Du        
  13190 ****        16.2500  32.2500  10.2500 Du        
  13191 ****        16.2500  32.2500  10.5000 Du        
  13192 ****        16.2500  32.2500  10.7500 Du        
  13193 ****        16.2500  32.2500  11.0000 Du        
  13194 ****        16.2500  32.2500  11.2500 Du        
  13195 ****        16.2500  32.2500  11.5000 Du        
  13196 ****        16.2500  32.2500  11.7500 Du        
  13197 ****        16.2500  32.2500  12.0000 Du        
  13198 ****        16.2500  32.5000   9.7500 Du        
  13199 ****        16.2500  32.5000  10.0000 Du        
  13200 ****        16.2500  32.5000  10.2500 Du        
  13201 ****        16.2500  32.5000  10.5000 Du        
  13202 ****        16.2500  32.5000  10.7500 Du        
  13203 ****        16.2500  32.5000  11.0000 Du        
  13204 ****        16.2500  32.5000  11.2500 Du        
  13205 ****        16.2500  32.5000  11.5000 Du        
  13206 ****        16.2500  32.5000  11.7500 Du        
  13207 ****        16.2500  32.5000  12.0000 Du        
  13208 ****        16.2500  32.7500   9.7500 Du        
  13209 ****        16.2500  32.7500  10.0000 Du        
  13210 ****        16.2500  32.7500  10.2500 Du        
  13211 ****        16.2500  32.7500  10.5000 Du        
  13212 ****        16.2500  32.7500  10.7500 Du        
  13213 ****        16.2500  32.7500  11.0000 Du        
  13214 ****        16.2500  32.7500  11.2500 Du        
  13215 ****        16.2500  32.7500  11.5000 Du        
  13216 ****        16.2500  32.7500  11.7500 Du        
  13217 ****        16.2500  32.7500  12.0000 Du        
  13218 ****        16.2500  33.0000   9.7500 Du        
  13219 ****        16.2500  33.0000  10.0000 Du        
  13220 ****        16.2500  33.0000  10.2500 Du        
  13221 ****        16.2500  33.0000  10.5000 Du        
  13222 ****        16.2500  33.0000  11.7500 Du        
  13223 ****        16.2500  33.0000  12.0000 Du        
  13224 ****        16.5000  13.5000  13.5000 Du        
  13225 ****        16.5000  13.5000  13.7500 Du        
  13226 ****        16.5000  13.5000  14.0000 Du        
  13227 ****        16.5000  13.5000  18.2500 Du        
  13228 ****        16.5000  13.7500  13.2500 Du        
  13229 ****        16.5000  13.7500  13.5000 Du        
  13230 ****        16.5000  13.7500  13.7500 Du        
  13231 ****        16.5000  13.7500  14.0000 Du        
  13232 ****        16.5000  13.7500  17.7500 Du        
  13233 ****        16.5000  13.7500  18.0000 Du        
  13234 ****        16.5000  13.7500  18.2500 Du        
  13235 ****        16.5000  13.7500  18.5000 Du        
  13236 ****        16.5000  13.7500  18.7500 Du        
  13237 ****        16.5000  13.7500  19.0000 Du        
  13238 ****        16.5000  14.0000  13.2500 Du        
  13239 ****        16.5000  14.0000  13.5000 Du        
  13240 ****        16.5000  14.0000  13.7500 Du        
  13241 ****        16.5000  14.0000  17.2500 Du        
  13242 ****        16.5000  14.0000  17.5000 Du        
  13243 ****        16.5000  14.0000  17.7500 Du        
  13244 ****        16.5000  14.0000  18.0000 Du        
  13245 ****        16.5000  14.0000  18.2500 Du        
  13246 ****        16.5000  14.0000  18.5000 Du        
  13247 ****        16.5000  14.0000  18.7500 Du        
  13248 ****        16.5000  14.0000  19.0000 Du        
  13249 ****        16.5000  14.2500  17.2500 Du        
  13250 ****        16.5000  14.2500  17.5000 Du        
  13251 ****        16.5000  14.2500  17.7500 Du        
  13252 ****        16.5000  14.2500  18.0000 Du        
  13253 ****        16.5000  14.2500  18.2500 Du        
  13254 ****        16.5000  14.2500  18.5000 Du        
  13255 ****        16.5000  14.2500  18.7500 Du        
  13256 ****        16.5000  14.2500  19.0000 Du        
  13257 ****        16.5000  14.5000  13.0000 Du        
  13258 ****        16.5000  14.5000  17.2500 Du        
  13259 ****        16.5000  14.5000  17.5000 Du        
  13260 ****        16.5000  14.5000  17.7500 Du        
  13261 ****        16.5000  14.5000  18.0000 Du        
  13262 ****        16.5000  14.5000  18.2500 Du        
  13263 ****        16.5000  14.5000  18.5000 Du        
  13264 ****        16.5000  14.5000  18.7500 Du        
  13265 ****        16.5000  14.5000  19.0000 Du        
  13266 ****        16.5000  14.5000  19.2500 Du        
  13267 ****        16.5000  14.7500  17.5000 Du        
  13268 ****        16.5000  14.7500  17.7500 Du        
  13269 ****        16.5000  14.7500  18.0000 Du        
  13270 ****        16.5000  14.7500  18.2500 Du        
  13271 ****        16.5000  14.7500  18.5000 Du        
  13272 ****        16.5000  14.7500  18.7500 Du        
  13273 ****        16.5000  14.7500  19.0000 Du        
  13274 ****        16.5000  14.7500  19.2500 Du        
  13275 ****        16.5000  15.0000   5.5000 Du        
  13276 ****        16.5000  15.0000  17.7500 Du        
  13277 ****        16.5000  15.0000  18.0000 Du        
  13278 ****        16.5000  15.0000  18.2500 Du        
  13279 ****        16.5000  15.0000  18.5000 Du        
  13280 ****        16.5000  15.0000  18.7500 Du        
  13281 ****        16.5000  15.0000  19.0000 Du        
  13282 ****        16.5000  15.2500   5.2500 Du        
  13283 ****        16.5000  15.2500  18.0000 Du        
  13284 ****        16.5000  15.2500  18.2500 Du        
  13285 ****        16.5000  15.2500  18.5000 Du        
  13286 ****        16.5000  15.2500  18.7500 Du        
  13287 ****        16.5000  15.5000   4.7500 Du        
  13288 ****        16.5000  15.5000   5.0000 Du        
  13289 ****        16.5000  15.5000   5.2500 Du        
  13290 ****        16.5000  15.5000   5.5000 Du        
  13291 ****        16.5000  15.7500   4.2500 Du        
  13292 ****        16.5000  15.7500   4.5000 Du        
  13293 ****        16.5000  15.7500   4.7500 Du        
  13294 ****        16.5000  15.7500   5.0000 Du        
  13295 ****        16.5000  15.7500   5.2500 Du        
  13296 ****        16.5000  15.7500   5.5000 Du        
  13297 ****        16.5000  16.0000   4.2500 Du        
  13298 ****        16.5000  16.0000   4.5000 Du        
  13299 ****        16.5000  16.0000   4.7500 Du        
  13300 ****        16.5000  16.0000   5.0000 Du        
  13301 ****        16.5000  16.0000   5.2500 Du        
  13302 ****        16.5000  16.2500   4.5000 Du        
  13303 ****        16.5000  16.2500   4.7500 Du        
  13304 ****        16.5000  16.7500  29.0000 Du        
  13305 ****        16.5000  17.0000  28.7500 Du        
  13306 ****        16.5000  17.0000  29.0000 Du        
  13307 ****        16.5000  17.2500  28.7500 Du        
  13308 ****        16.5000  17.2500  29.0000 Du        
  13309 ****        16.5000  17.5000  28.7500 Du        
  13310 ****        16.5000  17.5000  29.0000 Du        
  13311 ****        16.5000  17.7500  28.7500 Du        
  13312 ****        16.5000  17.7500  29.0000 Du        
  13313 ****        16.5000  17.7500  29.2500 Du        
  13314 ****        16.5000  17.7500  29.5000 Du        
  13315 ****        16.5000  17.7500  29.7500 Du        
  13316 ****        16.5000  18.0000  28.7500 Du        
  13317 ****        16.5000  18.0000  29.0000 Du        
  13318 ****        16.5000  18.0000  29.2500 Du        
  13319 ****        16.5000  18.0000  29.5000 Du        
  13320 ****        16.5000  18.0000  29.7500 Du        
  13321 ****        16.5000  18.0000  30.0000 Du        
  13322 ****        16.5000  18.2500  28.7500 Du        
  13323 ****        16.5000  18.2500  29.0000 Du        
  13324 ****        16.5000  18.2500  29.2500 Du        
  13325 ****        16.5000  18.2500  29.5000 Du        
  13326 ****        16.5000  18.2500  29.7500 Du        
  13327 ****        16.5000  18.2500  30.0000 Du        
  13328 ****        16.5000  18.5000  28.7500 Du        
  13329 ****        16.5000  18.5000  29.0000 Du        
  13330 ****        16.5000  18.5000  29.2500 Du        
  13331 ****        16.5000  18.5000  29.5000 Du        
  13332 ****        16.5000  18.5000  29.7500 Du        
  13333 ****        16.5000  18.5000  30.0000 Du        
  13334 ****        16.5000  18.7500  28.7500 Du        
  13335 ****        16.5000  18.7500  29.0000 Du        
  13336 ****        16.5000  18.7500  29.2500 Du        
  13337 ****        16.5000  18.7500  29.5000 Du        
  13338 ****        16.5000  18.7500  29.7500 Du        
  13339 ****        16.5000  18.7500  30.0000 Du        
  13340 ****        16.5000  18.7500  30.2500 Du        
  13341 ****        16.5000  19.0000  29.0000 Du        
  13342 ****        16.5000  19.0000  29.2500 Du        
  13343 ****        16.5000  19.0000  29.5000 Du        
  13344 ****        16.5000  19.0000  29.7500 Du        
  13345 ****        16.5000  19.0000  30.0000 Du        
  13346 ****        16.5000  19.0000  30.2500 Du        
  13347 ****        16.5000  19.2500  29.0000 Du        
  13348 ****        16.5000  19.2500  29.2500 Du        
  13349 ****        16.5000  19.2500  29.5000 Du        
  13350 ****        16.5000  19.2500  29.7500 Du        
  13351 ****        16.5000  19.2500  30.0000 Du        
  13352 ****        16.5000  19.2500  30.2500 Du        
  13353 ****        16.5000  19.5000  29.5000 Du        
  13354 ****        16.5000  19.5000  29.7500 Du        
  13355 ****        16.5000  19.5000  30.0000 Du        
  13356 ****        16.5000  19.7500  29.5000 Du        
  13357 ****        16.5000  19.7500  29.7500 Du        
  13358 ****        16.5000  19.7500  30.0000 Du        
  13359 ****        16.5000  21.7500  16.5000 Du        
  13360 ****        16.5000  21.7500  16.7500 Du        
  13361 ****        16.5000  21.7500  17.0000 Du        
  13362 ****        16.5000  21.7500  17.2500 Du        
  13363 ****        16.5000  22.0000  16.5000 Du        
  13364 ****        16.5000  22.0000  16.7500 Du        
  13365 ****        16.5000  22.0000  17.0000 Du        
  13366 ****        16.5000  22.0000  17.2500 Du        
  13367 ****        16.5000  22.2500  16.5000 Du        
  13368 ****        16.5000  22.2500  16.7500 Du        
  13369 ****        16.5000  22.2500  17.0000 Du        
  13370 ****        16.5000  22.2500  17.2500 Du        
  13371 ****        16.5000  22.2500  17.5000 Du        
  13372 ****        16.5000  22.5000  16.5000 Du        
  13373 ****        16.5000  22.5000  16.7500 Du        
  13374 ****        16.5000  22.5000  17.0000 Du        
  13375 ****        16.5000  22.5000  17.2500 Du        
  13376 ****        16.5000  22.7500  16.7500 Du        
  13377 ****        16.5000  22.7500  17.0000 Du        
  13378 ****        16.5000  22.7500  17.2500 Du        
  13379 ****        16.5000  23.0000  16.7500 Du        
  13380 ****        16.5000  23.0000  17.0000 Du        
  13381 ****        16.5000  23.0000  17.2500 Du        
  13382 ****        16.5000  23.2500  17.0000 Du        
  13383 ****        16.5000  23.2500  17.2500 Du        
  13384 ****        16.5000  30.7500  10.2500 Du        
  13385 ****        16.5000  30.7500  10.5000 Du        
  13386 ****        16.5000  30.7500  10.7500 Du        
  13387 ****        16.5000  30.7500  11.0000 Du        
  13388 ****        16.5000  31.0000  10.0000 Du        
  13389 ****        16.5000  31.0000  10.2500 Du        
  13390 ****        16.5000  31.0000  10.5000 Du        
  13391 ****        16.5000  31.0000  10.7500 Du        
  13392 ****        16.5000  31.0000  11.0000 Du        
  13393 ****        16.5000  31.0000  11.2500 Du        
  13394 ****        16.5000  31.2500  10.0000 Du        
  13395 ****        16.5000  31.2500  10.2500 Du        
  13396 ****        16.5000  31.2500  10.5000 Du        
  13397 ****        16.5000  31.2500  10.7500 Du        
  13398 ****        16.5000  31.2500  11.0000 Du        
  13399 ****        16.5000  31.2500  11.2500 Du        
  13400 ****        16.5000  31.5000  10.0000 Du        
  13401 ****        16.5000  31.5000  10.2500 Du        
  13402 ****        16.5000  31.5000  10.5000 Du        
  13403 ****        16.5000  31.5000  10.7500 Du        
  13404 ****        16.5000  31.5000  11.0000 Du        
  13405 ****        16.5000  31.5000  11.2500 Du        
  13406 ****        16.5000  31.5000  11.5000 Du        
  13407 ****        16.5000  31.7500   9.7500 Du        
  13408 ****        16.5000  31.7500  10.0000 Du        
  13409 ****        16.5000  31.7500  10.2500 Du        
  13410 ****        16.5000  31.7500  10.5000 Du        
  13411 ****        16.5000  31.7500  10.7500 Du        
  13412 ****        16.5000  31.7500  11.0000 Du        
  13413 ****        16.5000  31.7500  11.2500 Du        
  13414 ****        16.5000  31.7500  11.5000 Du        
  13415 ****        16.5000  31.7500  11.7500 Du        
  13416 ****        16.5000  32.0000   9.7500 Du        
  13417 ****        16.5000  32.0000  10.0000 Du        
  13418 ****        16.5000  32.0000  10.2500 Du        
  13419 ****        16.5000  32.0000  10.5000 Du        
  13420 ****        16.5000  32.0000  10.7500 Du        
  13421 ****        16.5000  32.0000  11.0000 Du        
  13422 ****        16.5000  32.0000  11.2500 Du        
  13423 ****        16.5000  32.0000  11.5000 Du        
  13424 ****        16.5000  32.0000  11.7500 Du        
  13425 ****        16.5000  32.0000  12.0000 Du        
  13426 ****        16.5000  32.2500   9.7500 Du        
  13427 ****        16.5000  32.2500  10.0000 Du        
  13428 ****        16.5000  32.2500  10.2500 Du        
  13429 ****        16.5000  32.2500  10.5000 Du        
  13430 ****        16.5000  32.2500  10.7500 Du        
  13431 ****        16.5000  32.2500  11.0000 Du        
  13432 ****        16.5000  32.2500  11.2500 Du        
  13433 ****        16.5000  32.2500  11.5000 Du        
  13434 ****        16.5000  32.2500  11.7500 Du        
  13435 ****        16.5000  32.2500  12.0000 Du        
  13436 ****        16.5000  32.5000   9.7500 Du        
  13437 ****        16.5000  32.5000  10.0000 Du        
  13438 ****        16.5000  32.5000  10.2500 Du        
  13439 ****        16.5000  32.5000  10.5000 Du        
  13440 ****        16.5000  32.5000  10.7500 Du        
  13441 ****        16.5000  32.5000  11.0000 Du        
  13442 ****        16.5000  32.5000  11.2500 Du        
  13443 ****        16.5000  32.5000  11.5000 Du        
  13444 ****        16.5000  32.5000  11.7500 Du        
  13445 ****        16.5000  32.5000  12.0000 Du        
  13446 ****        16.5000  32.7500   9.7500 Du        
  13447 ****        16.5000  32.7500  10.0000 Du        
  13448 ****        16.5000  32.7500  10.2500 Du        
  13449 ****        16.5000  32.7500  10.5000 Du        
  13450 ****        16.5000  32.7500  10.7500 Du        
  13451 ****        16.5000  32.7500  11.0000 Du        
  13452 ****        16.5000  32.7500  11.2500 Du        
  13453 ****        16.5000  32.7500  11.5000 Du        
  13454 ****        16.5000  32.7500  11.7500 Du        
  13455 ****        16.5000  32.7500  12.0000 Du        
  13456 ****        16.7500  13.5000  13.5000 Du        
  13457 ****        16.7500  13.7500  13.2500 Du        
  13458 ****        16.7500  13.7500  13.5000 Du        
  13459 ****        16.7500  13.7500  13.7500 Du        
  13460 ****        16.7500  13.7500  14.0000 Du        
  13461 ****        16.7500  13.7500  18.2500 Du        
  13462 ****        16.7500  13.7500  18.5000 Du        
  13463 ****        16.7500  13.7500  18.7500 Du        
  13464 ****        16.7500  13.7500  19.0000 Du        
  13465 ****        16.7500  14.0000  13.0000 Du        
  13466 ****        16.7500  14.0000  13.2500 Du        
  13467 ****        16.7500  14.0000  13.5000 Du        
  13468 ****        16.7500  14.0000  13.7500 Du        
  13469 ****        16.7500  14.0000  17.7500 Du        
  13470 ****        16.7500  14.0000  18.0000 Du        
  13471 ****        16.7500  14.0000  18.2500 Du        
  13472 ****        16.7500  14.0000  18.5000 Du        
  13473 ****        16.7500  14.0000  18.7500 Du        
  13474 ****        16.7500  14.0000  19.0000 Du        
  13475 ****        16.7500  14.2500  13.0000 Du        
  13476 ****        16.7500  14.2500  13.2500 Du        
  13477 ****        16.7500  14.2500  17.2500 Du        
  13478 ****        16.7500  14.2500  17.5000 Du        
  13479 ****        16.7500  14.2500  17.7500 Du        
  13480 ****        16.7500  14.2500  18.0000 Du        
  13481 ****        16.7500  14.2500  18.2500 Du        
  13482 ****        16.7500  14.2500  18.5000 Du        
  13483 ****        16.7500  14.2500  18.7500 Du        
  13484 ****        16.7500  14.2500  19.0000 Du        
  13485 ****        16.7500  14.2500  19.2500 Du        
  13486 ****        16.7500  14.5000  13.0000 Du        
  13487 ****        16.7500  14.5000  17.2500 Du        
  13488 ****        16.7500  14.5000  17.5000 Du        
  13489 ****        16.7500  14.5000  17.7500 Du        
  13490 ****        16.7500  14.5000  18.0000 Du        
  13491 ****        16.7500  14.5000  18.2500 Du        
  13492 ****        16.7500  14.5000  18.5000 Du        
  13493 ****        16.7500  14.5000  18.7500 Du        
  13494 ****        16.7500  14.5000  19.0000 Du        
  13495 ****        16.7500  14.5000  19.2500 Du        
  13496 ****        16.7500  14.7500  17.2500 Du        
  13497 ****        16.7500  14.7500  17.5000 Du        
  13498 ****        16.7500  14.7500  17.7500 Du        
  13499 ****        16.7500  14.7500  18.0000 Du        
  13500 ****        16.7500  14.7500  18.2500 Du        
  13501 ****        16.7500  14.7500  18.5000 Du        
  13502 ****        16.7500  14.7500  18.7500 Du        
  13503 ****        16.7500  14.7500  19.0000 Du        
  13504 ****        16.7500  14.7500  19.2500 Du        
  13505 ****        16.7500  15.0000  17.7500 Du        
  13506 ****        16.7500  15.0000  18.0000 Du        
  13507 ****        16.7500  15.0000  18.2500 Du        
  13508 ****        16.7500  15.0000  18.5000 Du        
  13509 ****        16.7500  15.0000  18.7500 Du        
  13510 ****        16.7500  15.0000  19.0000 Du        
  13511 ****        16.7500  15.2500  18.0000 Du        
  13512 ****        16.7500  15.2500  18.2500 Du        
  13513 ****        16.7500  15.2500  18.5000 Du        
  13514 ****        16.7500  15.2500  18.7500 Du        
  13515 ****        16.7500  15.2500  19.0000 Du        
  13516 ****        16.7500  15.5000   4.7500 Du        
  13517 ****        16.7500  15.5000   5.0000 Du        
  13518 ****        16.7500  15.5000   5.2500 Du        
  13519 ****        16.7500  15.5000   5.5000 Du        
  13520 ****        16.7500  15.5000  18.2500 Du        
  13521 ****        16.7500  15.5000  18.5000 Du        
  13522 ****        16.7500  15.7500   4.7500 Du        
  13523 ****        16.7500  15.7500   5.0000 Du        
  13524 ****        16.7500  17.5000  29.0000 Du        
  13525 ****        16.7500  17.7500  29.0000 Du        
  13526 ****        16.7500  17.7500  29.2500 Du        
  13527 ****        16.7500  17.7500  29.5000 Du        
  13528 ****        16.7500  17.7500  29.7500 Du        
  13529 ****        16.7500  18.0000  29.0000 Du        
  13530 ****        16.7500  18.0000  29.2500 Du        
  13531 ****        16.7500  18.0000  29.5000 Du        
  13532 ****        16.7500  18.0000  29.7500 Du        
  13533 ****        16.7500  18.2500  29.0000 Du        
  13534 ****        16.7500  18.2500  29.2500 Du        
  13535 ****        16.7500  18.2500  29.5000 Du        
  13536 ****        16.7500  18.2500  29.7500 Du        
  13537 ****        16.7500  18.2500  30.0000 Du        
  13538 ****        16.7500  18.5000  29.0000 Du        
  13539 ****        16.7500  18.5000  29.2500 Du        
  13540 ****        16.7500  18.5000  29.5000 Du        
  13541 ****        16.7500  18.5000  29.7500 Du        
  13542 ****        16.7500  18.5000  30.0000 Du        
  13543 ****        16.7500  18.7500  29.0000 Du        
  13544 ****        16.7500  18.7500  29.2500 Du        
  13545 ****        16.7500  18.7500  29.5000 Du        
  13546 ****        16.7500  18.7500  29.7500 Du        
  13547 ****        16.7500  18.7500  30.0000 Du        
  13548 ****        16.7500  19.0000  29.0000 Du        
  13549 ****        16.7500  19.0000  29.2500 Du        
  13550 ****        16.7500  19.0000  29.5000 Du        
  13551 ****        16.7500  19.0000  29.7500 Du        
  13552 ****        16.7500  19.0000  30.0000 Du        
  13553 ****        16.7500  19.2500  29.0000 Du        
  13554 ****        16.7500  19.2500  29.2500 Du        
  13555 ****        16.7500  19.2500  29.5000 Du        
  13556 ****        16.7500  19.2500  29.7500 Du        
  13557 ****        16.7500  19.2500  30.0000 Du        
  13558 ****        16.7500  19.5000  29.5000 Du        
  13559 ****        16.7500  19.5000  29.7500 Du        
  13560 ****        16.7500  19.5000  30.0000 Du        
  13561 ****        16.7500  19.7500  29.5000 Du        
  13562 ****        16.7500  19.7500  29.7500 Du        
  13563 ****        16.7500  19.7500  30.0000 Du        
  13564 ****        16.7500  20.0000  29.5000 Du        
  13565 ****        16.7500  20.0000  29.7500 Du        
  13566 ****        16.7500  21.7500  16.7500 Du        
  13567 ****        16.7500  21.7500  17.0000 Du        
  13568 ****        16.7500  22.0000  16.7500 Du        
  13569 ****        16.7500  22.0000  17.0000 Du        
  13570 ****        16.7500  22.0000  17.2500 Du        
  13571 ****        16.7500  22.2500  16.7500 Du        
  13572 ****        16.7500  22.2500  17.0000 Du        
  13573 ****        16.7500  22.2500  17.2500 Du        
  13574 ****        16.7500  22.2500  17.5000 Du        
  13575 ****        16.7500  22.5000  16.7500 Du        
  13576 ****        16.7500  22.5000  17.0000 Du        
  13577 ****        16.7500  22.5000  17.2500 Du        
  13578 ****        16.7500  22.5000  17.5000 Du        
  13579 ****        16.7500  22.7500  16.7500 Du        
  13580 ****        16.7500  22.7500  17.0000 Du        
  13581 ****        16.7500  22.7500  17.2500 Du        
  13582 ****        16.7500  22.7500  17.5000 Du        
  13583 ****        16.7500  23.0000  17.0000 Du        
  13584 ****        16.7500  23.0000  17.2500 Du        
  13585 ****        16.7500  23.0000  17.5000 Du        
  13586 ****        16.7500  23.2500  17.0000 Du        
  13587 ****        16.7500  23.2500  17.2500 Du        
  13588 ****        16.7500  30.5000  10.2500 Du        
  13589 ****        16.7500  30.7500  10.0000 Du        
  13590 ****        16.7500  30.7500  10.2500 Du        
  13591 ****        16.7500  30.7500  10.5000 Du        
  13592 ****        16.7500  30.7500  10.7500 Du        
  13593 ****        16.7500  30.7500  11.0000 Du        
  13594 ****        16.7500  31.0000   9.7500 Du        
  13595 ****        16.7500  31.0000  10.0000 Du        
  13596 ****        16.7500  31.0000  10.2500 Du        
  13597 ****        16.7500  31.0000  10.5000 Du        
  13598 ****        16.7500  31.0000  10.7500 Du        
  13599 ****        16.7500  31.0000  11.0000 Du        
  13600 ****        16.7500  31.0000  11.2500 Du        
  13601 ****        16.7500  31.2500   9.7500 Du        
  13602 ****        16.7500  31.2500  10.0000 Du        
  13603 ****        16.7500  31.2500  10.2500 Du        
  13604 ****        16.7500  31.2500  10.5000 Du        
  13605 ****        16.7500  31.2500  10.7500 Du        
  13606 ****        16.7500  31.2500  11.0000 Du        
  13607 ****        16.7500  31.2500  11.2500 Du        
  13608 ****        16.7500  31.5000   9.7500 Du        
  13609 ****        16.7500  31.5000  10.0000 Du        
  13610 ****        16.7500  31.5000  10.2500 Du        
  13611 ****        16.7500  31.5000  10.5000 Du        
  13612 ****        16.7500  31.5000  10.7500 Du        
  13613 ****        16.7500  31.5000  11.0000 Du        
  13614 ****        16.7500  31.5000  11.2500 Du        
  13615 ****        16.7500  31.7500   9.7500 Du        
  13616 ****        16.7500  31.7500  10.0000 Du        
  13617 ****        16.7500  31.7500  10.2500 Du        
  13618 ****        16.7500  31.7500  10.5000 Du        
  13619 ****        16.7500  31.7500  10.7500 Du        
  13620 ****        16.7500  31.7500  11.0000 Du        
  13621 ****        16.7500  31.7500  11.2500 Du        
  13622 ****        16.7500  31.7500  11.5000 Du        
  13623 ****        16.7500  31.7500  11.7500 Du        
  13624 ****        16.7500  32.0000   9.7500 Du        
  13625 ****        16.7500  32.0000  10.0000 Du        
  13626 ****        16.7500  32.0000  10.2500 Du        
  13627 ****        16.7500  32.0000  10.5000 Du        
  13628 ****        16.7500  32.0000  10.7500 Du        
  13629 ****        16.7500  32.0000  11.0000 Du        
  13630 ****        16.7500  32.0000  11.2500 Du        
  13631 ****        16.7500  32.0000  11.5000 Du        
  13632 ****        16.7500  32.0000  11.7500 Du        
  13633 ****        16.7500  32.0000  12.0000 Du        
  13634 ****        16.7500  32.2500   9.7500 Du        
  13635 ****        16.7500  32.2500  10.0000 Du        
  13636 ****        16.7500  32.2500  10.2500 Du        
  13637 ****        16.7500  32.2500  10.5000 Du        
  13638 ****        16.7500  32.2500  10.7500 Du        
  13639 ****        16.7500  32.2500  11.0000 Du        
  13640 ****        16.7500  32.2500  11.2500 Du        
  13641 ****        16.7500  32.2500  11.5000 Du        
  13642 ****        16.7500  32.2500  11.7500 Du        
  13643 ****        16.7500  32.2500  12.0000 Du        
  13644 ****        16.7500  32.5000   9.7500 Du        
  13645 ****        16.7500  32.5000  10.0000 Du        
  13646 ****        16.7500  32.5000  10.2500 Du        
  13647 ****        16.7500  32.5000  10.5000 Du        
  13648 ****        16.7500  32.5000  10.7500 Du        
  13649 ****        16.7500  32.5000  11.0000 Du        
  13650 ****        16.7500  32.5000  11.2500 Du        
  13651 ****        16.7500  32.5000  11.5000 Du        
  13652 ****        16.7500  32.5000  11.7500 Du        
  13653 ****        16.7500  32.5000  12.0000 Du        
  13654 ****        16.7500  32.7500   9.7500 Du        
  13655 ****        16.7500  32.7500  10.0000 Du        
  13656 ****        16.7500  32.7500  10.2500 Du        
  13657 ****        16.7500  32.7500  10.5000 Du        
  13658 ****        16.7500  32.7500  10.7500 Du        
  13659 ****        16.7500  32.7500  11.0000 Du        
  13660 ****        16.7500  32.7500  11.2500 Du        
  13661 ****        17.0000  13.7500  13.2500 Du        
  13662 ****        17.0000  13.7500  13.5000 Du        
  13663 ****        17.0000  13.7500  13.7500 Du        
  13664 ****        17.0000  13.7500  18.2500 Du        
  13665 ****        17.0000  13.7500  18.5000 Du        
  13666 ****        17.0000  13.7500  18.7500 Du        
  13667 ****        17.0000  13.7500  19.0000 Du        
  13668 ****        17.0000  14.0000  13.2500 Du        
  13669 ****        17.0000  14.0000  13.5000 Du        
  13670 ****        17.0000  14.0000  17.7500 Du        
  13671 ****        17.0000  14.0000  18.0000 Du        
  13672 ****        17.0000  14.0000  18.2500 Du        
  13673 ****        17.0000  14.0000  18.5000 Du        
  13674 ****        17.0000  14.0000  18.7500 Du        
  13675 ****        17.0000  14.0000  19.0000 Du        
  13676 ****        17.0000  14.2500  13.0000 Du        
  13677 ****        17.0000  14.2500  13.2500 Du        
  13678 ****        17.0000  14.2500  17.2500 Du        
  13679 ****        17.0000  14.2500  17.5000 Du        
  13680 ****        17.0000  14.2500  17.7500 Du        
  13681 ****        17.0000  14.2500  18.0000 Du        
  13682 ****        17.0000  14.2500  18.2500 Du        
  13683 ****        17.0000  14.2500  18.5000 Du        
  13684 ****        17.0000  14.2500  18.7500 Du        
  13685 ****        17.0000  14.2500  19.0000 Du        
  13686 ****        17.0000  14.2500  19.2500 Du        
  13687 ****        17.0000  14.5000  12.7500 Du        
  13688 ****        17.0000  14.5000  13.0000 Du        
  13689 ****        17.0000  14.5000  17.2500 Du        
  13690 ****        17.0000  14.5000  17.5000 Du        
  13691 ****        17.0000  14.5000  17.7500 Du        
  13692 ****        17.0000  14.5000  18.0000 Du        
  13693 ****        17.0000  14.5000  18.2500 Du        
  13694 ****        17.0000  14.5000  18.5000 Du        
  13695 ****        17.0000  14.5000  18.7500 Du        
  13696 ****        17.0000  14.5000  19.0000 Du        
  13697 ****        17.0000  14.5000  19.2500 Du        
  13698 ****        17.0000  14.7500  12.7500 Du        
  13699 ****        17.0000  14.7500  17.2500 Du        
  13700 ****        17.0000  14.7500  17.5000 Du        
  13701 ****        17.0000  14.7500  17.7500 Du        
  13702 ****        17.0000  14.7500  18.0000 Du        
  13703 ****        17.0000  14.7500  18.2500 Du        
  13704 ****        17.0000  14.7500  18.5000 Du        
  13705 ****        17.0000  14.7500  18.7500 Du        
  13706 ****        17.0000  14.7500  19.0000 Du        
  13707 ****        17.0000  14.7500  19.2500 Du        
  13708 ****        17.0000  15.0000  17.5000 Du        
  13709 ****        17.0000  15.0000  17.7500 Du        
  13710 ****        17.0000  15.0000  18.0000 Du        
  13711 ****        17.0000  15.0000  18.2500 Du        
  13712 ****        17.0000  15.0000  18.5000 Du        
  13713 ****        17.0000  15.0000  18.7500 Du        
  13714 ****        17.0000  15.0000  19.0000 Du        
  13715 ****        17.0000  15.2500  17.7500 Du        
  13716 ****        17.0000  15.2500  18.0000 Du        
  13717 ****        17.0000  15.2500  18.2500 Du        
  13718 ****        17.0000  15.2500  18.5000 Du        
  13719 ****        17.0000  15.2500  18.7500 Du        
  13720 ****        17.0000  15.2500  19.0000 Du        
  13721 ****        17.0000  15.5000  18.0000 Du        
  13722 ****        17.0000  15.5000  18.2500 Du        
  13723 ****        17.0000  15.5000  18.5000 Du        
  13724 ****        17.0000  15.5000  18.7500 Du        
  13725 ****        17.0000  17.7500  29.2500 Du        
  13726 ****        17.0000  17.7500  29.5000 Du        
  13727 ****        17.0000  17.7500  29.7500 Du        
  13728 ****        17.0000  18.0000  29.2500 Du        
  13729 ****        17.0000  18.0000  29.5000 Du        
  13730 ****        17.0000  18.0000  29.7500 Du        
  13731 ****        17.0000  18.2500  29.2500 Du        
  13732 ****        17.0000  18.2500  29.5000 Du        
  13733 ****        17.0000  18.2500  29.7500 Du        
  13734 ****        17.0000  18.2500  30.0000 Du        
  13735 ****        17.0000  18.5000  29.2500 Du        
  13736 ****        17.0000  18.5000  29.5000 Du        
  13737 ****        17.0000  18.5000  29.7500 Du        
  13738 ****        17.0000  18.5000  30.0000 Du        
  13739 ****        17.0000  18.7500  29.2500 Du        
  13740 ****        17.0000  18.7500  29.5000 Du        
  13741 ****        17.0000  18.7500  29.7500 Du        
  13742 ****        17.0000  18.7500  30.0000 Du        
  13743 ****        17.0000  19.0000  29.2500 Du        
  13744 ****        17.0000  19.0000  29.5000 Du        
  13745 ****        17.0000  19.0000  29.7500 Du        
  13746 ****        17.0000  19.0000  30.0000 Du        
  13747 ****        17.0000  19.2500  29.2500 Du        
  13748 ****        17.0000  19.2500  29.5000 Du        
  13749 ****        17.0000  19.2500  29.7500 Du        
  13750 ****        17.0000  19.2500  30.0000 Du        
  13751 ****        17.0000  19.5000  29.5000 Du        
  13752 ****        17.0000  19.5000  29.7500 Du        
  13753 ****        17.0000  19.5000  30.0000 Du        
  13754 ****        17.0000  19.7500  29.5000 Du        
  13755 ****        17.0000  19.7500  29.7500 Du        
  13756 ****        17.0000  19.7500  30.0000 Du        
  13757 ****        17.0000  20.0000  29.7500 Du        
  13758 ****        17.0000  20.2500  29.7500 Du        
  13759 ****        17.0000  22.0000  16.7500 Du        
  13760 ****        17.0000  22.0000  17.0000 Du        
  13761 ****        17.0000  22.0000  17.2500 Du        
  13762 ****        17.0000  22.2500  16.7500 Du        
  13763 ****        17.0000  22.2500  17.0000 Du        
  13764 ****        17.0000  22.2500  17.2500 Du        
  13765 ****        17.0000  22.2500  17.5000 Du        
  13766 ****        17.0000  22.5000  16.7500 Du        
  13767 ****        17.0000  22.5000  17.0000 Du        
  13768 ****        17.0000  22.5000  17.2500 Du        
  13769 ****        17.0000  22.5000  17.5000 Du        
  13770 ****        17.0000  22.7500  17.0000 Du        
  13771 ****        17.0000  22.7500  17.2500 Du        
  13772 ****        17.0000  22.7500  17.5000 Du        
  13773 ****        17.0000  23.0000  17.0000 Du        
  13774 ****        17.0000  23.0000  17.2500 Du        
  13775 ****        17.0000  23.0000  17.5000 Du        
  13776 ****        17.0000  23.2500  17.0000 Du        
  13777 ****        17.0000  23.2500  17.2500 Du        
  13778 ****        17.0000  30.0000   9.7500 Du        
  13779 ****        17.0000  30.0000  10.2500 Du        
  13780 ****        17.0000  30.2500   9.7500 Du        
  13781 ****        17.0000  30.2500  10.0000 Du        
  13782 ****        17.0000  30.2500  10.2500 Du        
  13783 ****        17.0000  30.5000  10.0000 Du        
  13784 ****        17.0000  30.5000  10.2500 Du        
  13785 ****        17.0000  30.7500   9.7500 Du        
  13786 ****        17.0000  30.7500  10.0000 Du        
  13787 ****        17.0000  30.7500  10.2500 Du        
  13788 ****        17.0000  31.0000   9.7500 Du        
  13789 ****        17.0000  31.0000  10.0000 Du        
  13790 ****        17.0000  31.0000  10.2500 Du        
  13791 ****        17.0000  31.0000  10.5000 Du        
  13792 ****        17.0000  31.0000  10.7500 Du        
  13793 ****        17.0000  31.0000  11.0000 Du        
  13794 ****        17.0000  31.2500   9.7500 Du        
  13795 ****        17.0000  31.2500  10.0000 Du        
  13796 ****        17.0000  31.2500  10.2500 Du        
  13797 ****        17.0000  31.2500  10.5000 Du        
  13798 ****        17.0000  31.2500  10.7500 Du        
  13799 ****        17.0000  31.2500  11.0000 Du        
  13800 ****        17.0000  31.5000   9.7500 Du        
  13801 ****        17.0000  31.5000  10.0000 Du        
  13802 ****        17.0000  31.5000  10.2500 Du        
  13803 ****        17.0000  31.5000  10.5000 Du        
  13804 ****        17.0000  31.5000  10.7500 Du        
  13805 ****        17.0000  31.5000  11.0000 Du        
  13806 ****        17.0000  31.5000  11.2500 Du        
  13807 ****        17.0000  31.7500   9.7500 Du        
  13808 ****        17.0000  31.7500  10.0000 Du        
  13809 ****        17.0000  31.7500  10.2500 Du        
  13810 ****        17.0000  31.7500  10.5000 Du        
  13811 ****        17.0000  31.7500  10.7500 Du        
  13812 ****        17.0000  31.7500  11.0000 Du        
  13813 ****        17.0000  31.7500  11.2500 Du        
  13814 ****        17.0000  31.7500  11.5000 Du        
  13815 ****        17.0000  32.0000   9.7500 Du        
  13816 ****        17.0000  32.0000  10.0000 Du        
  13817 ****        17.0000  32.0000  10.2500 Du        
  13818 ****        17.0000  32.0000  10.5000 Du        
  13819 ****        17.0000  32.0000  10.7500 Du        
  13820 ****        17.0000  32.0000  11.0000 Du        
  13821 ****        17.0000  32.0000  11.2500 Du        
  13822 ****        17.0000  32.0000  11.5000 Du        
  13823 ****        17.0000  32.0000  11.7500 Du        
  13824 ****        17.0000  32.2500   9.7500 Du        
  13825 ****        17.0000  32.2500  10.0000 Du        
  13826 ****        17.0000  32.2500  10.2500 Du        
  13827 ****        17.0000  32.2500  10.5000 Du        
  13828 ****        17.0000  32.2500  10.7500 Du        
  13829 ****        17.0000  32.2500  11.0000 Du        
  13830 ****        17.0000  32.2500  11.2500 Du        
  13831 ****        17.0000  32.2500  11.5000 Du        
  13832 ****        17.0000  32.2500  11.7500 Du        
  13833 ****        17.0000  32.5000  10.0000 Du        
  13834 ****        17.0000  32.5000  10.2500 Du        
  13835 ****        17.0000  32.5000  10.5000 Du        
  13836 ****        17.0000  32.5000  10.7500 Du        
  13837 ****        17.0000  32.5000  11.0000 Du        
  13838 ****        17.0000  32.5000  11.2500 Du        
  13839 ****        17.0000  32.5000  11.5000 Du        
  13840 ****        17.0000  32.5000  11.7500 Du        
  13841 ****        17.0000  32.7500  10.0000 Du        
  13842 ****        17.0000  32.7500  10.2500 Du        
  13843 ****        17.2500  13.7500  18.5000 Du        
  13844 ****        17.2500  13.7500  18.7500 Du        
  13845 ****        17.2500  13.7500  19.0000 Du        
  13846 ****        17.2500  14.0000  13.2500 Du        
  13847 ****        17.2500  14.0000  13.5000 Du        
  13848 ****        17.2500  14.0000  17.7500 Du        
  13849 ****        17.2500  14.0000  18.0000 Du        
  13850 ****        17.2500  14.0000  18.2500 Du        
  13851 ****        17.2500  14.0000  18.5000 Du        
  13852 ****        17.2500  14.0000  18.7500 Du        
  13853 ****        17.2500  14.0000  19.0000 Du        
  13854 ****        17.2500  14.2500  13.0000 Du        
  13855 ****        17.2500  14.2500  13.2500 Du        
  13856 ****        17.2500  14.2500  17.5000 Du        
  13857 ****        17.2500  14.2500  17.7500 Du        
  13858 ****        17.2500  14.2500  18.0000 Du        
  13859 ****        17.2500  14.2500  18.2500 Du        
  13860 ****        17.2500  14.2500  18.5000 Du        
  13861 ****        17.2500  14.2500  18.7500 Du        
  13862 ****        17.2500  14.2500  19.0000 Du        
  13863 ****        17.2500  14.2500  19.2500 Du        
  13864 ****        17.2500  14.5000  12.7500 Du        
  13865 ****        17.2500  14.5000  13.0000 Du        
  13866 ****        17.2500  14.5000  17.2500 Du        
  13867 ****        17.2500  14.5000  17.5000 Du        
  13868 ****        17.2500  14.5000  17.7500 Du        
  13869 ****        17.2500  14.5000  18.0000 Du        
  13870 ****        17.2500  14.5000  18.2500 Du        
  13871 ****        17.2500  14.5000  18.5000 Du        
  13872 ****        17.2500  14.5000  18.7500 Du        
  13873 ****        17.2500  14.5000  19.0000 Du        
  13874 ****        17.2500  14.5000  19.2500 Du        
  13875 ****        17.2500  14.7500  12.7500 Du        
  13876 ****        17.2500  14.7500  13.0000 Du        
  13877 ****        17.2500  14.7500  17.2500 Du        
  13878 ****        17.2500  14.7500  17.5000 Du        
  13879 ****        17.2500  14.7500  17.7500 Du        
  13880 ****        17.2500  14.7500  18.0000 Du        
  13881 ****        17.2500  14.7500  18.2500 Du        
  13882 ****        17.2500  14.7500  18.5000 Du        
  13883 ****        17.2500  14.7500  18.7500 Du        
  13884 ****        17.2500  14.7500  19.0000 Du        
  13885 ****        17.2500  14.7500  19.2500 Du        
  13886 ****        17.2500  15.0000  12.7500 Du        
  13887 ****        17.2500  15.0000  17.5000 Du        
  13888 ****        17.2500  15.0000  17.7500 Du        
  13889 ****        17.2500  15.0000  18.0000 Du        
  13890 ****        17.2500  15.0000  18.2500 Du        
  13891 ****        17.2500  15.0000  18.5000 Du        
  13892 ****        17.2500  15.0000  18.7500 Du        
  13893 ****        17.2500  15.0000  19.0000 Du        
  13894 ****        17.2500  15.0000  19.2500 Du        
  13895 ****        17.2500  15.2500  17.5000 Du        
  13896 ****        17.2500  15.2500  17.7500 Du        
  13897 ****        17.2500  15.2500  18.0000 Du        
  13898 ****        17.2500  15.2500  18.2500 Du        
  13899 ****        17.2500  15.2500  18.5000 Du        
  13900 ****        17.2500  15.2500  18.7500 Du        
  13901 ****        17.2500  15.2500  19.0000 Du        
  13902 ****        17.2500  15.5000  17.7500 Du        
  13903 ****        17.2500  15.5000  18.0000 Du        
  13904 ****        17.2500  15.5000  18.2500 Du        
  13905 ****        17.2500  15.5000  18.5000 Du        
  13906 ****        17.2500  15.5000  18.7500 Du        
  13907 ****        17.2500  15.7500  18.0000 Du        
  13908 ****        17.2500  15.7500  18.2500 Du        
  13909 ****        17.2500  18.0000  29.5000 Du        
  13910 ****        17.2500  18.0000  29.7500 Du        
  13911 ****        17.2500  18.2500  29.5000 Du        
  13912 ****        17.2500  18.2500  29.7500 Du        
  13913 ****        17.2500  18.5000  29.5000 Du        
  13914 ****        17.2500  18.5000  29.7500 Du        
  13915 ****        17.2500  18.5000  30.0000 Du        
  13916 ****        17.2500  18.7500  29.2500 Du        
  13917 ****        17.2500  18.7500  29.5000 Du        
  13918 ****        17.2500  18.7500  29.7500 Du        
  13919 ****        17.2500  18.7500  30.0000 Du        
  13920 ****        17.2500  19.0000  29.2500 Du        
  13921 ****        17.2500  19.0000  29.5000 Du        
  13922 ****        17.2500  19.0000  29.7500 Du        
  13923 ****        17.2500  19.0000  30.0000 Du        
  13924 ****        17.2500  19.2500  29.5000 Du        
  13925 ****        17.2500  19.2500  29.7500 Du        
  13926 ****        17.2500  19.2500  30.0000 Du        
  13927 ****        17.2500  19.5000  29.5000 Du        
  13928 ****        17.2500  19.5000  29.7500 Du        
  13929 ****        17.2500  19.5000  30.0000 Du        
  13930 ****        17.2500  19.7500  29.5000 Du        
  13931 ****        17.2500  19.7500  29.7500 Du        
  13932 ****        17.2500  19.7500  30.0000 Du        
  13933 ****        17.2500  20.0000  29.7500 Du        
  13934 ****        17.2500  22.0000  17.0000 Du        
  13935 ****        17.2500  22.0000  17.2500 Du        
  13936 ****        17.2500  22.2500  17.0000 Du        
  13937 ****        17.2500  22.2500  17.2500 Du        
  13938 ****        17.2500  22.2500  17.5000 Du        
  13939 ****        17.2500  22.5000  17.0000 Du        
  13940 ****        17.2500  22.5000  17.2500 Du        
  13941 ****        17.2500  22.5000  17.5000 Du        
  13942 ****        17.2500  22.7500  17.0000 Du        
  13943 ****        17.2500  22.7500  17.2500 Du        
  13944 ****        17.2500  22.7500  17.5000 Du        
  13945 ****        17.2500  22.7500  17.7500 Du        
  13946 ****        17.2500  23.0000  17.0000 Du        
  13947 ****        17.2500  23.0000  17.2500 Du        
  13948 ****        17.2500  23.0000  17.5000 Du        
  13949 ****        17.2500  23.0000  17.7500 Du        
  13950 ****        17.2500  23.2500  17.2500 Du        
  13951 ****        17.2500  23.2500  17.5000 Du        
  13952 ****        17.2500  29.2500   9.0000 Du        
  13953 ****        17.2500  29.2500   9.2500 Du        
  13954 ****        17.2500  29.2500   9.5000 Du        
  13955 ****        17.2500  29.2500   9.7500 Du        
  13956 ****        17.2500  29.5000   9.0000 Du        
  13957 ****        17.2500  29.5000   9.2500 Du        
  13958 ****        17.2500  29.5000   9.5000 Du        
  13959 ****        17.2500  29.5000   9.7500 Du        
  13960 ****        17.2500  29.7500   9.2500 Du        
  13961 ****        17.2500  29.7500   9.5000 Du        
  13962 ****        17.2500  29.7500   9.7500 Du        
  13963 ****        17.2500  30.0000   9.5000 Du        
  13964 ****        17.2500  30.0000   9.7500 Du        
  13965 ****        17.2500  30.0000  10.0000 Du        
  13966 ****        17.2500  30.2500   9.7500 Du        
  13967 ****        17.2500  30.7500  10.0000 Du        
  13968 ****        17.2500  30.7500  10.2500 Du        
  13969 ****        17.2500  31.0000  10.0000 Du        
  13970 ****        17.2500  31.0000  10.2500 Du        
  13971 ****        17.2500  31.2500  10.0000 Du        
  13972 ****        17.2500  31.2500  10.2500 Du        
  13973 ****        17.2500  31.2500  10.5000 Du        
  13974 ****        17.2500  31.2500  10.7500 Du        
  13975 ****        17.2500  31.5000  10.0000 Du        
  13976 ****        17.2500  31.5000  10.2500 Du        
  13977 ****        17.2500  31.5000  10.5000 Du        
  13978 ****        17.2500  31.7500  10.0000 Du        
  13979 ****        17.2500  31.7500  10.2500 Du        
  13980 ****        17.2500  31.7500  10.5000 Du        
  13981 ****        17.2500  31.7500  10.7500 Du        
  13982 ****        17.2500  31.7500  11.0000 Du        
  13983 ****        17.2500  31.7500  11.2500 Du        
  13984 ****        17.2500  32.0000  10.0000 Du        
  13985 ****        17.2500  32.0000  10.2500 Du        
  13986 ****        17.2500  32.0000  10.5000 Du        
  13987 ****        17.2500  32.0000  10.7500 Du        
  13988 ****        17.2500  32.0000  11.0000 Du        
  13989 ****        17.2500  32.0000  11.2500 Du        
  13990 ****        17.2500  32.2500  10.0000 Du        
  13991 ****        17.2500  32.2500  10.2500 Du        
  13992 ****        17.2500  32.2500  10.5000 Du        
  13993 ****        17.2500  32.2500  10.7500 Du        
  13994 ****        17.2500  32.2500  11.0000 Du        
  13995 ****        17.2500  32.2500  11.2500 Du        
  13996 ****        17.2500  32.5000  10.0000 Du        
  13997 ****        17.2500  32.5000  10.2500 Du        
  13998 ****        17.2500  32.5000  10.5000 Du        
  13999 ****        17.2500  32.5000  10.7500 Du        
  14000 ****        17.2500  32.5000  11.0000 Du        
  14001 ****        17.2500  32.5000  11.2500 Du        
  14002 ****        17.5000  14.0000  18.5000 Du        
  14003 ****        17.5000  14.0000  18.7500 Du        
  14004 ****        17.5000  14.0000  19.0000 Du        
  14005 ****        17.5000  14.0000  19.2500 Du        
  14006 ****        17.5000  14.2500  18.5000 Du        
  14007 ****        17.5000  14.2500  18.7500 Du        
  14008 ****        17.5000  14.2500  19.0000 Du        
  14009 ****        17.5000  14.2500  19.2500 Du        
  14010 ****        17.5000  14.5000  12.7500 Du        
  14011 ****        17.5000  14.5000  13.0000 Du        
  14012 ****        17.5000  14.5000  17.5000 Du        
  14013 ****        17.5000  14.5000  17.7500 Du        
  14014 ****        17.5000  14.5000  18.0000 Du        
  14015 ****        17.5000  14.5000  18.2500 Du        
  14016 ****        17.5000  14.5000  18.5000 Du        
  14017 ****        17.5000  14.5000  18.7500 Du        
  14018 ****        17.5000  14.5000  19.0000 Du        
  14019 ****        17.5000  14.5000  19.2500 Du        
  14020 ****        17.5000  14.7500  12.7500 Du        
  14021 ****        17.5000  14.7500  13.0000 Du        
  14022 ****        17.5000  14.7500  17.5000 Du        
  14023 ****        17.5000  14.7500  17.7500 Du        
  14024 ****        17.5000  14.7500  18.0000 Du        
  14025 ****        17.5000  14.7500  18.2500 Du        
  14026 ****        17.5000  14.7500  18.5000 Du        
  14027 ****        17.5000  14.7500  18.7500 Du        
  14028 ****        17.5000  14.7500  19.0000 Du        
  14029 ****        17.5000  14.7500  19.2500 Du        
  14030 ****        17.5000  15.0000  12.7500 Du        
  14031 ****        17.5000  15.0000  17.5000 Du        
  14032 ****        17.5000  15.0000  17.7500 Du        
  14033 ****        17.5000  15.0000  18.0000 Du        
  14034 ****        17.5000  15.0000  18.2500 Du        
  14035 ****        17.5000  15.0000  18.5000 Du        
  14036 ****        17.5000  15.0000  18.7500 Du        
  14037 ****        17.5000  15.0000  19.0000 Du        
  14038 ****        17.5000  15.0000  19.2500 Du        
  14039 ****        17.5000  15.2500  17.5000 Du        
  14040 ****        17.5000  15.2500  17.7500 Du        
  14041 ****        17.5000  15.2500  18.0000 Du        
  14042 ****        17.5000  15.2500  18.2500 Du        
  14043 ****        17.5000  15.2500  18.5000 Du        
  14044 ****        17.5000  15.2500  18.7500 Du        
  14045 ****        17.5000  15.2500  19.0000 Du        
  14046 ****        17.5000  15.5000  17.7500 Du        
  14047 ****        17.5000  15.5000  18.0000 Du        
  14048 ****        17.5000  15.5000  18.2500 Du        
  14049 ****        17.5000  15.5000  18.5000 Du        
  14050 ****        17.5000  15.5000  18.7500 Du        
  14051 ****        17.5000  15.7500  18.0000 Du        
  14052 ****        17.5000  15.7500  18.2500 Du        
  14053 ****        17.5000  18.2500  29.7500 Du        
  14054 ****        17.5000  18.5000  29.5000 Du        
  14055 ****        17.5000  18.5000  29.7500 Du        
  14056 ****        17.5000  18.5000  30.0000 Du        
  14057 ****        17.5000  18.7500  29.5000 Du        
  14058 ****        17.5000  18.7500  29.7500 Du        
  14059 ****        17.5000  18.7500  30.0000 Du        
  14060 ****        17.5000  19.0000  29.5000 Du        
  14061 ****        17.5000  19.0000  29.7500 Du        
  14062 ****        17.5000  19.0000  30.0000 Du        
  14063 ****        17.5000  19.2500  29.5000 Du        
  14064 ****        17.5000  19.2500  29.7500 Du        
  14065 ****        17.5000  19.2500  30.0000 Du        
  14066 ****        17.5000  19.5000  29.7500 Du        
  14067 ****        17.5000  19.5000  30.0000 Du        
  14068 ****        17.5000  19.7500  29.7500 Du        
  14069 ****        17.5000  22.2500  17.0000 Du        
  14070 ****        17.5000  22.2500  17.2500 Du        
  14071 ****        17.5000  22.2500  17.5000 Du        
  14072 ****        17.5000  22.5000  17.0000 Du        
  14073 ****        17.5000  22.5000  17.2500 Du        
  14074 ****        17.5000  22.5000  17.5000 Du        
  14075 ****        17.5000  22.5000  17.7500 Du        
  14076 ****        17.5000  22.7500  17.0000 Du        
  14077 ****        17.5000  22.7500  17.2500 Du        
  14078 ****        17.5000  22.7500  17.5000 Du        
  14079 ****        17.5000  22.7500  17.7500 Du        
  14080 ****        17.5000  23.0000  17.0000 Du        
  14081 ****        17.5000  23.0000  17.2500 Du        
  14082 ****        17.5000  23.0000  17.5000 Du        
  14083 ****        17.5000  23.0000  17.7500 Du        
  14084 ****        17.5000  23.0000  18.0000 Du        
  14085 ****        17.5000  23.2500  17.2500 Du        
  14086 ****        17.5000  23.2500  17.5000 Du        
  14087 ****        17.5000  23.2500  17.7500 Du        
  14088 ****        17.5000  23.2500  18.0000 Du        
  14089 ****        17.5000  28.5000   8.0000 Du        
  14090 ****        17.5000  28.7500   8.2500 Du        
  14091 ****        17.5000  29.0000   8.5000 Du        
  14092 ****        17.5000  29.0000   8.7500 Du        
  14093 ****        17.5000  29.0000   9.0000 Du        
  14094 ****        17.5000  29.0000   9.2500 Du        
  14095 ****        17.5000  29.2500   8.7500 Du        
  14096 ****        17.5000  29.2500   9.0000 Du        
  14097 ****        17.5000  29.2500   9.2500 Du        
  14098 ****        17.5000  29.5000   9.2500 Du        
  14099 ****        17.5000  29.7500   9.2500 Du        
  14100 ****        17.7500  14.0000  18.5000 Du        
  14101 ****        17.7500  14.0000  18.7500 Du        
  14102 ****        17.7500  14.0000  19.0000 Du        
  14103 ****        17.7500  14.0000  19.2500 Du        
  14104 ****        17.7500  14.2500  18.5000 Du        
  14105 ****        17.7500  14.2500  18.7500 Du        
  14106 ****        17.7500  14.2500  19.0000 Du        
  14107 ****        17.7500  14.2500  19.2500 Du        
  14108 ****        17.7500  14.5000  12.7500 Du        
  14109 ****        17.7500  14.5000  13.0000 Du        
  14110 ****        17.7500  14.5000  13.2500 Du        
  14111 ****        17.7500  14.5000  13.5000 Du        
  14112 ****        17.7500  14.5000  17.5000 Du        
  14113 ****        17.7500  14.5000  17.7500 Du        
  14114 ****        17.7500  14.5000  18.0000 Du        
  14115 ****        17.7500  14.5000  18.2500 Du        
  14116 ****        17.7500  14.5000  18.5000 Du        
  14117 ****        17.7500  14.5000  18.7500 Du        
  14118 ****        17.7500  14.5000  19.0000 Du        
  14119 ****        17.7500  14.5000  19.2500 Du        
  14120 ****        17.7500  14.7500  12.5000 Du        
  14121 ****        17.7500  14.7500  12.7500 Du        
  14122 ****        17.7500  14.7500  13.0000 Du        
  14123 ****        17.7500  14.7500  13.2500 Du        
  14124 ****        17.7500  14.7500  17.5000 Du        
  14125 ****        17.7500  14.7500  17.7500 Du        
  14126 ****        17.7500  14.7500  18.0000 Du        
  14127 ****        17.7500  14.7500  18.2500 Du        
  14128 ****        17.7500  14.7500  18.5000 Du        
  14129 ****        17.7500  14.7500  18.7500 Du        
  14130 ****        17.7500  14.7500  19.0000 Du        
  14131 ****        17.7500  14.7500  19.2500 Du        
  14132 ****        17.7500  15.0000  12.5000 Du        
  14133 ****        17.7500  15.0000  12.7500 Du        
  14134 ****        17.7500  15.0000  13.0000 Du        
  14135 ****        17.7500  15.0000  17.5000 Du        
  14136 ****        17.7500  15.0000  17.7500 Du        
  14137 ****        17.7500  15.0000  18.0000 Du        
  14138 ****        17.7500  15.0000  18.2500 Du        
  14139 ****        17.7500  15.0000  18.5000 Du        
  14140 ****        17.7500  15.0000  18.7500 Du        
  14141 ****        17.7500  15.0000  19.0000 Du        
  14142 ****        17.7500  15.0000  19.2500 Du        
  14143 ****        17.7500  15.2500  12.5000 Du        
  14144 ****        17.7500  15.2500  12.7500 Du        
  14145 ****        17.7500  15.2500  17.5000 Du        
  14146 ****        17.7500  15.2500  17.7500 Du        
  14147 ****        17.7500  15.2500  18.0000 Du        
  14148 ****        17.7500  15.2500  18.2500 Du        
  14149 ****        17.7500  15.2500  18.5000 Du        
  14150 ****        17.7500  15.2500  18.7500 Du        
  14151 ****        17.7500  15.2500  19.0000 Du        
  14152 ****        17.7500  15.5000  12.5000 Du        
  14153 ****        17.7500  15.5000  17.7500 Du        
  14154 ****        17.7500  15.5000  18.0000 Du        
  14155 ****        17.7500  15.5000  18.2500 Du        
  14156 ****        17.7500  15.5000  18.5000 Du        
  14157 ****        17.7500  15.5000  18.7500 Du        
  14158 ****        17.7500  15.5000  19.0000 Du        
  14159 ****        17.7500  15.7500  18.0000 Du        
  14160 ****        17.7500  15.7500  18.2500 Du        
  14161 ****        17.7500  15.7500  18.5000 Du        
  14162 ****        17.7500  18.7500  29.7500 Du        
  14163 ****        17.7500  18.7500  30.0000 Du        
  14164 ****        17.7500  19.0000  29.7500 Du        
  14165 ****        17.7500  19.0000  30.0000 Du        
  14166 ****        17.7500  19.2500  29.7500 Du        
  14167 ****        17.7500  19.2500  30.0000 Du        
  14168 ****        17.7500  19.5000  29.7500 Du        
  14169 ****        17.7500  22.2500  17.0000 Du        
  14170 ****        17.7500  22.2500  17.2500 Du        
  14171 ****        17.7500  22.2500  17.5000 Du        
  14172 ****        17.7500  22.2500  17.7500 Du        
  14173 ****        17.7500  22.5000  17.0000 Du        
  14174 ****        17.7500  22.5000  17.2500 Du        
  14175 ****        17.7500  22.5000  17.5000 Du        
  14176 ****        17.7500  22.5000  17.7500 Du        
  14177 ****        17.7500  22.5000  18.0000 Du        
  14178 ****        17.7500  22.7500  17.0000 Du        
  14179 ****        17.7500  22.7500  17.2500 Du        
  14180 ****        17.7500  22.7500  17.5000 Du        
  14181 ****        17.7500  22.7500  17.7500 Du        
  14182 ****        17.7500  22.7500  18.0000 Du        
  14183 ****        17.7500  23.0000  17.0000 Du        
  14184 ****        17.7500  23.0000  17.2500 Du        
  14185 ****        17.7500  23.0000  17.5000 Du        
  14186 ****        17.7500  23.0000  17.7500 Du        
  14187 ****        17.7500  23.0000  18.0000 Du        
  14188 ****        17.7500  23.0000  18.2500 Du        
  14189 ****        17.7500  23.2500  17.2500 Du        
  14190 ****        17.7500  23.2500  17.5000 Du        
  14191 ****        17.7500  23.2500  17.7500 Du        
  14192 ****        17.7500  23.2500  18.0000 Du        
  14193 ****        17.7500  28.2500   7.7500 Du        
  14194 ****        17.7500  28.2500   8.0000 Du        
  14195 ****        17.7500  28.5000   7.7500 Du        
  14196 ****        17.7500  28.5000   8.0000 Du        
  14197 ****        17.7500  28.5000   8.2500 Du        
  14198 ****        17.7500  28.7500   8.2500 Du        
  14199 ****        17.7500  28.7500   8.5000 Du        
  14200 ****        17.7500  28.7500   8.7500 Du        
  14201 ****        17.7500  28.7500   9.0000 Du        
  14202 ****        17.7500  29.0000   8.5000 Du        
  14203 ****        17.7500  29.0000   8.7500 Du        
  14204 ****        17.7500  29.0000   9.0000 Du        
  14205 ****        17.7500  29.0000   9.2500 Du        
  14206 ****        17.7500  29.2500   8.7500 Du        
  14207 ****        17.7500  29.2500   9.0000 Du        
  14208 ****        17.7500  29.2500   9.2500 Du        
  14209 ****        17.7500  29.5000   9.2500 Du        
  14210 ****        18.0000  14.0000  18.7500 Du        
  14211 ****        18.0000  14.0000  19.0000 Du        
  14212 ****        18.0000  14.0000  19.2500 Du        
  14213 ****        18.0000  14.2500  18.5000 Du        
  14214 ****        18.0000  14.2500  18.7500 Du        
  14215 ****        18.0000  14.2500  19.0000 Du        
  14216 ****        18.0000  14.2500  19.2500 Du        
  14217 ****        18.0000  14.5000  12.5000 Du        
  14218 ****        18.0000  14.5000  12.7500 Du        
  14219 ****        18.0000  14.5000  13.0000 Du        
  14220 ****        18.0000  14.5000  13.2500 Du        
  14221 ****        18.0000  14.5000  17.5000 Du        
  14222 ****        18.0000  14.5000  17.7500 Du        
  14223 ****        18.0000  14.5000  18.0000 Du        
  14224 ****        18.0000  14.5000  18.2500 Du        
  14225 ****        18.0000  14.5000  18.5000 Du        
  14226 ****        18.0000  14.5000  18.7500 Du        
  14227 ****        18.0000  14.5000  19.0000 Du        
  14228 ****        18.0000  14.5000  19.2500 Du        
  14229 ****        18.0000  14.5000  19.5000 Du        
  14230 ****        18.0000  14.7500  12.2500 Du        
  14231 ****        18.0000  14.7500  12.5000 Du        
  14232 ****        18.0000  14.7500  12.7500 Du        
  14233 ****        18.0000  14.7500  13.0000 Du        
  14234 ****        18.0000  14.7500  13.2500 Du        
  14235 ****        18.0000  14.7500  17.5000 Du        
  14236 ****        18.0000  14.7500  17.7500 Du        
  14237 ****        18.0000  14.7500  18.0000 Du        
  14238 ****        18.0000  14.7500  18.2500 Du        
  14239 ****        18.0000  14.7500  18.5000 Du        
  14240 ****        18.0000  14.7500  18.7500 Du        
  14241 ****        18.0000  14.7500  19.0000 Du        
  14242 ****        18.0000  14.7500  19.2500 Du        
  14243 ****        18.0000  15.0000  12.2500 Du        
  14244 ****        18.0000  15.0000  12.5000 Du        
  14245 ****        18.0000  15.0000  12.7500 Du        
  14246 ****        18.0000  15.0000  13.0000 Du        
  14247 ****        18.0000  15.0000  17.2500 Du        
  14248 ****        18.0000  15.0000  17.5000 Du        
  14249 ****        18.0000  15.0000  17.7500 Du        
  14250 ****        18.0000  15.0000  18.0000 Du        
  14251 ****        18.0000  15.0000  18.2500 Du        
  14252 ****        18.0000  15.0000  18.5000 Du        
  14253 ****        18.0000  15.0000  18.7500 Du        
  14254 ****        18.0000  15.0000  19.0000 Du        
  14255 ****        18.0000  15.0000  19.2500 Du        
  14256 ****        18.0000  15.2500  12.2500 Du        
  14257 ****        18.0000  15.2500  12.5000 Du        
  14258 ****        18.0000  15.2500  12.7500 Du        
  14259 ****        18.0000  15.2500  13.0000 Du        
  14260 ****        18.0000  15.2500  17.5000 Du        
  14261 ****        18.0000  15.2500  17.7500 Du        
  14262 ****        18.0000  15.2500  18.0000 Du        
  14263 ****        18.0000  15.2500  18.2500 Du        
  14264 ****        18.0000  15.2500  18.5000 Du        
  14265 ****        18.0000  15.2500  18.7500 Du        
  14266 ****        18.0000  15.2500  19.0000 Du        
  14267 ****        18.0000  15.2500  19.2500 Du        
  14268 ****        18.0000  15.5000  12.2500 Du        
  14269 ****        18.0000  15.5000  12.5000 Du        
  14270 ****        18.0000  15.5000  12.7500 Du        
  14271 ****        18.0000  15.5000  17.5000 Du        
  14272 ****        18.0000  15.5000  17.7500 Du        
  14273 ****        18.0000  15.5000  18.0000 Du        
  14274 ****        18.0000  15.5000  18.2500 Du        
  14275 ****        18.0000  15.5000  18.5000 Du        
  14276 ****        18.0000  15.5000  18.7500 Du        
  14277 ****        18.0000  15.5000  19.0000 Du        
  14278 ****        18.0000  15.7500  12.2500 Du        
  14279 ****        18.0000  15.7500  12.5000 Du        
  14280 ****        18.0000  15.7500  18.2500 Du        
  14281 ****        18.0000  15.7500  18.5000 Du        
  14282 ****        18.0000  19.0000  30.0000 Du        
  14283 ****        18.0000  19.2500  29.7500 Du        
  14284 ****        18.0000  19.2500  30.0000 Du        
  14285 ****        18.0000  22.2500  17.2500 Du        
  14286 ****        18.0000  22.2500  17.5000 Du        
  14287 ****        18.0000  22.5000  17.0000 Du        
  14288 ****        18.0000  22.5000  17.2500 Du        
  14289 ****        18.0000  22.5000  17.5000 Du        
  14290 ****        18.0000  22.5000  17.7500 Du        
  14291 ****        18.0000  22.5000  18.0000 Du        
  14292 ****        18.0000  22.7500  17.0000 Du        
  14293 ****        18.0000  22.7500  17.2500 Du        
  14294 ****        18.0000  22.7500  17.5000 Du        
  14295 ****        18.0000  22.7500  17.7500 Du        
  14296 ****        18.0000  22.7500  18.0000 Du        
  14297 ****        18.0000  22.7500  18.2500 Du        
  14298 ****        18.0000  23.0000  17.0000 Du        
  14299 ****        18.0000  23.0000  17.2500 Du        
  14300 ****        18.0000  23.0000  17.5000 Du        
  14301 ****        18.0000  23.0000  17.7500 Du        
  14302 ****        18.0000  23.0000  18.0000 Du        
  14303 ****        18.0000  23.0000  18.2500 Du        
  14304 ****        18.0000  23.0000  18.5000 Du        
  14305 ****        18.0000  23.2500  17.2500 Du        
  14306 ****        18.0000  23.2500  17.5000 Du        
  14307 ****        18.0000  23.2500  17.7500 Du        
  14308 ****        18.0000  23.2500  18.0000 Du        
  14309 ****        18.0000  23.2500  18.2500 Du        
  14310 ****        18.0000  23.2500  18.5000 Du        
  14311 ****        18.0000  23.5000  17.7500 Du        
  14312 ****        18.0000  28.0000   7.5000 Du        
  14313 ****        18.0000  28.0000   7.7500 Du        
  14314 ****        18.0000  28.2500   7.7500 Du        
  14315 ****        18.0000  28.2500   8.0000 Du        
  14316 ****        18.0000  28.2500   8.2500 Du        
  14317 ****        18.0000  28.5000   8.0000 Du        
  14318 ****        18.0000  28.5000   8.2500 Du        
  14319 ****        18.0000  28.5000   8.5000 Du        
  14320 ****        18.0000  28.7500   8.2500 Du        
  14321 ****        18.0000  28.7500   8.5000 Du        
  14322 ****        18.0000  28.7500   8.7500 Du        
  14323 ****        18.0000  28.7500   9.0000 Du        
  14324 ****        18.0000  29.0000   8.5000 Du        
  14325 ****        18.0000  29.0000   8.7500 Du        
  14326 ****        18.0000  29.0000   9.0000 Du        
  14327 ****        18.0000  29.0000   9.2500 Du        
  14328 ****        18.0000  29.2500   8.7500 Du        
  14329 ****        18.0000  29.2500   9.0000 Du        
  14330 ****        18.0000  29.2500   9.2500 Du        
  14331 ****        18.2500  14.0000  18.7500 Du        
  14332 ****        18.2500  14.0000  19.0000 Du        
  14333 ****        18.2500  14.0000  19.2500 Du        
  14334 ****        18.2500  14.2500  18.5000 Du        
  14335 ****        18.2500  14.2500  18.7500 Du        
  14336 ****        18.2500  14.2500  19.0000 Du        
  14337 ****        18.2500  14.2500  19.2500 Du        
  14338 ****        18.2500  14.5000  12.5000 Du        
  14339 ****        18.2500  14.5000  12.7500 Du        
  14340 ****        18.2500  14.5000  13.0000 Du        
  14341 ****        18.2500  14.5000  13.2500 Du        
  14342 ****        18.2500  14.5000  17.7500 Du        
  14343 ****        18.2500  14.5000  18.0000 Du        
  14344 ****        18.2500  14.5000  18.2500 Du        
  14345 ****        18.2500  14.5000  18.5000 Du        
  14346 ****        18.2500  14.5000  18.7500 Du        
  14347 ****        18.2500  14.5000  19.0000 Du        
  14348 ****        18.2500  14.5000  19.2500 Du        
  14349 ****        18.2500  14.5000  19.5000 Du        
  14350 ****        18.2500  14.7500  12.2500 Du        
  14351 ****        18.2500  14.7500  12.5000 Du        
  14352 ****        18.2500  14.7500  12.7500 Du        
  14353 ****        18.2500  14.7500  13.0000 Du        
  14354 ****        18.2500  14.7500  13.2500 Du        
  14355 ****        18.2500  14.7500  17.5000 Du        
  14356 ****        18.2500  14.7500  17.7500 Du        
  14357 ****        18.2500  14.7500  18.0000 Du        
  14358 ****        18.2500  14.7500  18.2500 Du        
  14359 ****        18.2500  14.7500  18.5000 Du        
  14360 ****        18.2500  14.7500  18.7500 Du        
  14361 ****        18.2500  14.7500  19.0000 Du        
  14362 ****        18.2500  14.7500  19.2500 Du        
  14363 ****        18.2500  14.7500  19.5000 Du        
  14364 ****        18.2500  15.0000  12.0000 Du        
  14365 ****        18.2500  15.0000  12.2500 Du        
  14366 ****        18.2500  15.0000  12.5000 Du        
  14367 ****        18.2500  15.0000  12.7500 Du        
  14368 ****        18.2500  15.0000  13.0000 Du        
  14369 ****        18.2500  15.0000  13.2500 Du        
  14370 ****        18.2500  15.0000  17.2500 Du        
  14371 ****        18.2500  15.0000  17.5000 Du        
  14372 ****        18.2500  15.0000  17.7500 Du        
  14373 ****        18.2500  15.0000  18.0000 Du        
  14374 ****        18.2500  15.0000  18.2500 Du        
  14375 ****        18.2500  15.0000  18.5000 Du        
  14376 ****        18.2500  15.0000  18.7500 Du        
  14377 ****        18.2500  15.0000  19.0000 Du        
  14378 ****        18.2500  15.0000  19.2500 Du        
  14379 ****        18.2500  15.2500  12.0000 Du        
  14380 ****        18.2500  15.2500  12.2500 Du        
  14381 ****        18.2500  15.2500  12.5000 Du        
  14382 ****        18.2500  15.2500  12.7500 Du        
  14383 ****        18.2500  15.2500  13.0000 Du        
  14384 ****        18.2500  15.2500  17.5000 Du        
  14385 ****        18.2500  15.2500  17.7500 Du        
  14386 ****        18.2500  15.2500  18.0000 Du        
  14387 ****        18.2500  15.2500  18.2500 Du        
  14388 ****        18.2500  15.2500  18.5000 Du        
  14389 ****        18.2500  15.2500  18.7500 Du        
  14390 ****        18.2500  15.2500  19.0000 Du        
  14391 ****        18.2500  15.2500  19.2500 Du        
  14392 ****        18.2500  15.5000  12.0000 Du        
  14393 ****        18.2500  15.5000  12.2500 Du        
  14394 ****        18.2500  15.5000  12.5000 Du        
  14395 ****        18.2500  15.5000  12.7500 Du        
  14396 ****        18.2500  15.5000  13.0000 Du        
  14397 ****        18.2500  15.5000  17.7500 Du        
  14398 ****        18.2500  15.5000  18.0000 Du        
  14399 ****        18.2500  15.5000  18.2500 Du        
  14400 ****        18.2500  15.5000  18.5000 Du        
  14401 ****        18.2500  15.5000  18.7500 Du        
  14402 ****        18.2500  15.5000  19.0000 Du        
  14403 ****        18.2500  15.7500  12.0000 Du        
  14404 ****        18.2500  15.7500  12.2500 Du        
  14405 ****        18.2500  15.7500  12.5000 Du        
  14406 ****        18.2500  15.7500  12.7500 Du        
  14407 ****        18.2500  15.7500  18.5000 Du        
  14408 ****        18.2500  15.7500  18.7500 Du        
  14409 ****        18.2500  16.0000  12.0000 Du        
  14410 ****        18.2500  16.0000  12.2500 Du        
  14411 ****        18.2500  22.5000  17.2500 Du        
  14412 ****        18.2500  22.5000  17.5000 Du        
  14413 ****        18.2500  22.5000  17.7500 Du        
  14414 ****        18.2500  22.5000  18.0000 Du        
  14415 ****        18.2500  22.5000  18.2500 Du        
  14416 ****        18.2500  22.7500  17.0000 Du        
  14417 ****        18.2500  22.7500  17.2500 Du        
  14418 ****        18.2500  22.7500  17.5000 Du        
  14419 ****        18.2500  22.7500  17.7500 Du        
  14420 ****        18.2500  22.7500  18.0000 Du        
  14421 ****        18.2500  22.7500  18.2500 Du        
  14422 ****        18.2500  22.7500  18.5000 Du        
  14423 ****        18.2500  23.0000  17.0000 Du        
  14424 ****        18.2500  23.0000  17.2500 Du        
  14425 ****        18.2500  23.0000  17.5000 Du        
  14426 ****        18.2500  23.0000  17.7500 Du        
  14427 ****        18.2500  23.0000  18.0000 Du        
  14428 ****        18.2500  23.0000  18.2500 Du        
  14429 ****        18.2500  23.0000  18.5000 Du        
  14430 ****        18.2500  23.0000  18.7500 Du        
  14431 ****        18.2500  23.2500  17.2500 Du        
  14432 ****        18.2500  23.2500  17.5000 Du        
  14433 ****        18.2500  23.2500  17.7500 Du        
  14434 ****        18.2500  23.2500  18.0000 Du        
  14435 ****        18.2500  23.2500  18.2500 Du        
  14436 ****        18.2500  23.2500  18.5000 Du        
  14437 ****        18.2500  23.2500  18.7500 Du        
  14438 ****        18.2500  23.5000  17.5000 Du        
  14439 ****        18.2500  23.5000  17.7500 Du        
  14440 ****        18.2500  23.5000  18.0000 Du        
  14441 ****        18.2500  23.5000  18.2500 Du        
  14442 ****        18.2500  28.0000   7.2500 Du        
  14443 ****        18.2500  28.0000   7.5000 Du        
  14444 ****        18.2500  28.0000   7.7500 Du        
  14445 ****        18.2500  28.0000   8.0000 Du        
  14446 ****        18.2500  28.2500   7.7500 Du        
  14447 ****        18.2500  28.2500   8.0000 Du        
  14448 ****        18.2500  28.2500   8.2500 Du        
  14449 ****        18.2500  28.5000   8.0000 Du        
  14450 ****        18.2500  28.5000   8.2500 Du        
  14451 ****        18.2500  28.5000   8.5000 Du        
  14452 ****        18.2500  28.7500   8.2500 Du        
  14453 ****        18.2500  28.7500   8.5000 Du        
  14454 ****        18.2500  28.7500   8.7500 Du        
  14455 ****        18.2500  28.7500   9.0000 Du        
  14456 ****        18.2500  29.0000   8.7500 Du        
  14457 ****        18.2500  29.0000   9.0000 Du        
  14458 ****        18.2500  29.0000   9.2500 Du        
  14459 ****        18.2500  29.2500   9.0000 Du        
  14460 ****        18.2500  29.2500   9.2500 Du        
  14461 ****        18.5000  14.0000  19.0000 Du        
  14462 ****        18.5000  14.2500  18.5000 Du        
  14463 ****        18.5000  14.2500  18.7500 Du        
  14464 ****        18.5000  14.2500  19.0000 Du        
  14465 ****        18.5000  14.2500  19.2500 Du        
  14466 ****        18.5000  14.5000  13.0000 Du        
  14467 ****        18.5000  14.5000  18.2500 Du        
  14468 ****        18.5000  14.5000  18.5000 Du        
  14469 ****        18.5000  14.5000  18.7500 Du        
  14470 ****        18.5000  14.5000  19.0000 Du        
  14471 ****        18.5000  14.5000  19.2500 Du        
  14472 ****        18.5000  14.5000  19.5000 Du        
  14473 ****        18.5000  14.7500  12.2500 Du        
  14474 ****        18.5000  14.7500  12.5000 Du        
  14475 ****        18.5000  14.7500  12.7500 Du        
  14476 ****        18.5000  14.7500  13.0000 Du        
  14477 ****        18.5000  14.7500  13.2500 Du        
  14478 ****        18.5000  14.7500  17.7500 Du        
  14479 ****        18.5000  14.7500  18.0000 Du        
  14480 ****        18.5000  14.7500  18.2500 Du        
  14481 ****        18.5000  14.7500  18.5000 Du        
  14482 ****        18.5000  14.7500  18.7500 Du        
  14483 ****        18.5000  14.7500  19.0000 Du        
  14484 ****        18.5000  14.7500  19.2500 Du        
  14485 ****        18.5000  14.7500  19.5000 Du        
  14486 ****        18.5000  15.0000  12.0000 Du        
  14487 ****        18.5000  15.0000  12.2500 Du        
  14488 ****        18.5000  15.0000  12.5000 Du        
  14489 ****        18.5000  15.0000  12.7500 Du        
  14490 ****        18.5000  15.0000  13.0000 Du        
  14491 ****        18.5000  15.0000  13.2500 Du        
  14492 ****        18.5000  15.0000  17.5000 Du        
  14493 ****        18.5000  15.0000  17.7500 Du        
  14494 ****        18.5000  15.0000  18.0000 Du        
  14495 ****        18.5000  15.0000  18.2500 Du        
  14496 ****        18.5000  15.0000  18.5000 Du        
  14497 ****        18.5000  15.0000  18.7500 Du        
  14498 ****        18.5000  15.0000  19.0000 Du        
  14499 ****        18.5000  15.0000  19.2500 Du        
  14500 ****        18.5000  15.2500  12.0000 Du        
  14501 ****        18.5000  15.2500  12.2500 Du        
  14502 ****        18.5000  15.2500  12.5000 Du        
  14503 ****        18.5000  15.2500  12.7500 Du        
  14504 ****        18.5000  15.2500  13.0000 Du        
  14505 ****        18.5000  15.2500  13.2500 Du        
  14506 ****        18.5000  15.2500  17.5000 Du        
  14507 ****        18.5000  15.2500  17.7500 Du        
  14508 ****        18.5000  15.2500  18.0000 Du        
  14509 ****        18.5000  15.2500  18.2500 Du        
  14510 ****        18.5000  15.2500  18.5000 Du        
  14511 ****        18.5000  15.2500  18.7500 Du        
  14512 ****        18.5000  15.2500  19.0000 Du        
  14513 ****        18.5000  15.2500  19.2500 Du        
  14514 ****        18.5000  15.5000  11.7500 Du        
  14515 ****        18.5000  15.5000  12.0000 Du        
  14516 ****        18.5000  15.5000  12.2500 Du        
  14517 ****        18.5000  15.5000  12.5000 Du        
  14518 ****        18.5000  15.5000  12.7500 Du        
  14519 ****        18.5000  15.5000  13.0000 Du        
  14520 ****        18.5000  15.5000  13.2500 Du        
  14521 ****        18.5000  15.5000  18.2500 Du        
  14522 ****        18.5000  15.5000  18.5000 Du        
  14523 ****        18.5000  15.5000  18.7500 Du        
  14524 ****        18.5000  15.5000  19.0000 Du        
  14525 ****        18.5000  15.7500  11.7500 Du        
  14526 ****        18.5000  15.7500  12.0000 Du        
  14527 ****        18.5000  15.7500  12.2500 Du        
  14528 ****        18.5000  15.7500  12.5000 Du        
  14529 ****        18.5000  15.7500  12.7500 Du        
  14530 ****        18.5000  15.7500  13.0000 Du        
  14531 ****        18.5000  15.7500  18.7500 Du        
  14532 ****        18.5000  16.0000  12.0000 Du        
  14533 ****        18.5000  16.0000  12.2500 Du        
  14534 ****        18.5000  16.0000  12.5000 Du        
  14535 ****        18.5000  16.0000  12.7500 Du        
  14536 ****        18.5000  16.2500  12.2500 Du        
  14537 ****        18.5000  22.5000  17.2500 Du        
  14538 ****        18.5000  22.5000  17.5000 Du        
  14539 ****        18.5000  22.5000  17.7500 Du        
  14540 ****        18.5000  22.5000  18.0000 Du        
  14541 ****        18.5000  22.5000  18.2500 Du        
  14542 ****        18.5000  22.7500  17.2500 Du        
  14543 ****        18.5000  22.7500  17.5000 Du        
  14544 ****        18.5000  22.7500  17.7500 Du        
  14545 ****        18.5000  22.7500  18.0000 Du        
  14546 ****        18.5000  22.7500  18.2500 Du        
  14547 ****        18.5000  22.7500  18.5000 Du        
  14548 ****        18.5000  22.7500  18.7500 Du        
  14549 ****        18.5000  23.0000  17.0000 Du        
  14550 ****        18.5000  23.0000  17.2500 Du        
  14551 ****        18.5000  23.0000  17.5000 Du        
  14552 ****        18.5000  23.0000  17.7500 Du        
  14553 ****        18.5000  23.0000  18.0000 Du        
  14554 ****        18.5000  23.0000  18.2500 Du        
  14555 ****        18.5000  23.0000  18.5000 Du        
  14556 ****        18.5000  23.0000  18.7500 Du        
  14557 ****        18.5000  23.0000  19.0000 Du        
  14558 ****        18.5000  23.2500  17.2500 Du        
  14559 ****        18.5000  23.2500  17.5000 Du        
  14560 ****        18.5000  23.2500  17.7500 Du        
  14561 ****        18.5000  23.2500  18.0000 Du        
  14562 ****        18.5000  23.2500  18.2500 Du        
  14563 ****        18.5000  23.2500  18.5000 Du        
  14564 ****        18.5000  23.2500  18.7500 Du        
  14565 ****        18.5000  23.2500  19.0000 Du        
  14566 ****        18.5000  23.5000  17.2500 Du        
  14567 ****        18.5000  23.5000  17.5000 Du        
  14568 ****        18.5000  23.5000  17.7500 Du        
  14569 ****        18.5000  23.5000  18.0000 Du        
  14570 ****        18.5000  23.5000  18.2500 Du        
  14571 ****        18.5000  23.5000  18.5000 Du        
  14572 ****        18.5000  23.7500  17.5000 Du        
  14573 ****        18.5000  23.7500  17.7500 Du        
  14574 ****        18.5000  23.7500  18.0000 Du        
  14575 ****        18.5000  23.7500  18.2500 Du        
  14576 ****        18.5000  24.0000  17.5000 Du        
  14577 ****        18.5000  24.0000  17.7500 Du        
  14578 ****        18.5000  27.7500   7.2500 Du        
  14579 ****        18.5000  27.7500   7.5000 Du        
  14580 ****        18.5000  28.0000   7.5000 Du        
  14581 ****        18.5000  28.0000   7.7500 Du        
  14582 ****        18.5000  28.0000   8.0000 Du        
  14583 ****        18.5000  28.2500   7.7500 Du        
  14584 ****        18.5000  28.2500   8.0000 Du        
  14585 ****        18.5000  28.2500   8.2500 Du        
  14586 ****        18.5000  28.5000   8.2500 Du        
  14587 ****        18.7500  14.0000  19.0000 Du        
  14588 ****        18.7500  14.0000  19.2500 Du        
  14589 ****        18.7500  14.2500  18.7500 Du        
  14590 ****        18.7500  14.2500  19.0000 Du        
  14591 ****        18.7500  14.2500  19.2500 Du        
  14592 ****        18.7500  14.5000  18.2500 Du        
  14593 ****        18.7500  14.5000  18.5000 Du        
  14594 ****        18.7500  14.5000  18.7500 Du        
  14595 ****        18.7500  14.5000  19.0000 Du        
  14596 ****        18.7500  14.5000  19.2500 Du        
  14597 ****        18.7500  14.5000  19.5000 Du        
  14598 ****        18.7500  14.7500  12.0000 Du        
  14599 ****        18.7500  14.7500  12.2500 Du        
  14600 ****        18.7500  14.7500  12.5000 Du        
  14601 ****        18.7500  14.7500  12.7500 Du        
  14602 ****        18.7500  14.7500  13.0000 Du        
  14603 ****        18.7500  14.7500  13.2500 Du        
  14604 ****        18.7500  14.7500  17.7500 Du        
  14605 ****        18.7500  14.7500  18.0000 Du        
  14606 ****        18.7500  14.7500  18.2500 Du        
  14607 ****        18.7500  14.7500  18.5000 Du        
  14608 ****        18.7500  14.7500  18.7500 Du        
  14609 ****        18.7500  14.7500  19.0000 Du        
  14610 ****        18.7500  14.7500  19.2500 Du        
  14611 ****        18.7500  14.7500  19.5000 Du        
  14612 ****        18.7500  15.0000  11.7500 Du        
  14613 ****        18.7500  15.0000  12.0000 Du        
  14614 ****        18.7500  15.0000  12.2500 Du        
  14615 ****        18.7500  15.0000  12.5000 Du        
  14616 ****        18.7500  15.0000  12.7500 Du        
  14617 ****        18.7500  15.0000  13.0000 Du        
  14618 ****        18.7500  15.0000  13.2500 Du        
  14619 ****        18.7500  15.0000  13.5000 Du        
  14620 ****        18.7500  15.0000  17.5000 Du        
  14621 ****        18.7500  15.0000  17.7500 Du        
  14622 ****        18.7500  15.0000  18.0000 Du        
  14623 ****        18.7500  15.0000  18.2500 Du        
  14624 ****        18.7500  15.0000  18.5000 Du        
  14625 ****        18.7500  15.0000  18.7500 Du        
  14626 ****        18.7500  15.0000  19.0000 Du        
  14627 ****        18.7500  15.0000  19.2500 Du        
  14628 ****        18.7500  15.2500  11.7500 Du        
  14629 ****        18.7500  15.2500  12.0000 Du        
  14630 ****        18.7500  15.2500  12.2500 Du        
  14631 ****        18.7500  15.2500  12.5000 Du        
  14632 ****        18.7500  15.2500  12.7500 Du        
  14633 ****        18.7500  15.2500  13.0000 Du        
  14634 ****        18.7500  15.2500  13.2500 Du        
  14635 ****        18.7500  15.2500  13.5000 Du        
  14636 ****        18.7500  15.2500  17.5000 Du        
  14637 ****        18.7500  15.2500  17.7500 Du        
  14638 ****        18.7500  15.2500  18.0000 Du        
  14639 ****        18.7500  15.2500  18.2500 Du        
  14640 ****        18.7500  15.2500  18.5000 Du        
  14641 ****        18.7500  15.2500  18.7500 Du        
  14642 ****        18.7500  15.2500  19.0000 Du        
  14643 ****        18.7500  15.2500  19.2500 Du        
  14644 ****        18.7500  15.5000  11.5000 Du        
  14645 ****        18.7500  15.5000  11.7500 Du        
  14646 ****        18.7500  15.5000  12.0000 Du        
  14647 ****        18.7500  15.5000  12.2500 Du        
  14648 ****        18.7500  15.5000  12.5000 Du        
  14649 ****        18.7500  15.5000  12.7500 Du        
  14650 ****        18.7500  15.5000  13.0000 Du        
  14651 ****        18.7500  15.5000  13.2500 Du        
  14652 ****        18.7500  15.5000  18.2500 Du        
  14653 ****        18.7500  15.5000  18.5000 Du        
  14654 ****        18.7500  15.5000  18.7500 Du        
  14655 ****        18.7500  15.5000  19.0000 Du        
  14656 ****        18.7500  15.5000  19.2500 Du        
  14657 ****        18.7500  15.7500  11.7500 Du        
  14658 ****        18.7500  15.7500  12.0000 Du        
  14659 ****        18.7500  15.7500  12.2500 Du        
  14660 ****        18.7500  15.7500  12.5000 Du        
  14661 ****        18.7500  15.7500  12.7500 Du        
  14662 ****        18.7500  15.7500  13.0000 Du        
  14663 ****        18.7500  15.7500  13.2500 Du        
  14664 ****        18.7500  15.7500  18.7500 Du        
  14665 ****        18.7500  16.0000  11.7500 Du        
  14666 ****        18.7500  16.0000  12.0000 Du        
  14667 ****        18.7500  16.0000  12.2500 Du        
  14668 ****        18.7500  16.0000  12.5000 Du        
  14669 ****        18.7500  16.0000  12.7500 Du        
  14670 ****        18.7500  16.0000  13.0000 Du        
  14671 ****        18.7500  16.2500  12.0000 Du        
  14672 ****        18.7500  16.2500  12.2500 Du        
  14673 ****        18.7500  16.2500  12.5000 Du        
  14674 ****        18.7500  16.2500  12.7500 Du        
  14675 ****        18.7500  22.5000  17.7500 Du        
  14676 ****        18.7500  22.5000  18.0000 Du        
  14677 ****        18.7500  22.5000  18.2500 Du        
  14678 ****        18.7500  22.7500  17.2500 Du        
  14679 ****        18.7500  22.7500  17.5000 Du        
  14680 ****        18.7500  22.7500  17.7500 Du        
  14681 ****        18.7500  22.7500  18.0000 Du        
  14682 ****        18.7500  22.7500  18.2500 Du        
  14683 ****        18.7500  22.7500  18.5000 Du        
  14684 ****        18.7500  22.7500  18.7500 Du        
  14685 ****        18.7500  22.7500  19.0000 Du        
  14686 ****        18.7500  23.0000  17.0000 Du        
  14687 ****        18.7500  23.0000  17.2500 Du        
  14688 ****        18.7500  23.0000  17.5000 Du        
  14689 ****        18.7500  23.0000  17.7500 Du        
  14690 ****        18.7500  23.0000  18.0000 Du        
  14691 ****        18.7500  23.0000  18.2500 Du        
  14692 ****        18.7500  23.0000  18.5000 Du        
  14693 ****        18.7500  23.0000  18.7500 Du        
  14694 ****        18.7500  23.0000  19.0000 Du        
  14695 ****        18.7500  23.0000  19.2500 Du        
  14696 ****        18.7500  23.2500  17.2500 Du        
  14697 ****        18.7500  23.2500  17.5000 Du        
  14698 ****        18.7500  23.2500  17.7500 Du        
  14699 ****        18.7500  23.2500  18.0000 Du        
  14700 ****        18.7500  23.2500  18.2500 Du        
  14701 ****        18.7500  23.2500  18.5000 Du        
  14702 ****        18.7500  23.2500  18.7500 Du        
  14703 ****        18.7500  23.2500  19.0000 Du        
  14704 ****        18.7500  23.2500  19.2500 Du        
  14705 ****        18.7500  23.5000  17.2500 Du        
  14706 ****        18.7500  23.5000  17.5000 Du        
  14707 ****        18.7500  23.5000  17.7500 Du        
  14708 ****        18.7500  23.5000  18.0000 Du        
  14709 ****        18.7500  23.5000  18.2500 Du        
  14710 ****        18.7500  23.5000  18.5000 Du        
  14711 ****        18.7500  23.5000  18.7500 Du        
  14712 ****        18.7500  23.7500  17.2500 Du        
  14713 ****        18.7500  23.7500  17.5000 Du        
  14714 ****        18.7500  23.7500  17.7500 Du        
  14715 ****        18.7500  23.7500  18.0000 Du        
  14716 ****        18.7500  23.7500  18.2500 Du        
  14717 ****        18.7500  23.7500  18.5000 Du        
  14718 ****        18.7500  23.7500  18.7500 Du        
  14719 ****        18.7500  24.0000  17.2500 Du        
  14720 ****        18.7500  24.0000  17.5000 Du        
  14721 ****        18.7500  24.0000  17.7500 Du        
  14722 ****        18.7500  24.0000  18.0000 Du        
  14723 ****        18.7500  24.0000  18.2500 Du        
  14724 ****        18.7500  27.2500   7.2500 Du        
  14725 ****        18.7500  27.2500   7.5000 Du        
  14726 ****        18.7500  27.5000   7.2500 Du        
  14727 ****        18.7500  27.7500   7.2500 Du        
  14728 ****        18.7500  27.7500   7.5000 Du        
  14729 ****        18.7500  27.7500   7.7500 Du        
  14730 ****        18.7500  28.0000   7.2500 Du        
  14731 ****        18.7500  28.0000   7.5000 Du        
  14732 ****        18.7500  28.0000   7.7500 Du        
  14733 ****        18.7500  28.0000   8.0000 Du        
  14734 ****        18.7500  28.2500   7.7500 Du        
  14735 ****        18.7500  28.2500   8.0000 Du        
  14736 ****        18.7500  28.2500   8.2500 Du        
  14737 ****        19.0000  14.0000  19.0000 Du        
  14738 ****        19.0000  14.0000  19.2500 Du        
  14739 ****        19.0000  14.2500  18.7500 Du        
  14740 ****        19.0000  14.2500  19.0000 Du        
  14741 ****        19.0000  14.2500  19.2500 Du        
  14742 ****        19.0000  14.2500  19.5000 Du        
  14743 ****        19.0000  14.5000  18.2500 Du        
  14744 ****        19.0000  14.5000  18.5000 Du        
  14745 ****        19.0000  14.5000  18.7500 Du        
  14746 ****        19.0000  14.5000  19.0000 Du        
  14747 ****        19.0000  14.5000  19.2500 Du        
  14748 ****        19.0000  14.5000  19.5000 Du        
  14749 ****        19.0000  14.7500  12.0000 Du        
  14750 ****        19.0000  14.7500  12.2500 Du        
  14751 ****        19.0000  14.7500  12.5000 Du        
  14752 ****        19.0000  14.7500  12.7500 Du        
  14753 ****        19.0000  14.7500  13.0000 Du        
  14754 ****        19.0000  14.7500  17.7500 Du        
  14755 ****        19.0000  14.7500  18.0000 Du        
  14756 ****        19.0000  14.7500  18.2500 Du        
  14757 ****        19.0000  14.7500  18.5000 Du        
  14758 ****        19.0000  14.7500  18.7500 Du        
  14759 ****        19.0000  14.7500  19.0000 Du        
  14760 ****        19.0000  14.7500  19.2500 Du        
  14761 ****        19.0000  14.7500  19.5000 Du        
  14762 ****        19.0000  15.0000  11.7500 Du        
  14763 ****        19.0000  15.0000  12.0000 Du        
  14764 ****        19.0000  15.0000  12.2500 Du        
  14765 ****        19.0000  15.0000  12.5000 Du        
  14766 ****        19.0000  15.0000  12.7500 Du        
  14767 ****        19.0000  15.0000  13.0000 Du        
  14768 ****        19.0000  15.0000  13.2500 Du        
  14769 ****        19.0000  15.0000  13.5000 Du        
  14770 ****        19.0000  15.0000  17.5000 Du        
  14771 ****        19.0000  15.0000  17.7500 Du        
  14772 ****        19.0000  15.0000  18.0000 Du        
  14773 ****        19.0000  15.0000  18.2500 Du        
  14774 ****        19.0000  15.0000  18.5000 Du        
  14775 ****        19.0000  15.0000  18.7500 Du        
  14776 ****        19.0000  15.0000  19.0000 Du        
  14777 ****        19.0000  15.0000  19.2500 Du        
  14778 ****        19.0000  15.2500  11.5000 Du        
  14779 ****        19.0000  15.2500  11.7500 Du        
  14780 ****        19.0000  15.2500  12.0000 Du        
  14781 ****        19.0000  15.2500  12.2500 Du        
  14782 ****        19.0000  15.2500  12.5000 Du        
  14783 ****        19.0000  15.2500  12.7500 Du        
  14784 ****        19.0000  15.2500  13.0000 Du        
  14785 ****        19.0000  15.2500  13.2500 Du        
  14786 ****        19.0000  15.2500  13.5000 Du        
  14787 ****        19.0000  15.2500  17.7500 Du        
  14788 ****        19.0000  15.2500  18.0000 Du        
  14789 ****        19.0000  15.2500  18.2500 Du        
  14790 ****        19.0000  15.2500  18.5000 Du        
  14791 ****        19.0000  15.2500  18.7500 Du        
  14792 ****        19.0000  15.2500  19.0000 Du        
  14793 ****        19.0000  15.2500  19.2500 Du        
  14794 ****        19.0000  15.5000  11.5000 Du        
  14795 ****        19.0000  15.5000  11.7500 Du        
  14796 ****        19.0000  15.5000  12.0000 Du        
  14797 ****        19.0000  15.5000  12.2500 Du        
  14798 ****        19.0000  15.5000  12.5000 Du        
  14799 ****        19.0000  15.5000  12.7500 Du        
  14800 ****        19.0000  15.5000  13.0000 Du        
  14801 ****        19.0000  15.5000  13.2500 Du        
  14802 ****        19.0000  15.5000  13.5000 Du        
  14803 ****        19.0000  15.5000  18.2500 Du        
  14804 ****        19.0000  15.5000  18.5000 Du        
  14805 ****        19.0000  15.5000  18.7500 Du        
  14806 ****        19.0000  15.5000  19.0000 Du        
  14807 ****        19.0000  15.5000  19.2500 Du        
  14808 ****        19.0000  15.7500  11.7500 Du        
  14809 ****        19.0000  15.7500  12.0000 Du        
  14810 ****        19.0000  15.7500  12.2500 Du        
  14811 ****        19.0000  15.7500  12.5000 Du        
  14812 ****        19.0000  15.7500  12.7500 Du        
  14813 ****        19.0000  15.7500  13.0000 Du        
  14814 ****        19.0000  15.7500  13.2500 Du        
  14815 ****        19.0000  15.7500  18.7500 Du        
  14816 ****        19.0000  15.7500  19.0000 Du        
  14817 ****        19.0000  16.0000  11.7500 Du        
  14818 ****        19.0000  16.0000  12.0000 Du        
  14819 ****        19.0000  16.0000  12.2500 Du        
  14820 ****        19.0000  16.0000  12.5000 Du        
  14821 ****        19.0000  16.0000  12.7500 Du        
  14822 ****        19.0000  16.0000  13.0000 Du        
  14823 ****        19.0000  16.0000  13.2500 Du        
  14824 ****        19.0000  16.2500  12.0000 Du        
  14825 ****        19.0000  16.2500  12.2500 Du        
  14826 ****        19.0000  16.2500  12.5000 Du        
  14827 ****        19.0000  16.2500  12.7500 Du        
  14828 ****        19.0000  16.2500  13.0000 Du        
  14829 ****        19.0000  16.5000  12.2500 Du        
  14830 ****        19.0000  16.5000  12.5000 Du        
  14831 ****        19.0000  16.5000  12.7500 Du        
  14832 ****        19.0000  22.5000  17.7500 Du        
  14833 ****        19.0000  22.5000  18.0000 Du        
  14834 ****        19.0000  22.5000  18.2500 Du        
  14835 ****        19.0000  22.5000  18.5000 Du        
  14836 ****        19.0000  22.5000  18.7500 Du        
  14837 ****        19.0000  22.7500  17.2500 Du        
  14838 ****        19.0000  22.7500  17.5000 Du        
  14839 ****        19.0000  22.7500  17.7500 Du        
  14840 ****        19.0000  22.7500  18.0000 Du        
  14841 ****        19.0000  22.7500  18.2500 Du        
  14842 ****        19.0000  22.7500  18.5000 Du        
  14843 ****        19.0000  22.7500  18.7500 Du        
  14844 ****        19.0000  22.7500  19.0000 Du        
  14845 ****        19.0000  22.7500  19.2500 Du        
  14846 ****        19.0000  23.0000  17.0000 Du        
  14847 ****        19.0000  23.0000  17.2500 Du        
  14848 ****        19.0000  23.0000  17.5000 Du        
  14849 ****        19.0000  23.0000  17.7500 Du        
  14850 ****        19.0000  23.0000  18.0000 Du        
  14851 ****        19.0000  23.0000  18.2500 Du        
  14852 ****        19.0000  23.0000  18.5000 Du        
  14853 ****        19.0000  23.0000  18.7500 Du        
  14854 ****        19.0000  23.0000  19.0000 Du        
  14855 ****        19.0000  23.0000  19.2500 Du        
  14856 ****        19.0000  23.2500  17.0000 Du        
  14857 ****        19.0000  23.2500  17.2500 Du        
  14858 ****        19.0000  23.2500  17.5000 Du        
  14859 ****        19.0000  23.2500  17.7500 Du        
  14860 ****        19.0000  23.2500  18.0000 Du        
  14861 ****        19.0000  23.2500  18.2500 Du        
  14862 ****        19.0000  23.2500  18.5000 Du        
  14863 ****        19.0000  23.2500  18.7500 Du        
  14864 ****        19.0000  23.2500  19.0000 Du        
  14865 ****        19.0000  23.2500  19.2500 Du        
  14866 ****        19.0000  23.5000  17.2500 Du        
  14867 ****        19.0000  23.5000  17.5000 Du        
  14868 ****        19.0000  23.5000  17.7500 Du        
  14869 ****        19.0000  23.5000  18.0000 Du        
  14870 ****        19.0000  23.5000  18.2500 Du        
  14871 ****        19.0000  23.5000  18.5000 Du        
  14872 ****        19.0000  23.5000  18.7500 Du        
  14873 ****        19.0000  23.5000  19.0000 Du        
  14874 ****        19.0000  23.5000  19.2500 Du        
  14875 ****        19.0000  23.7500  17.2500 Du        
  14876 ****        19.0000  23.7500  17.5000 Du        
  14877 ****        19.0000  23.7500  17.7500 Du        
  14878 ****        19.0000  23.7500  18.0000 Du        
  14879 ****        19.0000  23.7500  18.2500 Du        
  14880 ****        19.0000  23.7500  18.5000 Du        
  14881 ****        19.0000  23.7500  18.7500 Du        
  14882 ****        19.0000  23.7500  19.0000 Du        
  14883 ****        19.0000  24.0000  17.2500 Du        
  14884 ****        19.0000  24.0000  17.5000 Du        
  14885 ****        19.0000  24.0000  17.7500 Du        
  14886 ****        19.0000  24.0000  18.0000 Du        
  14887 ****        19.0000  24.0000  18.2500 Du        
  14888 ****        19.0000  24.0000  18.5000 Du        
  14889 ****        19.0000  24.0000  18.7500 Du        
  14890 ****        19.0000  24.2500  17.2500 Du        
  14891 ****        19.0000  24.2500  17.5000 Du        
  14892 ****        19.0000  24.2500  17.7500 Du        
  14893 ****        19.0000  24.2500  18.0000 Du        
  14894 ****        19.0000  24.2500  18.2500 Du        
  14895 ****        19.0000  26.2500   6.7500 Du        
  14896 ****        19.0000  26.2500   7.0000 Du        
  14897 ****        19.0000  26.5000   7.0000 Du        
  14898 ****        19.0000  26.5000   7.2500 Du        
  14899 ****        19.0000  26.7500   7.0000 Du        
  14900 ****        19.0000  26.7500   7.2500 Du        
  14901 ****        19.0000  27.0000   7.0000 Du        
  14902 ****        19.0000  27.0000   7.2500 Du        
  14903 ****        19.0000  27.0000   7.5000 Du        
  14904 ****        19.0000  27.2500   7.0000 Du        
  14905 ****        19.0000  27.2500   7.2500 Du        
  14906 ****        19.0000  27.2500   7.5000 Du        
  14907 ****        19.0000  27.2500   7.7500 Du        
  14908 ****        19.0000  27.5000   7.2500 Du        
  14909 ****        19.0000  27.5000   7.5000 Du        
  14910 ****        19.0000  27.5000   7.7500 Du        
  14911 ****        19.0000  27.7500   7.2500 Du        
  14912 ****        19.0000  27.7500   7.5000 Du        
  14913 ****        19.0000  27.7500   7.7500 Du        
  14914 ****        19.0000  27.7500   8.0000 Du        
  14915 ****        19.0000  28.0000   7.2500 Du        
  14916 ****        19.0000  28.0000   7.5000 Du        
  14917 ****        19.0000  28.0000   7.7500 Du        
  14918 ****        19.0000  28.0000   8.0000 Du        
  14919 ****        19.0000  28.0000   8.2500 Du        
  14920 ****        19.0000  28.2500   8.0000 Du        
  14921 ****        19.0000  28.2500   8.2500 Du        
  14922 ****        19.2500  14.0000  19.2500 Du        
  14923 ****        19.2500  14.2500  18.7500 Du        
  14924 ****        19.2500  14.2500  19.0000 Du        
  14925 ****        19.2500  14.2500  19.2500 Du        
  14926 ****        19.2500  14.5000  18.2500 Du        
  14927 ****        19.2500  14.5000  18.5000 Du        
  14928 ****        19.2500  14.5000  18.7500 Du        
  14929 ****        19.2500  14.5000  19.0000 Du        
  14930 ****        19.2500  14.5000  19.2500 Du        
  14931 ****        19.2500  14.5000  19.5000 Du        
  14932 ****        19.2500  14.7500  18.0000 Du        
  14933 ****        19.2500  14.7500  18.2500 Du        
  14934 ****        19.2500  14.7500  18.5000 Du        
  14935 ****        19.2500  14.7500  18.7500 Du        
  14936 ****        19.2500  14.7500  19.0000 Du        
  14937 ****        19.2500  14.7500  19.2500 Du        
  14938 ****        19.2500  14.7500  19.5000 Du        
  14939 ****        19.2500  15.0000  11.7500 Du        
  14940 ****        19.2500  15.0000  12.0000 Du        
  14941 ****        19.2500  15.0000  12.2500 Du        
  14942 ****        19.2500  15.0000  12.5000 Du        
  14943 ****        19.2500  15.0000  12.7500 Du        
  14944 ****        19.2500  15.0000  13.0000 Du        
  14945 ****        19.2500  15.0000  13.2500 Du        
  14946 ****        19.2500  15.0000  17.7500 Du        
  14947 ****        19.2500  15.0000  18.0000 Du        
  14948 ****        19.2500  15.0000  18.2500 Du        
  14949 ****        19.2500  15.0000  18.5000 Du        
  14950 ****        19.2500  15.0000  18.7500 Du        
  14951 ****        19.2500  15.0000  19.0000 Du        
  14952 ****        19.2500  15.0000  19.2500 Du        
  14953 ****        19.2500  15.2500  11.5000 Du        
  14954 ****        19.2500  15.2500  11.7500 Du        
  14955 ****        19.2500  15.2500  12.0000 Du        
  14956 ****        19.2500  15.2500  12.2500 Du        
  14957 ****        19.2500  15.2500  12.5000 Du        
  14958 ****        19.2500  15.2500  12.7500 Du        
  14959 ****        19.2500  15.2500  13.0000 Du        
  14960 ****        19.2500  15.2500  13.2500 Du        
  14961 ****        19.2500  15.2500  13.5000 Du        
  14962 ****        19.2500  15.2500  17.7500 Du        
  14963 ****        19.2500  15.2500  18.0000 Du        
  14964 ****        19.2500  15.2500  18.2500 Du        
  14965 ****        19.2500  15.2500  18.5000 Du        
  14966 ****        19.2500  15.2500  18.7500 Du        
  14967 ****        19.2500  15.2500  19.0000 Du        
  14968 ****        19.2500  15.2500  19.2500 Du        
  14969 ****        19.2500  15.5000  11.5000 Du        
  14970 ****        19.2500  15.5000  11.7500 Du        
  14971 ****        19.2500  15.5000  12.0000 Du        
  14972 ****        19.2500  15.5000  12.2500 Du        
  14973 ****        19.2500  15.5000  12.5000 Du        
  14974 ****        19.2500  15.5000  12.7500 Du        
  14975 ****        19.2500  15.5000  13.0000 Du        
  14976 ****        19.2500  15.5000  13.2500 Du        
  14977 ****        19.2500  15.5000  13.5000 Du        
  14978 ****        19.2500  15.5000  18.2500 Du        
  14979 ****        19.2500  15.5000  18.5000 Du        
  14980 ****        19.2500  15.5000  18.7500 Du        
  14981 ****        19.2500  15.5000  19.0000 Du        
  14982 ****        19.2500  15.5000  19.2500 Du        
  14983 ****        19.2500  15.7500  11.7500 Du        
  14984 ****        19.2500  15.7500  12.0000 Du        
  14985 ****        19.2500  15.7500  12.2500 Du        
  14986 ****        19.2500  15.7500  12.5000 Du        
  14987 ****        19.2500  15.7500  12.7500 Du        
  14988 ****        19.2500  15.7500  13.0000 Du        
  14989 ****        19.2500  15.7500  13.2500 Du        
  14990 ****        19.2500  15.7500  18.7500 Du        
  14991 ****        19.2500  15.7500  19.0000 Du        
  14992 ****        19.2500  16.0000  11.7500 Du        
  14993 ****        19.2500  16.0000  12.0000 Du        
  14994 ****        19.2500  16.0000  12.2500 Du        
  14995 ****        19.2500  16.0000  12.5000 Du        
  14996 ****        19.2500  16.0000  12.7500 Du        
  14997 ****        19.2500  16.0000  13.0000 Du        
  14998 ****        19.2500  16.0000  13.2500 Du        
  14999 ****        19.2500  16.2500  12.0000 Du        
  15000 ****        19.2500  16.2500  12.2500 Du        
  15001 ****        19.2500  16.2500  12.5000 Du        
  15002 ****        19.2500  16.2500  12.7500 Du        
  15003 ****        19.2500  16.2500  13.0000 Du        
  15004 ****        19.2500  16.5000  12.2500 Du        
  15005 ****        19.2500  16.5000  12.5000 Du        
  15006 ****        19.2500  16.5000  12.7500 Du        
  15007 ****        19.2500  22.5000  18.0000 Du        
  15008 ****        19.2500  22.5000  18.2500 Du        
  15009 ****        19.2500  22.5000  18.5000 Du        
  15010 ****        19.2500  22.5000  18.7500 Du        
  15011 ****        19.2500  22.5000  19.0000 Du        
  15012 ****        19.2500  22.7500  17.2500 Du        
  15013 ****        19.2500  22.7500  17.5000 Du        
  15014 ****        19.2500  22.7500  17.7500 Du        
  15015 ****        19.2500  22.7500  18.0000 Du        
  15016 ****        19.2500  22.7500  18.2500 Du        
  15017 ****        19.2500  22.7500  18.5000 Du        
  15018 ****        19.2500  22.7500  18.7500 Du        
  15019 ****        19.2500  22.7500  19.0000 Du        
  15020 ****        19.2500  22.7500  19.2500 Du        
  15021 ****        19.2500  23.0000  17.0000 Du        
  15022 ****        19.2500  23.0000  17.2500 Du        
  15023 ****        19.2500  23.0000  17.5000 Du        
  15024 ****        19.2500  23.0000  17.7500 Du        
  15025 ****        19.2500  23.0000  18.0000 Du        
  15026 ****        19.2500  23.0000  18.2500 Du        
  15027 ****        19.2500  23.0000  18.5000 Du        
  15028 ****        19.2500  23.0000  18.7500 Du        
  15029 ****        19.2500  23.0000  19.0000 Du        
  15030 ****        19.2500  23.0000  19.2500 Du        
  15031 ****        19.2500  23.0000  19.5000 Du        
  15032 ****        19.2500  23.0000  19.7500 Du        
  15033 ****        19.2500  23.2500  17.0000 Du        
  15034 ****        19.2500  23.2500  17.2500 Du        
  15035 ****        19.2500  23.2500  17.5000 Du        
  15036 ****        19.2500  23.2500  17.7500 Du        
  15037 ****        19.2500  23.2500  18.0000 Du        
  15038 ****        19.2500  23.2500  18.2500 Du        
  15039 ****        19.2500  23.2500  18.5000 Du        
  15040 ****        19.2500  23.2500  18.7500 Du        
  15041 ****        19.2500  23.2500  19.0000 Du        
  15042 ****        19.2500  23.2500  19.2500 Du        
  15043 ****        19.2500  23.2500  19.5000 Du        
  15044 ****        19.2500  23.2500  19.7500 Du        
  15045 ****        19.2500  23.5000  17.0000 Du        
  15046 ****        19.2500  23.5000  17.2500 Du        
  15047 ****        19.2500  23.5000  17.5000 Du        
  15048 ****        19.2500  23.5000  17.7500 Du        
  15049 ****        19.2500  23.5000  18.0000 Du        
  15050 ****        19.2500  23.5000  18.2500 Du        
  15051 ****        19.2500  23.5000  18.5000 Du        
  15052 ****        19.2500  23.5000  18.7500 Du        
  15053 ****        19.2500  23.5000  19.0000 Du        
  15054 ****        19.2500  23.5000  19.2500 Du        
  15055 ****        19.2500  23.7500  17.0000 Du        
  15056 ****        19.2500  23.7500  17.2500 Du        
  15057 ****        19.2500  23.7500  17.5000 Du        
  15058 ****        19.2500  23.7500  17.7500 Du        
  15059 ****        19.2500  23.7500  18.0000 Du        
  15060 ****        19.2500  23.7500  18.2500 Du        
  15061 ****        19.2500  23.7500  18.5000 Du        
  15062 ****        19.2500  23.7500  18.7500 Du        
  15063 ****        19.2500  23.7500  19.0000 Du        
  15064 ****        19.2500  23.7500  19.2500 Du        
  15065 ****        19.2500  24.0000  17.0000 Du        
  15066 ****        19.2500  24.0000  17.2500 Du        
  15067 ****        19.2500  24.0000  17.5000 Du        
  15068 ****        19.2500  24.0000  17.7500 Du        
  15069 ****        19.2500  24.0000  18.0000 Du        
  15070 ****        19.2500  24.0000  18.2500 Du        
  15071 ****        19.2500  24.0000  18.5000 Du        
  15072 ****        19.2500  24.0000  18.7500 Du        
  15073 ****        19.2500  24.0000  19.0000 Du        
  15074 ****        19.2500  24.2500  17.2500 Du        
  15075 ****        19.2500  24.2500  17.5000 Du        
  15076 ****        19.2500  24.2500  17.7500 Du        
  15077 ****        19.2500  24.2500  18.0000 Du        
  15078 ****        19.2500  24.2500  18.2500 Du        
  15079 ****        19.2500  24.5000  17.5000 Du        
  15080 ****        19.2500  24.5000  17.7500 Du        
  15081 ****        19.2500  26.0000   6.5000 Du        
  15082 ****        19.2500  26.0000   6.7500 Du        
  15083 ****        19.2500  26.0000   7.0000 Du        
  15084 ****        19.2500  26.0000   7.2500 Du        
  15085 ****        19.2500  26.0000   7.5000 Du        
  15086 ****        19.2500  26.2500   6.5000 Du        
  15087 ****        19.2500  26.2500   6.7500 Du        
  15088 ****        19.2500  26.2500   7.0000 Du        
  15089 ****        19.2500  26.2500   7.2500 Du        
  15090 ****        19.2500  26.2500   7.5000 Du        
  15091 ****        19.2500  26.5000   6.7500 Du        
  15092 ****        19.2500  26.5000   7.0000 Du        
  15093 ****        19.2500  26.5000   7.2500 Du        
  15094 ****        19.2500  26.5000   7.5000 Du        
  15095 ****        19.2500  26.7500   6.7500 Du        
  15096 ****        19.2500  26.7500   7.0000 Du        
  15097 ****        19.2500  26.7500   7.2500 Du        
  15098 ****        19.2500  26.7500   7.5000 Du        
  15099 ****        19.2500  26.7500   7.7500 Du        
  15100 ****        19.2500  27.0000   6.7500 Du        
  15101 ****        19.2500  27.0000   7.0000 Du        
  15102 ****        19.2500  27.0000   7.2500 Du        
  15103 ****        19.2500  27.0000   7.5000 Du        
  15104 ****        19.2500  27.0000   7.7500 Du        
  15105 ****        19.2500  27.0000   8.0000 Du        
  15106 ****        19.2500  27.2500   7.0000 Du        
  15107 ****        19.2500  27.2500   7.2500 Du        
  15108 ****        19.2500  27.2500   7.5000 Du        
  15109 ****        19.2500  27.2500   7.7500 Du        
  15110 ****        19.2500  27.2500   8.0000 Du        
  15111 ****        19.2500  27.5000   7.0000 Du        
  15112 ****        19.2500  27.5000   7.2500 Du        
  15113 ****        19.2500  27.5000   7.5000 Du        
  15114 ****        19.2500  27.5000   7.7500 Du        
  15115 ****        19.2500  27.7500   7.0000 Du        
  15116 ****        19.2500  27.7500   7.2500 Du        
  15117 ****        19.2500  27.7500   7.5000 Du        
  15118 ****        19.2500  27.7500   7.7500 Du        
  15119 ****        19.2500  27.7500   8.0000 Du        
  15120 ****        19.2500  28.0000   7.2500 Du        
  15121 ****        19.2500  28.0000   7.5000 Du        
  15122 ****        19.2500  28.0000   7.7500 Du        
  15123 ****        19.2500  28.0000   8.0000 Du        
  15124 ****        19.5000  14.2500  19.0000 Du        
  15125 ****        19.5000  14.2500  19.2500 Du        
  15126 ****        19.5000  14.5000  18.2500 Du        
  15127 ****        19.5000  14.5000  18.5000 Du        
  15128 ****        19.5000  14.5000  18.7500 Du        
  15129 ****        19.5000  14.5000  19.0000 Du        
  15130 ****        19.5000  14.5000  19.2500 Du        
  15131 ****        19.5000  14.5000  19.5000 Du        
  15132 ****        19.5000  14.7500  17.7500 Du        
  15133 ****        19.5000  14.7500  18.0000 Du        
  15134 ****        19.5000  14.7500  18.2500 Du        
  15135 ****        19.5000  14.7500  18.5000 Du        
  15136 ****        19.5000  14.7500  18.7500 Du        
  15137 ****        19.5000  14.7500  19.0000 Du        
  15138 ****        19.5000  14.7500  19.2500 Du        
  15139 ****        19.5000  14.7500  19.5000 Du        
  15140 ****        19.5000  15.0000  12.2500 Du        
  15141 ****        19.5000  15.0000  17.7500 Du        
  15142 ****        19.5000  15.0000  18.0000 Du        
  15143 ****        19.5000  15.0000  18.2500 Du        
  15144 ****        19.5000  15.0000  18.5000 Du        
  15145 ****        19.5000  15.0000  18.7500 Du        
  15146 ****        19.5000  15.0000  19.0000 Du        
  15147 ****        19.5000  15.0000  19.2500 Du        
  15148 ****        19.5000  15.2500  11.7500 Du        
  15149 ****        19.5000  15.2500  12.0000 Du        
  15150 ****        19.5000  15.2500  12.2500 Du        
  15151 ****        19.5000  15.2500  12.5000 Du        
  15152 ****        19.5000  15.2500  12.7500 Du        
  15153 ****        19.5000  15.2500  13.0000 Du        
  15154 ****        19.5000  15.2500  17.7500 Du        
  15155 ****        19.5000  15.2500  18.0000 Du        
  15156 ****        19.5000  15.2500  18.2500 Du        
  15157 ****        19.5000  15.2500  18.5000 Du        
  15158 ****        19.5000  15.2500  18.7500 Du        
  15159 ****        19.5000  15.2500  19.0000 Du        
  15160 ****        19.5000  15.2500  19.2500 Du        
  15161 ****        19.5000  15.5000  11.5000 Du        
  15162 ****        19.5000  15.5000  11.7500 Du        
  15163 ****        19.5000  15.5000  12.0000 Du        
  15164 ****        19.5000  15.5000  12.2500 Du        
  15165 ****        19.5000  15.5000  12.5000 Du        
  15166 ****        19.5000  15.5000  12.7500 Du        
  15167 ****        19.5000  15.5000  13.0000 Du        
  15168 ****        19.5000  15.5000  13.2500 Du        
  15169 ****        19.5000  15.5000  18.2500 Du        
  15170 ****        19.5000  15.5000  18.5000 Du        
  15171 ****        19.5000  15.5000  18.7500 Du        
  15172 ****        19.5000  15.5000  19.0000 Du        
  15173 ****        19.5000  15.5000  19.2500 Du        
  15174 ****        19.5000  15.7500  11.7500 Du        
  15175 ****        19.5000  15.7500  12.0000 Du        
  15176 ****        19.5000  15.7500  12.2500 Du        
  15177 ****        19.5000  15.7500  12.5000 Du        
  15178 ****        19.5000  15.7500  12.7500 Du        
  15179 ****        19.5000  15.7500  13.0000 Du        
  15180 ****        19.5000  15.7500  13.2500 Du        
  15181 ****        19.5000  15.7500  18.7500 Du        
  15182 ****        19.5000  15.7500  19.0000 Du        
  15183 ****        19.5000  16.0000  12.0000 Du        
  15184 ****        19.5000  16.0000  12.2500 Du        
  15185 ****        19.5000  16.0000  12.5000 Du        
  15186 ****        19.5000  16.0000  12.7500 Du        
  15187 ****        19.5000  16.0000  13.0000 Du        
  15188 ****        19.5000  16.2500  12.0000 Du        
  15189 ****        19.5000  16.2500  12.2500 Du        
  15190 ****        19.5000  16.2500  12.5000 Du        
  15191 ****        19.5000  16.2500  12.7500 Du        
  15192 ****        19.5000  16.5000  12.2500 Du        
  15193 ****        19.5000  16.5000  12.5000 Du        
  15194 ****        19.5000  16.5000  12.7500 Du        
  15195 ****        19.5000  22.5000  18.0000 Du        
  15196 ****        19.5000  22.5000  18.2500 Du        
  15197 ****        19.5000  22.5000  18.5000 Du        
  15198 ****        19.5000  22.5000  18.7500 Du        
  15199 ****        19.5000  22.5000  19.0000 Du        
  15200 ****        19.5000  22.5000  19.2500 Du        
  15201 ****        19.5000  22.5000  19.5000 Du        
  15202 ****        19.5000  22.7500  17.2500 Du        
  15203 ****        19.5000  22.7500  17.5000 Du        
  15204 ****        19.5000  22.7500  17.7500 Du        
  15205 ****        19.5000  22.7500  18.0000 Du        
  15206 ****        19.5000  22.7500  18.2500 Du        
  15207 ****        19.5000  22.7500  18.5000 Du        
  15208 ****        19.5000  22.7500  18.7500 Du        
  15209 ****        19.5000  22.7500  19.0000 Du        
  15210 ****        19.5000  22.7500  19.2500 Du        
  15211 ****        19.5000  22.7500  19.5000 Du        
  15212 ****        19.5000  22.7500  19.7500 Du        
  15213 ****        19.5000  22.7500  20.0000 Du        
  15214 ****        19.5000  23.0000  17.0000 Du        
  15215 ****        19.5000  23.0000  17.2500 Du        
  15216 ****        19.5000  23.0000  17.5000 Du        
  15217 ****        19.5000  23.0000  17.7500 Du        
  15218 ****        19.5000  23.0000  18.0000 Du        
  15219 ****        19.5000  23.0000  18.2500 Du        
  15220 ****        19.5000  23.0000  18.5000 Du        
  15221 ****        19.5000  23.0000  18.7500 Du        
  15222 ****        19.5000  23.0000  19.0000 Du        
  15223 ****        19.5000  23.0000  19.2500 Du        
  15224 ****        19.5000  23.0000  19.5000 Du        
  15225 ****        19.5000  23.0000  19.7500 Du        
  15226 ****        19.5000  23.0000  20.0000 Du        
  15227 ****        19.5000  23.0000  20.2500 Du        
  15228 ****        19.5000  23.0000  20.5000 Du        
  15229 ****        19.5000  23.2500  17.0000 Du        
  15230 ****        19.5000  23.2500  17.2500 Du        
  15231 ****        19.5000  23.2500  17.5000 Du        
  15232 ****        19.5000  23.2500  17.7500 Du        
  15233 ****        19.5000  23.2500  18.0000 Du        
  15234 ****        19.5000  23.2500  18.2500 Du        
  15235 ****        19.5000  23.2500  18.5000 Du        
  15236 ****        19.5000  23.2500  18.7500 Du        
  15237 ****        19.5000  23.2500  19.0000 Du        
  15238 ****        19.5000  23.2500  19.2500 Du        
  15239 ****        19.5000  23.2500  19.5000 Du        
  15240 ****        19.5000  23.2500  19.7500 Du        
  15241 ****        19.5000  23.2500  20.0000 Du        
  15242 ****        19.5000  23.2500  20.2500 Du        
  15243 ****        19.5000  23.2500  20.5000 Du        
  15244 ****        19.5000  23.2500  20.7500 Du        
  15245 ****        19.5000  23.2500  21.0000 Du        
  15246 ****        19.5000  23.5000  17.0000 Du        
  15247 ****        19.5000  23.5000  17.2500 Du        
  15248 ****        19.5000  23.5000  17.5000 Du        
  15249 ****        19.5000  23.5000  17.7500 Du        
  15250 ****        19.5000  23.5000  18.0000 Du        
  15251 ****        19.5000  23.5000  18.2500 Du        
  15252 ****        19.5000  23.5000  18.5000 Du        
  15253 ****        19.5000  23.5000  18.7500 Du        
  15254 ****        19.5000  23.5000  19.0000 Du        
  15255 ****        19.5000  23.5000  19.2500 Du        
  15256 ****        19.5000  23.5000  19.5000 Du        
  15257 ****        19.5000  23.5000  19.7500 Du        
  15258 ****        19.5000  23.7500  17.0000 Du        
  15259 ****        19.5000  23.7500  17.2500 Du        
  15260 ****        19.5000  23.7500  17.5000 Du        
  15261 ****        19.5000  23.7500  17.7500 Du        
  15262 ****        19.5000  23.7500  18.0000 Du        
  15263 ****        19.5000  23.7500  18.2500 Du        
  15264 ****        19.5000  23.7500  18.5000 Du        
  15265 ****        19.5000  23.7500  18.7500 Du        
  15266 ****        19.5000  23.7500  19.0000 Du        
  15267 ****        19.5000  23.7500  19.2500 Du        
  15268 ****        19.5000  24.0000  17.0000 Du        
  15269 ****        19.5000  24.0000  17.2500 Du        
  15270 ****        19.5000  24.0000  17.5000 Du        
  15271 ****        19.5000  24.0000  17.7500 Du        
  15272 ****        19.5000  24.0000  18.0000 Du        
  15273 ****        19.5000  24.0000  18.2500 Du        
  15274 ****        19.5000  24.0000  18.5000 Du        
  15275 ****        19.5000  24.0000  18.7500 Du        
  15276 ****        19.5000  24.0000  19.0000 Du        
  15277 ****        19.5000  24.2500  17.0000 Du        
  15278 ****        19.5000  24.2500  17.2500 Du        
  15279 ****        19.5000  24.2500  17.5000 Du        
  15280 ****        19.5000  24.2500  17.7500 Du        
  15281 ****        19.5000  24.2500  18.0000 Du        
  15282 ****        19.5000  24.2500  18.2500 Du        
  15283 ****        19.5000  24.2500  18.5000 Du        
  15284 ****        19.5000  24.2500  18.7500 Du        
  15285 ****        19.5000  24.5000  17.2500 Du        
  15286 ****        19.5000  24.5000  17.5000 Du        
  15287 ****        19.5000  24.5000  17.7500 Du        
  15288 ****        19.5000  24.5000  18.0000 Du        
  15289 ****        19.5000  24.7500  17.2500 Du        
  15290 ****        19.5000  24.7500  17.5000 Du        
  15291 ****        19.5000  24.7500  17.7500 Du        
  15292 ****        19.5000  25.0000  17.5000 Du        
  15293 ****        19.5000  25.7500   7.0000 Du        
  15294 ****        19.5000  25.7500   7.2500 Du        
  15295 ****        19.5000  25.7500   7.5000 Du        
  15296 ****        19.5000  25.7500   7.7500 Du        
  15297 ****        19.5000  26.0000   6.2500 Du        
  15298 ****        19.5000  26.0000   6.5000 Du        
  15299 ****        19.5000  26.0000   6.7500 Du        
  15300 ****        19.5000  26.0000   7.0000 Du        
  15301 ****        19.5000  26.0000   7.2500 Du        
  15302 ****        19.5000  26.0000   7.5000 Du        
  15303 ****        19.5000  26.0000   7.7500 Du        
  15304 ****        19.5000  26.2500   6.2500 Du        
  15305 ****        19.5000  26.2500   6.5000 Du        
  15306 ****        19.5000  26.2500   6.7500 Du        
  15307 ****        19.5000  26.2500   7.0000 Du        
  15308 ****        19.5000  26.2500   7.2500 Du        
  15309 ****        19.5000  26.2500   7.5000 Du        
  15310 ****        19.5000  26.2500   7.7500 Du        
  15311 ****        19.5000  26.2500   8.0000 Du        
  15312 ****        19.5000  26.5000   6.5000 Du        
  15313 ****        19.5000  26.5000   6.7500 Du        
  15314 ****        19.5000  26.5000   7.0000 Du        
  15315 ****        19.5000  26.5000   7.2500 Du        
  15316 ****        19.5000  26.5000   7.5000 Du        
  15317 ****        19.5000  26.5000   7.7500 Du        
  15318 ****        19.5000  26.5000   8.0000 Du        
  15319 ****        19.5000  26.7500   6.7500 Du        
  15320 ****        19.5000  26.7500   7.0000 Du        
  15321 ****        19.5000  26.7500   7.2500 Du        
  15322 ****        19.5000  26.7500   7.5000 Du        
  15323 ****        19.5000  26.7500   7.7500 Du        
  15324 ****        19.5000  26.7500   8.0000 Du        
  15325 ****        19.5000  27.0000   6.7500 Du        
  15326 ****        19.5000  27.0000   7.0000 Du        
  15327 ****        19.5000  27.0000   7.2500 Du        
  15328 ****        19.5000  27.0000   7.5000 Du        
  15329 ****        19.5000  27.0000   7.7500 Du        
  15330 ****        19.5000  27.0000   8.0000 Du        
  15331 ****        19.5000  27.0000   8.2500 Du        
  15332 ****        19.5000  27.2500   6.7500 Du        
  15333 ****        19.5000  27.2500   7.0000 Du        
  15334 ****        19.5000  27.2500   7.2500 Du        
  15335 ****        19.5000  27.2500   7.5000 Du        
  15336 ****        19.5000  27.2500   7.7500 Du        
  15337 ****        19.5000  27.2500   8.0000 Du        
  15338 ****        19.5000  27.2500   8.2500 Du        
  15339 ****        19.5000  27.5000   7.0000 Du        
  15340 ****        19.5000  27.5000   7.2500 Du        
  15341 ****        19.5000  27.7500   7.0000 Du        
  15342 ****        19.5000  27.7500   7.2500 Du        
  15343 ****        19.5000  28.0000   7.2500 Du        
  15344 ****        19.7500  14.2500  19.0000 Du        
  15345 ****        19.7500  14.2500  19.2500 Du        
  15346 ****        19.7500  14.5000  18.2500 Du        
  15347 ****        19.7500  14.5000  18.5000 Du        
  15348 ****        19.7500  14.5000  18.7500 Du        
  15349 ****        19.7500  14.5000  19.0000 Du        
  15350 ****        19.7500  14.5000  19.2500 Du        
  15351 ****        19.7500  14.5000  19.5000 Du        
  15352 ****        19.7500  14.7500  17.7500 Du        
  15353 ****        19.7500  14.7500  18.0000 Du        
  15354 ****        19.7500  14.7500  18.2500 Du        
  15355 ****        19.7500  14.7500  18.5000 Du        
  15356 ****        19.7500  14.7500  18.7500 Du        
  15357 ****        19.7500  14.7500  19.0000 Du        
  15358 ****        19.7500  14.7500  19.2500 Du        
  15359 ****        19.7500  14.7500  19.5000 Du        
  15360 ****        19.7500  15.0000  12.0000 Du        
  15361 ****        19.7500  15.0000  12.2500 Du        
  15362 ****        19.7500  15.0000  17.7500 Du        
  15363 ****        19.7500  15.0000  18.0000 Du        
  15364 ****        19.7500  15.0000  18.2500 Du        
  15365 ****        19.7500  15.0000  18.5000 Du        
  15366 ****        19.7500  15.0000  18.7500 Du        
  15367 ****        19.7500  15.0000  19.0000 Du        
  15368 ****        19.7500  15.0000  19.2500 Du        
  15369 ****        19.7500  15.2500  11.7500 Du        
  15370 ****        19.7500  15.2500  12.0000 Du        
  15371 ****        19.7500  15.2500  12.2500 Du        
  15372 ****        19.7500  15.2500  12.5000 Du        
  15373 ****        19.7500  15.2500  12.7500 Du        
  15374 ****        19.7500  15.2500  13.0000 Du        
  15375 ****        19.7500  15.2500  17.7500 Du        
  15376 ****        19.7500  15.2500  18.0000 Du        
  15377 ****        19.7500  15.2500  18.2500 Du        
  15378 ****        19.7500  15.2500  18.5000 Du        
  15379 ****        19.7500  15.2500  18.7500 Du        
  15380 ****        19.7500  15.2500  19.0000 Du        
  15381 ****        19.7500  15.2500  19.2500 Du        
  15382 ****        19.7500  15.5000  11.5000 Du        
  15383 ****        19.7500  15.5000  11.7500 Du        
  15384 ****        19.7500  15.5000  12.0000 Du        
  15385 ****        19.7500  15.5000  12.2500 Du        
  15386 ****        19.7500  15.5000  12.5000 Du        
  15387 ****        19.7500  15.5000  12.7500 Du        
  15388 ****        19.7500  15.5000  13.0000 Du        
  15389 ****        19.7500  15.5000  13.2500 Du        
  15390 ****        19.7500  15.5000  18.2500 Du        
  15391 ****        19.7500  15.5000  18.5000 Du        
  15392 ****        19.7500  15.5000  18.7500 Du        
  15393 ****        19.7500  15.5000  19.0000 Du        
  15394 ****        19.7500  15.5000  19.2500 Du        
  15395 ****        19.7500  15.7500  11.7500 Du        
  15396 ****        19.7500  15.7500  12.0000 Du        
  15397 ****        19.7500  15.7500  12.2500 Du        
  15398 ****        19.7500  15.7500  12.5000 Du        
  15399 ****        19.7500  15.7500  12.7500 Du        
  15400 ****        19.7500  15.7500  13.0000 Du        
  15401 ****        19.7500  15.7500  13.2500 Du        
  15402 ****        19.7500  15.7500  18.7500 Du        
  15403 ****        19.7500  15.7500  19.0000 Du        
  15404 ****        19.7500  16.0000  12.0000 Du        
  15405 ****        19.7500  16.0000  12.2500 Du        
  15406 ****        19.7500  16.0000  12.5000 Du        
  15407 ****        19.7500  16.0000  12.7500 Du        
  15408 ****        19.7500  16.0000  13.0000 Du        
  15409 ****        19.7500  16.2500  12.0000 Du        
  15410 ****        19.7500  16.2500  12.2500 Du        
  15411 ****        19.7500  16.2500  12.5000 Du        
  15412 ****        19.7500  16.2500  12.7500 Du        
  15413 ****        19.7500  16.5000  12.2500 Du        
  15414 ****        19.7500  16.5000  12.5000 Du        
  15415 ****        19.7500  16.5000  12.7500 Du        
  15416 ****        19.7500  22.2500  18.7500 Du        
  15417 ****        19.7500  22.2500  19.0000 Du        
  15418 ****        19.7500  22.2500  19.2500 Du        
  15419 ****        19.7500  22.5000  18.0000 Du        
  15420 ****        19.7500  22.5000  18.2500 Du        
  15421 ****        19.7500  22.5000  18.5000 Du        
  15422 ****        19.7500  22.5000  18.7500 Du        
  15423 ****        19.7500  22.5000  19.0000 Du        
  15424 ****        19.7500  22.5000  19.2500 Du        
  15425 ****        19.7500  22.5000  19.5000 Du        
  15426 ****        19.7500  22.5000  19.7500 Du        
  15427 ****        19.7500  22.5000  20.0000 Du        
  15428 ****        19.7500  22.7500  17.5000 Du        
  15429 ****        19.7500  22.7500  17.7500 Du        
  15430 ****        19.7500  22.7500  18.0000 Du        
  15431 ****        19.7500  22.7500  18.2500 Du        
  15432 ****        19.7500  22.7500  18.5000 Du        
  15433 ****        19.7500  22.7500  18.7500 Du        
  15434 ****        19.7500  22.7500  19.0000 Du        
  15435 ****        19.7500  22.7500  19.2500 Du        
  15436 ****        19.7500  22.7500  19.5000 Du        
  15437 ****        19.7500  22.7500  19.7500 Du        
  15438 ****        19.7500  22.7500  20.0000 Du        
  15439 ****        19.7500  22.7500  20.2500 Du        
  15440 ****        19.7500  23.0000  17.0000 Du        
  15441 ****        19.7500  23.0000  17.2500 Du        
  15442 ****        19.7500  23.0000  17.5000 Du        
  15443 ****        19.7500  23.0000  17.7500 Du        
  15444 ****        19.7500  23.0000  18.0000 Du        
  15445 ****        19.7500  23.0000  18.2500 Du        
  15446 ****        19.7500  23.0000  18.5000 Du        
  15447 ****        19.7500  23.0000  18.7500 Du        
  15448 ****        19.7500  23.0000  19.0000 Du        
  15449 ****        19.7500  23.0000  19.2500 Du        
  15450 ****        19.7500  23.0000  19.5000 Du        
  15451 ****        19.7500  23.0000  19.7500 Du        
  15452 ****        19.7500  23.0000  20.0000 Du        
  15453 ****        19.7500  23.0000  20.2500 Du        
  15454 ****        19.7500  23.0000  20.5000 Du        
  15455 ****        19.7500  23.0000  20.7500 Du        
  15456 ****        19.7500  23.0000  21.0000 Du        
  15457 ****        19.7500  23.2500  17.0000 Du        
  15458 ****        19.7500  23.2500  17.2500 Du        
  15459 ****        19.7500  23.2500  17.5000 Du        
  15460 ****        19.7500  23.2500  17.7500 Du        
  15461 ****        19.7500  23.2500  18.0000 Du        
  15462 ****        19.7500  23.2500  18.2500 Du        
  15463 ****        19.7500  23.2500  18.5000 Du        
  15464 ****        19.7500  23.2500  18.7500 Du        
  15465 ****        19.7500  23.2500  19.0000 Du        
  15466 ****        19.7500  23.2500  19.2500 Du        
  15467 ****        19.7500  23.2500  19.5000 Du        
  15468 ****        19.7500  23.2500  19.7500 Du        
  15469 ****        19.7500  23.2500  20.0000 Du        
  15470 ****        19.7500  23.2500  20.2500 Du        
  15471 ****        19.7500  23.2500  20.5000 Du        
  15472 ****        19.7500  23.2500  20.7500 Du        
  15473 ****        19.7500  23.2500  21.0000 Du        
  15474 ****        19.7500  23.2500  21.2500 Du        
  15475 ****        19.7500  23.5000  17.0000 Du        
  15476 ****        19.7500  23.5000  17.2500 Du        
  15477 ****        19.7500  23.5000  17.5000 Du        
  15478 ****        19.7500  23.5000  17.7500 Du        
  15479 ****        19.7500  23.5000  18.0000 Du        
  15480 ****        19.7500  23.5000  18.2500 Du        
  15481 ****        19.7500  23.5000  18.5000 Du        
  15482 ****        19.7500  23.5000  18.7500 Du        
  15483 ****        19.7500  23.5000  19.0000 Du        
  15484 ****        19.7500  23.5000  19.2500 Du        
  15485 ****        19.7500  23.5000  19.5000 Du        
  15486 ****        19.7500  23.5000  19.7500 Du        
  15487 ****        19.7500  23.5000  20.0000 Du        
  15488 ****        19.7500  23.5000  20.5000 Du        
  15489 ****        19.7500  23.7500  17.0000 Du        
  15490 ****        19.7500  23.7500  17.2500 Du        
  15491 ****        19.7500  23.7500  17.5000 Du        
  15492 ****        19.7500  23.7500  17.7500 Du        
  15493 ****        19.7500  23.7500  18.0000 Du        
  15494 ****        19.7500  23.7500  18.2500 Du        
  15495 ****        19.7500  23.7500  18.5000 Du        
  15496 ****        19.7500  23.7500  18.7500 Du        
  15497 ****        19.7500  23.7500  19.0000 Du        
  15498 ****        19.7500  23.7500  19.2500 Du        
  15499 ****        19.7500  23.7500  19.5000 Du        
  15500 ****        19.7500  24.0000  17.0000 Du        
  15501 ****        19.7500  24.0000  17.2500 Du        
  15502 ****        19.7500  24.0000  17.5000 Du        
  15503 ****        19.7500  24.0000  17.7500 Du        
  15504 ****        19.7500  24.0000  18.0000 Du        
  15505 ****        19.7500  24.0000  18.2500 Du        
  15506 ****        19.7500  24.0000  18.5000 Du        
  15507 ****        19.7500  24.0000  18.7500 Du        
  15508 ****        19.7500  24.0000  19.0000 Du        
  15509 ****        19.7500  24.0000  19.2500 Du        
  15510 ****        19.7500  24.2500  17.0000 Du        
  15511 ****        19.7500  24.2500  17.2500 Du        
  15512 ****        19.7500  24.2500  17.5000 Du        
  15513 ****        19.7500  24.2500  17.7500 Du        
  15514 ****        19.7500  24.2500  18.0000 Du        
  15515 ****        19.7500  24.2500  18.2500 Du        
  15516 ****        19.7500  24.2500  18.5000 Du        
  15517 ****        19.7500  24.2500  18.7500 Du        
  15518 ****        19.7500  24.2500  19.0000 Du        
  15519 ****        19.7500  24.5000  17.0000 Du        
  15520 ****        19.7500  24.5000  17.2500 Du        
  15521 ****        19.7500  24.5000  17.5000 Du        
  15522 ****        19.7500  24.5000  17.7500 Du        
  15523 ****        19.7500  24.5000  18.0000 Du        
  15524 ****        19.7500  24.5000  18.2500 Du        
  15525 ****        19.7500  24.7500  17.0000 Du        
  15526 ****        19.7500  24.7500  17.2500 Du        
  15527 ****        19.7500  24.7500  17.5000 Du        
  15528 ****        19.7500  24.7500  17.7500 Du        
  15529 ****        19.7500  24.7500  18.0000 Du        
  15530 ****        19.7500  25.0000  17.2500 Du        
  15531 ****        19.7500  25.0000  17.5000 Du        
  15532 ****        19.7500  25.0000  17.7500 Du        
  15533 ****        19.7500  25.5000   7.5000 Du        
  15534 ****        19.7500  25.5000   7.7500 Du        
  15535 ****        19.7500  25.5000   8.0000 Du        
  15536 ****        19.7500  25.5000   8.2500 Du        
  15537 ****        19.7500  25.7500   6.7500 Du        
  15538 ****        19.7500  25.7500   7.0000 Du        
  15539 ****        19.7500  25.7500   7.2500 Du        
  15540 ****        19.7500  25.7500   7.5000 Du        
  15541 ****        19.7500  25.7500   7.7500 Du        
  15542 ****        19.7500  25.7500   8.0000 Du        
  15543 ****        19.7500  25.7500   8.2500 Du        
  15544 ****        19.7500  26.0000   6.0000 Du        
  15545 ****        19.7500  26.0000   6.2500 Du        
  15546 ****        19.7500  26.0000   6.5000 Du        
  15547 ****        19.7500  26.0000   6.7500 Du        
  15548 ****        19.7500  26.0000   7.0000 Du        
  15549 ****        19.7500  26.0000   7.2500 Du        
  15550 ****        19.7500  26.0000   7.5000 Du        
  15551 ****        19.7500  26.0000   7.7500 Du        
  15552 ****        19.7500  26.0000   8.0000 Du        
  15553 ****        19.7500  26.0000   8.2500 Du        
  15554 ****        19.7500  26.2500   6.0000 Du        
  15555 ****        19.7500  26.2500   6.2500 Du        
  15556 ****        19.7500  26.2500   6.5000 Du        
  15557 ****        19.7500  26.2500   6.7500 Du        
  15558 ****        19.7500  26.2500   7.0000 Du        
  15559 ****        19.7500  26.2500   7.2500 Du        
  15560 ****        19.7500  26.2500   7.5000 Du        
  15561 ****        19.7500  26.2500   7.7500 Du        
  15562 ****        19.7500  26.2500   8.0000 Du        
  15563 ****        19.7500  26.2500   8.2500 Du        
  15564 ****        19.7500  26.5000   6.2500 Du        
  15565 ****        19.7500  26.5000   6.5000 Du        
  15566 ****        19.7500  26.5000   6.7500 Du        
  15567 ****        19.7500  26.5000   7.0000 Du        
  15568 ****        19.7500  26.5000   7.2500 Du        
  15569 ****        19.7500  26.5000   7.5000 Du        
  15570 ****        19.7500  26.5000   7.7500 Du        
  15571 ****        19.7500  26.5000   8.0000 Du        
  15572 ****        19.7500  26.5000   8.2500 Du        
  15573 ****        19.7500  26.7500   6.2500 Du        
  15574 ****        19.7500  26.7500   6.5000 Du        
  15575 ****        19.7500  26.7500   6.7500 Du        
  15576 ****        19.7500  26.7500   7.0000 Du        
  15577 ****        19.7500  26.7500   7.2500 Du        
  15578 ****        19.7500  26.7500   7.5000 Du        
  15579 ****        19.7500  26.7500   7.7500 Du        
  15580 ****        19.7500  26.7500   8.0000 Du        
  15581 ****        19.7500  26.7500   8.2500 Du        
  15582 ****        19.7500  27.0000   6.5000 Du        
  15583 ****        19.7500  27.0000   6.7500 Du        
  15584 ****        19.7500  27.0000   7.0000 Du        
  15585 ****        19.7500  27.0000   7.2500 Du        
  15586 ****        19.7500  27.0000   7.5000 Du        
  15587 ****        19.7500  27.0000   7.7500 Du        
  15588 ****        19.7500  27.0000   8.0000 Du        
  15589 ****        19.7500  27.0000   8.2500 Du        
  15590 ****        19.7500  27.2500   6.7500 Du        
  15591 ****        19.7500  27.2500   7.0000 Du        
  15592 ****        19.7500  27.2500   7.2500 Du        
  15593 ****        19.7500  27.2500   7.5000 Du        
  15594 ****        19.7500  27.2500   7.7500 Du        
  15595 ****        19.7500  27.2500   8.0000 Du        
  15596 ****        19.7500  27.2500   8.2500 Du        
  15597 ****        19.7500  27.5000   6.7500 Du        
  15598 ****        19.7500  27.5000   7.0000 Du        
  15599 ****        19.7500  27.5000   7.2500 Du        
  15600 ****        19.7500  27.7500   7.0000 Du        
  15601 ****        19.7500  27.7500   7.2500 Du        
  15602 ****        19.7500  28.0000   7.0000 Du        
  15603 ****        19.7500  28.0000   7.2500 Du        
  15604 ****        20.0000  14.2500  19.0000 Du        
  15605 ****        20.0000  14.2500  19.2500 Du        
  15606 ****        20.0000  14.2500  19.5000 Du        
  15607 ****        20.0000  14.5000  18.0000 Du        
  15608 ****        20.0000  14.5000  18.2500 Du        
  15609 ****        20.0000  14.5000  18.5000 Du        
  15610 ****        20.0000  14.5000  18.7500 Du        
  15611 ****        20.0000  14.5000  19.0000 Du        
  15612 ****        20.0000  14.5000  19.2500 Du        
  15613 ****        20.0000  14.5000  19.5000 Du        
  15614 ****        20.0000  14.7500  18.0000 Du        
  15615 ****        20.0000  14.7500  18.2500 Du        
  15616 ****        20.0000  14.7500  18.5000 Du        
  15617 ****        20.0000  14.7500  18.7500 Du        
  15618 ****        20.0000  14.7500  19.0000 Du        
  15619 ****        20.0000  14.7500  19.2500 Du        
  15620 ****        20.0000  14.7500  19.5000 Du        
  15621 ****        20.0000  15.0000   8.2500 Du        
  15622 ****        20.0000  15.0000  17.7500 Du        
  15623 ****        20.0000  15.0000  18.0000 Du        
  15624 ****        20.0000  15.0000  18.2500 Du        
  15625 ****        20.0000  15.0000  18.5000 Du        
  15626 ****        20.0000  15.0000  18.7500 Du        
  15627 ****        20.0000  15.0000  19.0000 Du        
  15628 ****        20.0000  15.0000  19.2500 Du        
  15629 ****        20.0000  15.0000  19.5000 Du        
  15630 ****        20.0000  15.2500  11.7500 Du        
  15631 ****        20.0000  15.2500  12.0000 Du        
  15632 ****        20.0000  15.2500  12.2500 Du        
  15633 ****        20.0000  15.2500  12.7500 Du        
  15634 ****        20.0000  15.2500  13.0000 Du        
  15635 ****        20.0000  15.2500  17.7500 Du        
  15636 ****        20.0000  15.2500  18.0000 Du        
  15637 ****        20.0000  15.2500  18.2500 Du        
  15638 ****        20.0000  15.2500  18.5000 Du        
  15639 ****        20.0000  15.2500  18.7500 Du        
  15640 ****        20.0000  15.2500  19.0000 Du        
  15641 ****        20.0000  15.2500  19.2500 Du        
  15642 ****        20.0000  15.5000  11.5000 Du        
  15643 ****        20.0000  15.5000  11.7500 Du        
  15644 ****        20.0000  15.5000  12.0000 Du        
  15645 ****        20.0000  15.5000  12.2500 Du        
  15646 ****        20.0000  15.5000  12.5000 Du        
  15647 ****        20.0000  15.5000  12.7500 Du        
  15648 ****        20.0000  15.5000  13.0000 Du        
  15649 ****        20.0000  15.5000  18.0000 Du        
  15650 ****        20.0000  15.5000  18.2500 Du        
  15651 ****        20.0000  15.5000  18.5000 Du        
  15652 ****        20.0000  15.5000  18.7500 Du        
  15653 ****        20.0000  15.5000  19.0000 Du        
  15654 ****        20.0000  15.5000  19.2500 Du        
  15655 ****        20.0000  15.7500  11.7500 Du        
  15656 ****        20.0000  15.7500  12.0000 Du        
  15657 ****        20.0000  15.7500  12.2500 Du        
  15658 ****        20.0000  15.7500  12.5000 Du        
  15659 ****        20.0000  15.7500  12.7500 Du        
  15660 ****        20.0000  15.7500  13.0000 Du        
  15661 ****        20.0000  15.7500  18.5000 Du        
  15662 ****        20.0000  15.7500  18.7500 Du        
  15663 ****        20.0000  15.7500  19.0000 Du        
  15664 ****        20.0000  16.0000  11.7500 Du        
  15665 ****        20.0000  16.0000  12.0000 Du        
  15666 ****        20.0000  16.0000  12.2500 Du        
  15667 ****        20.0000  16.0000  12.5000 Du        
  15668 ****        20.0000  16.0000  12.7500 Du        
  15669 ****        20.0000  16.0000  13.0000 Du        
  15670 ****        20.0000  16.2500  12.0000 Du        
  15671 ****        20.0000  16.2500  12.2500 Du        
  15672 ****        20.0000  16.2500  12.5000 Du        
  15673 ****        20.0000  16.2500  12.7500 Du        
  15674 ****        20.0000  16.5000  12.5000 Du        
  15675 ****        20.0000  22.2500  18.5000 Du        
  15676 ****        20.0000  22.2500  18.7500 Du        
  15677 ****        20.0000  22.2500  19.0000 Du        
  15678 ****        20.0000  22.2500  19.2500 Du        
  15679 ****        20.0000  22.2500  19.5000 Du        
  15680 ****        20.0000  22.2500  19.7500 Du        
  15681 ****        20.0000  22.5000  18.0000 Du        
  15682 ****        20.0000  22.5000  18.2500 Du        
  15683 ****        20.0000  22.5000  18.5000 Du        
  15684 ****        20.0000  22.5000  18.7500 Du        
  15685 ****        20.0000  22.5000  19.0000 Du        
  15686 ****        20.0000  22.5000  19.2500 Du        
  15687 ****        20.0000  22.5000  19.5000 Du        
  15688 ****        20.0000  22.5000  19.7500 Du        
  15689 ****        20.0000  22.5000  20.0000 Du        
  15690 ****        20.0000  22.5000  20.2500 Du        
  15691 ****        20.0000  22.7500  17.5000 Du        
  15692 ****        20.0000  22.7500  17.7500 Du        
  15693 ****        20.0000  22.7500  18.0000 Du        
  15694 ****        20.0000  22.7500  18.2500 Du        
  15695 ****        20.0000  22.7500  18.5000 Du        
  15696 ****        20.0000  22.7500  18.7500 Du        
  15697 ****        20.0000  22.7500  19.0000 Du        
  15698 ****        20.0000  22.7500  19.2500 Du        
  15699 ****        20.0000  22.7500  19.5000 Du        
  15700 ****        20.0000  22.7500  19.7500 Du        
  15701 ****        20.0000  22.7500  20.0000 Du        
  15702 ****        20.0000  22.7500  20.2500 Du        
  15703 ****        20.0000  22.7500  20.5000 Du        
  15704 ****        20.0000  23.0000  17.0000 Du        
  15705 ****        20.0000  23.0000  17.2500 Du        
  15706 ****        20.0000  23.0000  17.5000 Du        
  15707 ****        20.0000  23.0000  17.7500 Du        
  15708 ****        20.0000  23.0000  18.0000 Du        
  15709 ****        20.0000  23.0000  18.2500 Du        
  15710 ****        20.0000  23.0000  18.5000 Du        
  15711 ****        20.0000  23.0000  18.7500 Du        
  15712 ****        20.0000  23.0000  19.0000 Du        
  15713 ****        20.0000  23.0000  19.2500 Du        
  15714 ****        20.0000  23.0000  19.5000 Du        
  15715 ****        20.0000  23.0000  19.7500 Du        
  15716 ****        20.0000  23.0000  20.0000 Du        
  15717 ****        20.0000  23.0000  20.2500 Du        
  15718 ****        20.0000  23.0000  20.5000 Du        
  15719 ****        20.0000  23.0000  20.7500 Du        
  15720 ****        20.0000  23.0000  21.0000 Du        
  15721 ****        20.0000  23.0000  21.2500 Du        
  15722 ****        20.0000  23.2500  17.0000 Du        
  15723 ****        20.0000  23.2500  17.2500 Du        
  15724 ****        20.0000  23.2500  17.5000 Du        
  15725 ****        20.0000  23.2500  17.7500 Du        
  15726 ****        20.0000  23.2500  18.0000 Du        
  15727 ****        20.0000  23.2500  18.2500 Du        
  15728 ****        20.0000  23.2500  18.5000 Du        
  15729 ****        20.0000  23.2500  18.7500 Du        
  15730 ****        20.0000  23.2500  19.0000 Du        
  15731 ****        20.0000  23.2500  19.2500 Du        
  15732 ****        20.0000  23.2500  19.5000 Du        
  15733 ****        20.0000  23.2500  19.7500 Du        
  15734 ****        20.0000  23.2500  20.0000 Du        
  15735 ****        20.0000  23.2500  20.2500 Du        
  15736 ****        20.0000  23.2500  20.5000 Du        
  15737 ****        20.0000  23.2500  20.7500 Du        
  15738 ****        20.0000  23.2500  21.0000 Du        
  15739 ****        20.0000  23.2500  21.2500 Du        
  15740 ****        20.0000  23.5000  17.0000 Du        
  15741 ****        20.0000  23.5000  17.2500 Du        
  15742 ****        20.0000  23.5000  17.5000 Du        
  15743 ****        20.0000  23.5000  17.7500 Du        
  15744 ****        20.0000  23.5000  18.0000 Du        
  15745 ****        20.0000  23.5000  18.2500 Du        
  15746 ****        20.0000  23.5000  18.5000 Du        
  15747 ****        20.0000  23.5000  18.7500 Du        
  15748 ****        20.0000  23.5000  19.0000 Du        
  15749 ****        20.0000  23.5000  19.2500 Du        
  15750 ****        20.0000  23.5000  19.5000 Du        
  15751 ****        20.0000  23.5000  19.7500 Du        
  15752 ****        20.0000  23.5000  20.0000 Du        
  15753 ****        20.0000  23.5000  20.2500 Du        
  15754 ****        20.0000  23.5000  20.5000 Du        
  15755 ****        20.0000  23.5000  20.7500 Du        
  15756 ****        20.0000  23.5000  21.0000 Du        
  15757 ****        20.0000  23.7500  17.0000 Du        
  15758 ****        20.0000  23.7500  17.2500 Du        
  15759 ****        20.0000  23.7500  17.5000 Du        
  15760 ****        20.0000  23.7500  17.7500 Du        
  15761 ****        20.0000  23.7500  18.0000 Du        
  15762 ****        20.0000  23.7500  18.2500 Du        
  15763 ****        20.0000  23.7500  18.5000 Du        
  15764 ****        20.0000  23.7500  18.7500 Du        
  15765 ****        20.0000  23.7500  19.0000 Du        
  15766 ****        20.0000  23.7500  19.2500 Du        
  15767 ****        20.0000  23.7500  19.5000 Du        
  15768 ****        20.0000  23.7500  19.7500 Du        
  15769 ****        20.0000  23.7500  20.0000 Du        
  15770 ****        20.0000  24.0000  17.0000 Du        
  15771 ****        20.0000  24.0000  17.2500 Du        
  15772 ****        20.0000  24.0000  17.5000 Du        
  15773 ****        20.0000  24.0000  17.7500 Du        
  15774 ****        20.0000  24.0000  18.0000 Du        
  15775 ****        20.0000  24.0000  18.2500 Du        
  15776 ****        20.0000  24.0000  18.5000 Du        
  15777 ****        20.0000  24.0000  18.7500 Du        
  15778 ****        20.0000  24.0000  19.0000 Du        
  15779 ****        20.0000  24.0000  19.2500 Du        
  15780 ****        20.0000  24.2500  17.0000 Du        
  15781 ****        20.0000  24.2500  17.2500 Du        
  15782 ****        20.0000  24.2500  17.5000 Du        
  15783 ****        20.0000  24.2500  17.7500 Du        
  15784 ****        20.0000  24.2500  18.0000 Du        
  15785 ****        20.0000  24.2500  18.2500 Du        
  15786 ****        20.0000  24.2500  18.5000 Du        
  15787 ****        20.0000  24.2500  18.7500 Du        
  15788 ****        20.0000  24.2500  19.0000 Du        
  15789 ****        20.0000  24.2500  19.2500 Du        
  15790 ****        20.0000  24.5000  17.0000 Du        
  15791 ****        20.0000  24.5000  17.2500 Du        
  15792 ****        20.0000  24.5000  17.5000 Du        
  15793 ****        20.0000  24.5000  17.7500 Du        
  15794 ****        20.0000  24.5000  18.0000 Du        
  15795 ****        20.0000  24.5000  18.2500 Du        
  15796 ****        20.0000  24.7500  17.2500 Du        
  15797 ****        20.0000  24.7500  17.5000 Du        
  15798 ****        20.0000  24.7500  17.7500 Du        
  15799 ****        20.0000  24.7500  18.0000 Du        
  15800 ****        20.0000  25.2500   8.0000 Du        
  15801 ****        20.0000  25.2500   8.2500 Du        
  15802 ****        20.0000  25.2500   8.5000 Du        
  15803 ****        20.0000  25.2500   8.7500 Du        
  15804 ****        20.0000  25.2500   9.0000 Du        
  15805 ****        20.0000  25.2500   9.2500 Du        
  15806 ****        20.0000  25.5000   7.5000 Du        
  15807 ****        20.0000  25.5000   7.7500 Du        
  15808 ****        20.0000  25.5000   8.0000 Du        
  15809 ****        20.0000  25.5000   8.2500 Du        
  15810 ****        20.0000  25.5000   8.5000 Du        
  15811 ****        20.0000  25.5000   8.7500 Du        
  15812 ****        20.0000  25.5000   9.0000 Du        
  15813 ****        20.0000  25.5000   9.2500 Du        
  15814 ****        20.0000  25.7500   6.7500 Du        
  15815 ****        20.0000  25.7500   7.0000 Du        
  15816 ****        20.0000  25.7500   7.2500 Du        
  15817 ****        20.0000  25.7500   7.5000 Du        
  15818 ****        20.0000  25.7500   7.7500 Du        
  15819 ****        20.0000  25.7500   8.0000 Du        
  15820 ****        20.0000  25.7500   8.2500 Du        
  15821 ****        20.0000  25.7500   8.5000 Du        
  15822 ****        20.0000  25.7500   8.7500 Du        
  15823 ****        20.0000  25.7500   9.0000 Du        
  15824 ****        20.0000  25.7500   9.2500 Du        
  15825 ****        20.0000  26.0000   5.7500 Du        
  15826 ****        20.0000  26.0000   6.0000 Du        
  15827 ****        20.0000  26.0000   6.2500 Du        
  15828 ****        20.0000  26.0000   6.5000 Du        
  15829 ****        20.0000  26.0000   6.7500 Du        
  15830 ****        20.0000  26.0000   7.0000 Du        
  15831 ****        20.0000  26.0000   7.2500 Du        
  15832 ****        20.0000  26.0000   7.5000 Du        
  15833 ****        20.0000  26.0000   7.7500 Du        
  15834 ****        20.0000  26.0000   8.0000 Du        
  15835 ****        20.0000  26.0000   8.2500 Du        
  15836 ****        20.0000  26.0000   8.5000 Du        
  15837 ****        20.0000  26.0000   8.7500 Du        
  15838 ****        20.0000  26.0000   9.0000 Du        
  15839 ****        20.0000  26.0000   9.2500 Du        
  15840 ****        20.0000  26.0000   9.7500 Du        
  15841 ****        20.0000  26.0000  10.0000 Du        
  15842 ****        20.0000  26.2500   5.7500 Du        
  15843 ****        20.0000  26.2500   6.0000 Du        
  15844 ****        20.0000  26.2500   6.2500 Du        
  15845 ****        20.0000  26.2500   6.5000 Du        
  15846 ****        20.0000  26.2500   6.7500 Du        
  15847 ****        20.0000  26.2500   7.0000 Du        
  15848 ****        20.0000  26.2500   7.2500 Du        
  15849 ****        20.0000  26.2500   7.5000 Du        
  15850 ****        20.0000  26.2500   7.7500 Du        
  15851 ****        20.0000  26.2500   8.0000 Du        
  15852 ****        20.0000  26.2500   8.2500 Du        
  15853 ****        20.0000  26.2500   8.5000 Du        
  15854 ****        20.0000  26.2500   8.7500 Du        
  15855 ****        20.0000  26.2500   9.0000 Du        
  15856 ****        20.0000  26.2500   9.2500 Du        
  15857 ****        20.0000  26.2500  10.0000 Du        
  15858 ****        20.0000  26.2500  10.2500 Du        
  15859 ****        20.0000  26.5000   6.0000 Du        
  15860 ****        20.0000  26.5000   6.2500 Du        
  15861 ****        20.0000  26.5000   6.5000 Du        
  15862 ****        20.0000  26.5000   6.7500 Du        
  15863 ****        20.0000  26.5000   7.0000 Du        
  15864 ****        20.0000  26.5000   7.2500 Du        
  15865 ****        20.0000  26.5000   7.5000 Du        
  15866 ****        20.0000  26.5000   7.7500 Du        
  15867 ****        20.0000  26.5000   8.0000 Du        
  15868 ****        20.0000  26.5000   8.2500 Du        
  15869 ****        20.0000  26.5000   8.5000 Du        
  15870 ****        20.0000  26.5000   8.7500 Du        
  15871 ****        20.0000  26.7500   6.0000 Du        
  15872 ****        20.0000  26.7500   6.2500 Du        
  15873 ****        20.0000  26.7500   6.5000 Du        
  15874 ****        20.0000  26.7500   6.7500 Du        
  15875 ****        20.0000  26.7500   7.0000 Du        
  15876 ****        20.0000  26.7500   7.2500 Du        
  15877 ****        20.0000  26.7500   7.5000 Du        
  15878 ****        20.0000  26.7500   7.7500 Du        
  15879 ****        20.0000  26.7500   8.0000 Du        
  15880 ****        20.0000  26.7500   8.2500 Du        
  15881 ****        20.0000  26.7500   8.5000 Du        
  15882 ****        20.0000  26.7500   8.7500 Du        
  15883 ****        20.0000  27.0000   6.2500 Du        
  15884 ****        20.0000  27.0000   6.5000 Du        
  15885 ****        20.0000  27.0000   6.7500 Du        
  15886 ****        20.0000  27.0000   7.0000 Du        
  15887 ****        20.0000  27.0000   7.2500 Du        
  15888 ****        20.0000  27.0000   7.5000 Du        
  15889 ****        20.0000  27.0000   7.7500 Du        
  15890 ****        20.0000  27.0000   8.0000 Du        
  15891 ****        20.0000  27.0000   8.2500 Du        
  15892 ****        20.0000  27.0000   8.5000 Du        
  15893 ****        20.0000  27.2500   6.5000 Du        
  15894 ****        20.0000  27.2500   6.7500 Du        
  15895 ****        20.0000  27.2500   7.0000 Du        
  15896 ****        20.0000  27.2500   7.2500 Du        
  15897 ****        20.0000  27.2500   7.5000 Du        
  15898 ****        20.0000  27.2500   7.7500 Du        
  15899 ****        20.0000  27.2500   8.0000 Du        
  15900 ****        20.0000  27.2500   8.2500 Du        
  15901 ****        20.0000  27.5000   6.7500 Du        
  15902 ****        20.0000  27.5000   7.0000 Du        
  15903 ****        20.0000  27.5000   7.2500 Du        
  15904 ****        20.0000  27.7500   6.7500 Du        
  15905 ****        20.0000  27.7500   7.0000 Du        
  15906 ****        20.0000  27.7500   7.2500 Du        
  15907 ****        20.0000  28.0000   7.0000 Du        
  15908 ****        20.0000  28.0000   7.2500 Du        
  15909 ****        20.2500  14.2500  19.2500 Du        
  15910 ****        20.2500  14.2500  19.5000 Du        
  15911 ****        20.2500  14.5000  18.2500 Du        
  15912 ****        20.2500  14.5000  18.5000 Du        
  15913 ****        20.2500  14.5000  18.7500 Du        
  15914 ****        20.2500  14.5000  19.0000 Du        
  15915 ****        20.2500  14.5000  19.2500 Du        
  15916 ****        20.2500  14.5000  19.5000 Du        
  15917 ****        20.2500  14.5000  19.7500 Du        
  15918 ****        20.2500  14.7500   8.2500 Du        
  15919 ****        20.2500  14.7500  17.7500 Du        
  15920 ****        20.2500  14.7500  18.0000 Du        
  15921 ****        20.2500  14.7500  18.2500 Du        
  15922 ****        20.2500  14.7500  18.5000 Du        
  15923 ****        20.2500  14.7500  18.7500 Du        
  15924 ****        20.2500  14.7500  19.0000 Du        
  15925 ****        20.2500  14.7500  19.2500 Du        
  15926 ****        20.2500  14.7500  19.5000 Du        
  15927 ****        20.2500  15.0000   8.2500 Du        
  15928 ****        20.2500  15.0000   8.5000 Du        
  15929 ****        20.2500  15.0000  17.7500 Du        
  15930 ****        20.2500  15.0000  18.0000 Du        
  15931 ****        20.2500  15.0000  18.2500 Du        
  15932 ****        20.2500  15.0000  18.5000 Du        
  15933 ****        20.2500  15.0000  18.7500 Du        
  15934 ****        20.2500  15.0000  19.0000 Du        
  15935 ****        20.2500  15.0000  19.2500 Du        
  15936 ****        20.2500  15.0000  19.5000 Du        
  15937 ****        20.2500  15.2500   8.2500 Du        
  15938 ****        20.2500  15.2500  11.7500 Du        
  15939 ****        20.2500  15.2500  12.0000 Du        
  15940 ****        20.2500  15.2500  12.5000 Du        
  15941 ****        20.2500  15.2500  12.7500 Du        
  15942 ****        20.2500  15.2500  17.7500 Du        
  15943 ****        20.2500  15.2500  18.0000 Du        
  15944 ****        20.2500  15.2500  18.2500 Du        
  15945 ****        20.2500  15.2500  18.5000 Du        
  15946 ****        20.2500  15.2500  18.7500 Du        
  15947 ****        20.2500  15.2500  19.0000 Du        
  15948 ****        20.2500  15.2500  19.2500 Du        
  15949 ****        20.2500  15.5000   8.2500 Du        
  15950 ****        20.2500  15.5000  11.5000 Du        
  15951 ****        20.2500  15.5000  11.7500 Du        
  15952 ****        20.2500  15.5000  12.0000 Du        
  15953 ****        20.2500  15.5000  12.2500 Du        
  15954 ****        20.2500  15.5000  12.5000 Du        
  15955 ****        20.2500  15.5000  12.7500 Du        
  15956 ****        20.2500  15.5000  13.0000 Du        
  15957 ****        20.2500  15.5000  18.2500 Du        
  15958 ****        20.2500  15.5000  18.5000 Du        
  15959 ****        20.2500  15.5000  18.7500 Du        
  15960 ****        20.2500  15.5000  19.0000 Du        
  15961 ****        20.2500  15.5000  19.2500 Du        
  15962 ****        20.2500  15.7500  11.7500 Du        
  15963 ****        20.2500  15.7500  12.0000 Du        
  15964 ****        20.2500  15.7500  12.2500 Du        
  15965 ****        20.2500  15.7500  12.5000 Du        
  15966 ****        20.2500  15.7500  12.7500 Du        
  15967 ****        20.2500  15.7500  13.0000 Du        
  15968 ****        20.2500  15.7500  18.5000 Du        
  15969 ****        20.2500  15.7500  18.7500 Du        
  15970 ****        20.2500  15.7500  19.0000 Du        
  15971 ****        20.2500  15.7500  19.2500 Du        
  15972 ****        20.2500  16.0000  12.0000 Du        
  15973 ****        20.2500  16.0000  12.2500 Du        
  15974 ****        20.2500  16.0000  12.5000 Du        
  15975 ****        20.2500  16.0000  12.7500 Du        
  15976 ****        20.2500  16.2500  12.2500 Du        
  15977 ****        20.2500  16.2500  12.5000 Du        
  15978 ****        20.2500  16.2500  12.7500 Du        
  15979 ****        20.2500  22.0000  19.2500 Du        
  15980 ****        20.2500  22.2500  18.5000 Du        
  15981 ****        20.2500  22.2500  18.7500 Du        
  15982 ****        20.2500  22.2500  19.0000 Du        
  15983 ****        20.2500  22.2500  19.2500 Du        
  15984 ****        20.2500  22.2500  19.5000 Du        
  15985 ****        20.2500  22.2500  19.7500 Du        
  15986 ****        20.2500  22.2500  20.0000 Du        
  15987 ****        20.2500  22.5000  18.0000 Du        
  15988 ****        20.2500  22.5000  18.2500 Du        
  15989 ****        20.2500  22.5000  18.5000 Du        
  15990 ****        20.2500  22.5000  18.7500 Du        
  15991 ****        20.2500  22.5000  19.0000 Du        
  15992 ****        20.2500  22.5000  19.2500 Du        
  15993 ****        20.2500  22.5000  19.5000 Du        
  15994 ****        20.2500  22.5000  19.7500 Du        
  15995 ****        20.2500  22.5000  20.0000 Du        
  15996 ****        20.2500  22.5000  20.2500 Du        
  15997 ****        20.2500  22.7500  17.5000 Du        
  15998 ****        20.2500  22.7500  17.7500 Du        
  15999 ****        20.2500  22.7500  18.0000 Du        
  16000 ****        20.2500  22.7500  18.2500 Du        
  16001 ****        20.2500  22.7500  18.5000 Du        
  16002 ****        20.2500  22.7500  18.7500 Du        
  16003 ****        20.2500  22.7500  19.0000 Du        
  16004 ****        20.2500  22.7500  19.2500 Du        
  16005 ****        20.2500  22.7500  19.5000 Du        
  16006 ****        20.2500  22.7500  19.7500 Du        
  16007 ****        20.2500  22.7500  20.0000 Du        
  16008 ****        20.2500  22.7500  20.2500 Du        
  16009 ****        20.2500  22.7500  20.5000 Du        
  16010 ****        20.2500  22.7500  20.7500 Du        
  16011 ****        20.2500  23.0000  17.2500 Du        
  16012 ****        20.2500  23.0000  17.5000 Du        
  16013 ****        20.2500  23.0000  17.7500 Du        
  16014 ****        20.2500  23.0000  18.0000 Du        
  16015 ****        20.2500  23.0000  18.2500 Du        
  16016 ****        20.2500  23.0000  18.5000 Du        
  16017 ****        20.2500  23.0000  18.7500 Du        
  16018 ****        20.2500  23.0000  19.0000 Du        
  16019 ****        20.2500  23.0000  19.2500 Du        
  16020 ****        20.2500  23.0000  19.5000 Du        
  16021 ****        20.2500  23.0000  19.7500 Du        
  16022 ****        20.2500  23.0000  20.0000 Du        
  16023 ****        20.2500  23.0000  20.2500 Du        
  16024 ****        20.2500  23.0000  20.5000 Du        
  16025 ****        20.2500  23.0000  20.7500 Du        
  16026 ****        20.2500  23.0000  21.0000 Du        
  16027 ****        20.2500  23.0000  21.2500 Du        
  16028 ****        20.2500  23.2500  17.0000 Du        
  16029 ****        20.2500  23.2500  17.2500 Du        
  16030 ****        20.2500  23.2500  17.5000 Du        
  16031 ****        20.2500  23.2500  17.7500 Du        
  16032 ****        20.2500  23.2500  18.0000 Du        
  16033 ****        20.2500  23.2500  18.2500 Du        
  16034 ****        20.2500  23.2500  18.5000 Du        
  16035 ****        20.2500  23.2500  18.7500 Du        
  16036 ****        20.2500  23.2500  19.0000 Du        
  16037 ****        20.2500  23.2500  19.2500 Du        
  16038 ****        20.2500  23.2500  19.5000 Du        
  16039 ****        20.2500  23.2500  19.7500 Du        
  16040 ****        20.2500  23.2500  20.0000 Du        
  16041 ****        20.2500  23.2500  20.2500 Du        
  16042 ****        20.2500  23.2500  20.5000 Du        
  16043 ****        20.2500  23.2500  20.7500 Du        
  16044 ****        20.2500  23.2500  21.0000 Du        
  16045 ****        20.2500  23.2500  21.2500 Du        
  16046 ****        20.2500  23.5000  17.0000 Du        
  16047 ****        20.2500  23.5000  17.2500 Du        
  16048 ****        20.2500  23.5000  17.5000 Du        
  16049 ****        20.2500  23.5000  17.7500 Du        
  16050 ****        20.2500  23.5000  18.0000 Du        
  16051 ****        20.2500  23.5000  18.2500 Du        
  16052 ****        20.2500  23.5000  18.5000 Du        
  16053 ****        20.2500  23.5000  18.7500 Du        
  16054 ****        20.2500  23.5000  19.0000 Du        
  16055 ****        20.2500  23.5000  19.2500 Du        
  16056 ****        20.2500  23.5000  19.5000 Du        
  16057 ****        20.2500  23.5000  19.7500 Du        
  16058 ****        20.2500  23.5000  20.0000 Du        
  16059 ****        20.2500  23.5000  20.2500 Du        
  16060 ****        20.2500  23.5000  20.5000 Du        
  16061 ****        20.2500  23.5000  20.7500 Du        
  16062 ****        20.2500  23.5000  21.0000 Du        
  16063 ****        20.2500  23.5000  21.2500 Du        
  16064 ****        20.2500  23.7500  17.0000 Du        
  16065 ****        20.2500  23.7500  17.2500 Du        
  16066 ****        20.2500  23.7500  17.5000 Du        
  16067 ****        20.2500  23.7500  17.7500 Du        
  16068 ****        20.2500  23.7500  18.0000 Du        
  16069 ****        20.2500  23.7500  18.2500 Du        
  16070 ****        20.2500  23.7500  18.5000 Du        
  16071 ****        20.2500  23.7500  18.7500 Du        
  16072 ****        20.2500  23.7500  19.0000 Du        
  16073 ****        20.2500  23.7500  19.2500 Du        
  16074 ****        20.2500  23.7500  19.5000 Du        
  16075 ****        20.2500  23.7500  19.7500 Du        
  16076 ****        20.2500  23.7500  20.0000 Du        
  16077 ****        20.2500  23.7500  20.2500 Du        
  16078 ****        20.2500  23.7500  20.5000 Du        
  16079 ****        20.2500  23.7500  20.7500 Du        
  16080 ****        20.2500  24.0000  17.0000 Du        
  16081 ****        20.2500  24.0000  17.2500 Du        
  16082 ****        20.2500  24.0000  17.5000 Du        
  16083 ****        20.2500  24.0000  17.7500 Du        
  16084 ****        20.2500  24.0000  18.0000 Du        
  16085 ****        20.2500  24.0000  18.2500 Du        
  16086 ****        20.2500  24.0000  18.5000 Du        
  16087 ****        20.2500  24.0000  18.7500 Du        
  16088 ****        20.2500  24.0000  19.0000 Du        
  16089 ****        20.2500  24.0000  19.2500 Du        
  16090 ****        20.2500  24.2500  17.0000 Du        
  16091 ****        20.2500  24.2500  17.2500 Du        
  16092 ****        20.2500  24.2500  17.5000 Du        
  16093 ****        20.2500  24.2500  17.7500 Du        
  16094 ****        20.2500  24.2500  18.0000 Du        
  16095 ****        20.2500  24.2500  18.2500 Du        
  16096 ****        20.2500  24.2500  18.5000 Du        
  16097 ****        20.2500  24.2500  18.7500 Du        
  16098 ****        20.2500  24.2500  19.0000 Du        
  16099 ****        20.2500  25.0000   8.7500 Du        
  16100 ****        20.2500  25.0000   9.0000 Du        
  16101 ****        20.2500  25.0000   9.2500 Du        
  16102 ****        20.2500  25.0000   9.5000 Du        
  16103 ****        20.2500  25.0000   9.7500 Du        
  16104 ****        20.2500  25.2500   8.0000 Du        
  16105 ****        20.2500  25.2500   8.2500 Du        
  16106 ****        20.2500  25.2500   8.5000 Du        
  16107 ****        20.2500  25.2500   8.7500 Du        
  16108 ****        20.2500  25.2500   9.0000 Du        
  16109 ****        20.2500  25.2500   9.2500 Du        
  16110 ****        20.2500  25.2500   9.5000 Du        
  16111 ****        20.2500  25.2500   9.7500 Du        
  16112 ****        20.2500  25.2500  10.0000 Du        
  16113 ****        20.2500  25.5000   7.2500 Du        
  16114 ****        20.2500  25.5000   7.5000 Du        
  16115 ****        20.2500  25.5000   7.7500 Du        
  16116 ****        20.2500  25.5000   8.0000 Du        
  16117 ****        20.2500  25.5000   8.2500 Du        
  16118 ****        20.2500  25.5000   8.5000 Du        
  16119 ****        20.2500  25.5000   8.7500 Du        
  16120 ****        20.2500  25.5000   9.0000 Du        
  16121 ****        20.2500  25.5000   9.2500 Du        
  16122 ****        20.2500  25.5000   9.5000 Du        
  16123 ****        20.2500  25.5000   9.7500 Du        
  16124 ****        20.2500  25.5000  10.0000 Du        
  16125 ****        20.2500  25.7500   6.2500 Du        
  16126 ****        20.2500  25.7500   6.5000 Du        
  16127 ****        20.2500  25.7500   6.7500 Du        
  16128 ****        20.2500  25.7500   7.0000 Du        
  16129 ****        20.2500  25.7500   7.2500 Du        
  16130 ****        20.2500  25.7500   7.5000 Du        
  16131 ****        20.2500  25.7500   7.7500 Du        
  16132 ****        20.2500  25.7500   8.0000 Du        
  16133 ****        20.2500  25.7500   8.2500 Du        
  16134 ****        20.2500  25.7500   8.5000 Du        
  16135 ****        20.2500  25.7500   8.7500 Du        
  16136 ****        20.2500  25.7500   9.0000 Du        
  16137 ****        20.2500  25.7500   9.2500 Du        
  16138 ****        20.2500  25.7500   9.5000 Du        
  16139 ****        20.2500  25.7500   9.7500 Du        
  16140 ****        20.2500  25.7500  10.0000 Du        
  16141 ****        20.2500  25.7500  10.2500 Du        
  16142 ****        20.2500  26.0000   5.5000 Du        
  16143 ****        20.2500  26.0000   5.7500 Du        
  16144 ****        20.2500  26.0000   6.0000 Du        
  16145 ****        20.2500  26.0000   6.2500 Du        
  16146 ****        20.2500  26.0000   6.5000 Du        
  16147 ****        20.2500  26.0000   6.7500 Du        
  16148 ****        20.2500  26.0000   7.0000 Du        
  16149 ****        20.2500  26.0000   7.2500 Du        
  16150 ****        20.2500  26.0000   7.5000 Du        
  16151 ****        20.2500  26.0000   7.7500 Du        
  16152 ****        20.2500  26.0000   8.0000 Du        
  16153 ****        20.2500  26.0000   8.2500 Du        
  16154 ****        20.2500  26.0000   8.5000 Du        
  16155 ****        20.2500  26.0000   8.7500 Du        
  16156 ****        20.2500  26.0000   9.0000 Du        
  16157 ****        20.2500  26.0000   9.2500 Du        
  16158 ****        20.2500  26.0000   9.5000 Du        
  16159 ****        20.2500  26.0000   9.7500 Du        
  16160 ****        20.2500  26.0000  10.0000 Du        
  16161 ****        20.2500  26.0000  10.2500 Du        
  16162 ****        20.2500  26.0000  10.5000 Du        
  16163 ****        20.2500  26.2500   5.2500 Du        
  16164 ****        20.2500  26.2500   5.5000 Du        
  16165 ****        20.2500  26.2500   5.7500 Du        
  16166 ****        20.2500  26.2500   6.0000 Du        
  16167 ****        20.2500  26.2500   6.2500 Du        
  16168 ****        20.2500  26.2500   6.5000 Du        
  16169 ****        20.2500  26.2500   6.7500 Du        
  16170 ****        20.2500  26.2500   7.0000 Du        
  16171 ****        20.2500  26.2500   7.2500 Du        
  16172 ****        20.2500  26.2500   7.5000 Du        
  16173 ****        20.2500  26.2500   7.7500 Du        
  16174 ****        20.2500  26.2500   8.0000 Du        
  16175 ****        20.2500  26.2500   8.2500 Du        
  16176 ****        20.2500  26.2500   8.5000 Du        
  16177 ****        20.2500  26.2500   8.7500 Du        
  16178 ****        20.2500  26.2500   9.0000 Du        
  16179 ****        20.2500  26.2500   9.2500 Du        
  16180 ****        20.2500  26.2500   9.5000 Du        
  16181 ****        20.2500  26.2500   9.7500 Du        
  16182 ****        20.2500  26.2500  10.0000 Du        
  16183 ****        20.2500  26.2500  10.2500 Du        
  16184 ****        20.2500  26.2500  10.5000 Du        
  16185 ****        20.2500  26.5000   5.5000 Du        
  16186 ****        20.2500  26.5000   5.7500 Du        
  16187 ****        20.2500  26.5000   6.0000 Du        
  16188 ****        20.2500  26.5000   6.2500 Du        
  16189 ****        20.2500  26.5000   6.5000 Du        
  16190 ****        20.2500  26.5000   6.7500 Du        
  16191 ****        20.2500  26.5000   7.0000 Du        
  16192 ****        20.2500  26.5000   7.2500 Du        
  16193 ****        20.2500  26.5000   7.5000 Du        
  16194 ****        20.2500  26.5000   7.7500 Du        
  16195 ****        20.2500  26.5000   8.0000 Du        
  16196 ****        20.2500  26.5000   8.2500 Du        
  16197 ****        20.2500  26.5000   8.5000 Du        
  16198 ****        20.2500  26.5000   8.7500 Du        
  16199 ****        20.2500  26.5000   9.0000 Du        
  16200 ****        20.2500  26.5000   9.2500 Du        
  16201 ****        20.2500  26.5000   9.5000 Du        
  16202 ****        20.2500  26.5000   9.7500 Du        
  16203 ****        20.2500  26.5000  10.0000 Du        
  16204 ****        20.2500  26.5000  10.2500 Du        
  16205 ****        20.2500  26.5000  10.5000 Du        
  16206 ****        20.2500  26.7500   5.7500 Du        
  16207 ****        20.2500  26.7500   6.0000 Du        
  16208 ****        20.2500  26.7500   6.2500 Du        
  16209 ****        20.2500  26.7500   6.5000 Du        
  16210 ****        20.2500  26.7500   6.7500 Du        
  16211 ****        20.2500  26.7500   7.0000 Du        
  16212 ****        20.2500  26.7500   7.2500 Du        
  16213 ****        20.2500  26.7500   7.5000 Du        
  16214 ****        20.2500  26.7500   7.7500 Du        
  16215 ****        20.2500  26.7500   8.0000 Du        
  16216 ****        20.2500  26.7500   8.2500 Du        
  16217 ****        20.2500  26.7500   8.5000 Du        
  16218 ****        20.2500  26.7500   8.7500 Du        
  16219 ****        20.2500  26.7500   9.0000 Du        
  16220 ****        20.2500  26.7500   9.2500 Du        
  16221 ****        20.2500  26.7500   9.5000 Du        
  16222 ****        20.2500  26.7500   9.7500 Du        
  16223 ****        20.2500  26.7500  10.0000 Du        
  16224 ****        20.2500  26.7500  10.2500 Du        
  16225 ****        20.2500  26.7500  10.5000 Du        
  16226 ****        20.2500  26.7500  10.7500 Du        
  16227 ****        20.2500  27.0000   6.0000 Du        
  16228 ****        20.2500  27.0000   6.2500 Du        
  16229 ****        20.2500  27.0000   6.5000 Du        
  16230 ****        20.2500  27.0000   6.7500 Du        
  16231 ****        20.2500  27.0000   7.0000 Du        
  16232 ****        20.2500  27.0000   7.2500 Du        
  16233 ****        20.2500  27.0000   7.5000 Du        
  16234 ****        20.2500  27.0000   7.7500 Du        
  16235 ****        20.2500  27.0000   8.0000 Du        
  16236 ****        20.2500  27.0000   8.2500 Du        
  16237 ****        20.2500  27.0000   8.5000 Du        
  16238 ****        20.2500  27.0000   8.7500 Du        
  16239 ****        20.2500  27.0000   9.0000 Du        
  16240 ****        20.2500  27.0000   9.5000 Du        
  16241 ****        20.2500  27.0000   9.7500 Du        
  16242 ****        20.2500  27.0000  10.7500 Du        
  16243 ****        20.2500  27.2500   6.0000 Du        
  16244 ****        20.2500  27.2500   6.2500 Du        
  16245 ****        20.2500  27.2500   6.5000 Du        
  16246 ****        20.2500  27.2500   6.7500 Du        
  16247 ****        20.2500  27.2500   7.0000 Du        
  16248 ****        20.2500  27.2500   7.2500 Du        
  16249 ****        20.2500  27.2500   7.5000 Du        
  16250 ****        20.2500  27.2500   7.7500 Du        
  16251 ****        20.2500  27.2500   8.0000 Du        
  16252 ****        20.2500  27.2500   8.2500 Du        
  16253 ****        20.2500  27.5000   6.5000 Du        
  16254 ****        20.2500  27.5000   6.7500 Du        
  16255 ****        20.2500  27.5000   7.0000 Du        
  16256 ****        20.2500  27.5000   7.2500 Du        
  16257 ****        20.2500  27.7500   6.5000 Du        
  16258 ****        20.2500  27.7500   6.7500 Du        
  16259 ****        20.2500  27.7500   7.0000 Du        
  16260 ****        20.2500  27.7500   7.2500 Du        
  16261 ****        20.2500  28.0000   7.0000 Du        
  16262 ****        20.5000  14.2500  18.7500 Du        
  16263 ****        20.5000  14.2500  19.0000 Du        
  16264 ****        20.5000  14.2500  19.2500 Du        
  16265 ****        20.5000  14.2500  19.5000 Du        
  16266 ****        20.5000  14.5000  18.2500 Du        
  16267 ****        20.5000  14.5000  18.5000 Du        
  16268 ****        20.5000  14.5000  18.7500 Du        
  16269 ****        20.5000  14.5000  19.0000 Du        
  16270 ****        20.5000  14.5000  19.2500 Du        
  16271 ****        20.5000  14.5000  19.5000 Du        
  16272 ****        20.5000  14.5000  19.7500 Du        
  16273 ****        20.5000  14.7500   8.2500 Du        
  16274 ****        20.5000  14.7500   8.5000 Du        
  16275 ****        20.5000  14.7500   8.7500 Du        
  16276 ****        20.5000  14.7500  17.7500 Du        
  16277 ****        20.5000  14.7500  18.0000 Du        
  16278 ****        20.5000  14.7500  18.2500 Du        
  16279 ****        20.5000  14.7500  18.5000 Du        
  16280 ****        20.5000  14.7500  18.7500 Du        
  16281 ****        20.5000  14.7500  19.0000 Du        
  16282 ****        20.5000  14.7500  19.2500 Du        
  16283 ****        20.5000  14.7500  19.5000 Du        
  16284 ****        20.5000  14.7500  19.7500 Du        
  16285 ****        20.5000  15.0000   8.2500 Du        
  16286 ****        20.5000  15.0000   8.5000 Du        
  16287 ****        20.5000  15.0000   8.7500 Du        
  16288 ****        20.5000  15.0000   9.0000 Du        
  16289 ****        20.5000  15.0000  17.7500 Du        
  16290 ****        20.5000  15.0000  18.0000 Du        
  16291 ****        20.5000  15.0000  18.2500 Du        
  16292 ****        20.5000  15.0000  18.5000 Du        
  16293 ****        20.5000  15.0000  18.7500 Du        
  16294 ****        20.5000  15.0000  19.0000 Du        
  16295 ****        20.5000  15.0000  19.2500 Du        
  16296 ****        20.5000  15.0000  19.5000 Du        
  16297 ****        20.5000  15.2500   8.2500 Du        
  16298 ****        20.5000  15.2500   8.5000 Du        
  16299 ****        20.5000  15.2500   8.7500 Du        
  16300 ****        20.5000  15.2500   9.0000 Du        
  16301 ****        20.5000  15.2500  17.7500 Du        
  16302 ****        20.5000  15.2500  18.0000 Du        
  16303 ****        20.5000  15.2500  18.2500 Du        
  16304 ****        20.5000  15.2500  18.5000 Du        
  16305 ****        20.5000  15.2500  18.7500 Du        
  16306 ****        20.5000  15.2500  19.0000 Du        
  16307 ****        20.5000  15.2500  19.2500 Du        
  16308 ****        20.5000  15.2500  19.5000 Du        
  16309 ****        20.5000  15.5000   8.2500 Du        
  16310 ****        20.5000  15.5000   8.5000 Du        
  16311 ****        20.5000  15.5000  12.0000 Du        
  16312 ****        20.5000  15.5000  12.2500 Du        
  16313 ****        20.5000  15.5000  18.2500 Du        
  16314 ****        20.5000  15.5000  18.5000 Du        
  16315 ****        20.5000  15.5000  18.7500 Du        
  16316 ****        20.5000  15.5000  19.0000 Du        
  16317 ****        20.5000  15.5000  19.2500 Du        
  16318 ****        20.5000  15.7500  11.7500 Du        
  16319 ****        20.5000  15.7500  12.0000 Du        
  16320 ****        20.5000  15.7500  12.2500 Du        
  16321 ****        20.5000  15.7500  12.5000 Du        
  16322 ****        20.5000  15.7500  12.7500 Du        
  16323 ****        20.5000  15.7500  18.7500 Du        
  16324 ****        20.5000  15.7500  19.0000 Du        
  16325 ****        20.5000  15.7500  19.2500 Du        
  16326 ****        20.5000  16.0000  12.0000 Du        
  16327 ****        20.5000  16.0000  12.2500 Du        
  16328 ****        20.5000  16.0000  12.5000 Du        
  16329 ****        20.5000  16.0000  12.7500 Du        
  16330 ****        20.5000  16.2500  12.2500 Du        
  16331 ****        20.5000  16.2500  12.5000 Du        
  16332 ****        20.5000  22.0000  19.2500 Du        
  16333 ****        20.5000  22.0000  19.5000 Du        
  16334 ****        20.5000  22.0000  19.7500 Du        
  16335 ****        20.5000  22.0000  20.0000 Du        
  16336 ****        20.5000  22.2500  18.5000 Du        
  16337 ****        20.5000  22.2500  18.7500 Du        
  16338 ****        20.5000  22.2500  19.0000 Du        
  16339 ****        20.5000  22.2500  19.2500 Du        
  16340 ****        20.5000  22.2500  19.5000 Du        
  16341 ****        20.5000  22.2500  19.7500 Du        
  16342 ****        20.5000  22.2500  20.0000 Du        
  16343 ****        20.5000  22.2500  20.2500 Du        
  16344 ****        20.5000  22.5000  18.2500 Du        
  16345 ****        20.5000  22.5000  18.5000 Du        
  16346 ****        20.5000  22.5000  18.7500 Du        
  16347 ****        20.5000  22.5000  19.0000 Du        
  16348 ****        20.5000  22.5000  19.2500 Du        
  16349 ****        20.5000  22.5000  19.5000 Du        
  16350 ****        20.5000  22.5000  19.7500 Du        
  16351 ****        20.5000  22.5000  20.0000 Du        
  16352 ****        20.5000  22.5000  20.2500 Du        
  16353 ****        20.5000  22.5000  20.5000 Du        
  16354 ****        20.5000  22.7500  17.7500 Du        
  16355 ****        20.5000  22.7500  18.0000 Du        
  16356 ****        20.5000  22.7500  18.2500 Du        
  16357 ****        20.5000  22.7500  18.5000 Du        
  16358 ****        20.5000  22.7500  18.7500 Du        
  16359 ****        20.5000  22.7500  19.0000 Du        
  16360 ****        20.5000  22.7500  19.2500 Du        
  16361 ****        20.5000  22.7500  19.5000 Du        
  16362 ****        20.5000  22.7500  19.7500 Du        
  16363 ****        20.5000  22.7500  20.0000 Du        
  16364 ****        20.5000  22.7500  20.2500 Du        
  16365 ****        20.5000  22.7500  20.5000 Du        
  16366 ****        20.5000  22.7500  20.7500 Du        
  16367 ****        20.5000  23.0000  17.5000 Du        
  16368 ****        20.5000  23.0000  17.7500 Du        
  16369 ****        20.5000  23.0000  18.0000 Du        
  16370 ****        20.5000  23.0000  18.2500 Du        
  16371 ****        20.5000  23.0000  18.5000 Du        
  16372 ****        20.5000  23.0000  18.7500 Du        
  16373 ****        20.5000  23.0000  19.0000 Du        
  16374 ****        20.5000  23.0000  19.2500 Du        
  16375 ****        20.5000  23.0000  19.5000 Du        
  16376 ****        20.5000  23.0000  19.7500 Du        
  16377 ****        20.5000  23.0000  20.0000 Du        
  16378 ****        20.5000  23.0000  20.2500 Du        
  16379 ****        20.5000  23.0000  20.5000 Du        
  16380 ****        20.5000  23.0000  20.7500 Du        
  16381 ****        20.5000  23.0000  21.0000 Du        
  16382 ****        20.5000  23.0000  21.2500 Du        
  16383 ****        20.5000  23.2500  17.2500 Du        
  16384 ****        20.5000  23.2500  17.5000 Du        
  16385 ****        20.5000  23.2500  17.7500 Du        
  16386 ****        20.5000  23.2500  18.0000 Du        
  16387 ****        20.5000  23.2500  18.2500 Du        
  16388 ****        20.5000  23.2500  18.5000 Du        
  16389 ****        20.5000  23.2500  18.7500 Du        
  16390 ****        20.5000  23.2500  19.0000 Du        
  16391 ****        20.5000  23.2500  19.2500 Du        
  16392 ****        20.5000  23.2500  19.5000 Du        
  16393 ****        20.5000  23.2500  19.7500 Du        
  16394 ****        20.5000  23.2500  20.0000 Du        
  16395 ****        20.5000  23.2500  20.2500 Du        
  16396 ****        20.5000  23.2500  20.5000 Du        
  16397 ****        20.5000  23.2500  20.7500 Du        
  16398 ****        20.5000  23.2500  21.0000 Du        
  16399 ****        20.5000  23.2500  21.2500 Du        
  16400 ****        20.5000  23.2500  21.5000 Du        
  16401 ****        20.5000  23.2500  21.7500 Du        
  16402 ****        20.5000  23.5000  17.5000 Du        
  16403 ****        20.5000  23.5000  17.7500 Du        
  16404 ****        20.5000  23.5000  18.0000 Du        
  16405 ****        20.5000  23.5000  18.2500 Du        
  16406 ****        20.5000  23.5000  18.5000 Du        
  16407 ****        20.5000  23.5000  18.7500 Du        
  16408 ****        20.5000  23.5000  19.0000 Du        
  16409 ****        20.5000  23.5000  19.2500 Du        
  16410 ****        20.5000  23.5000  19.5000 Du        
  16411 ****        20.5000  23.5000  19.7500 Du        
  16412 ****        20.5000  23.5000  20.0000 Du        
  16413 ****        20.5000  23.5000  20.2500 Du        
  16414 ****        20.5000  23.5000  20.5000 Du        
  16415 ****        20.5000  23.5000  20.7500 Du        
  16416 ****        20.5000  23.5000  21.0000 Du        
  16417 ****        20.5000  23.5000  21.2500 Du        
  16418 ****        20.5000  23.7500  17.5000 Du        
  16419 ****        20.5000  23.7500  17.7500 Du        
  16420 ****        20.5000  23.7500  18.0000 Du        
  16421 ****        20.5000  23.7500  18.2500 Du        
  16422 ****        20.5000  23.7500  18.5000 Du        
  16423 ****        20.5000  23.7500  18.7500 Du        
  16424 ****        20.5000  23.7500  19.0000 Du        
  16425 ****        20.5000  23.7500  19.2500 Du        
  16426 ****        20.5000  23.7500  19.5000 Du        
  16427 ****        20.5000  23.7500  19.7500 Du        
  16428 ****        20.5000  23.7500  20.0000 Du        
  16429 ****        20.5000  23.7500  20.2500 Du        
  16430 ****        20.5000  23.7500  20.5000 Du        
  16431 ****        20.5000  23.7500  20.7500 Du        
  16432 ****        20.5000  23.7500  21.0000 Du        
  16433 ****        20.5000  25.0000   8.7500 Du        
  16434 ****        20.5000  25.0000   9.0000 Du        
  16435 ****        20.5000  25.0000   9.2500 Du        
  16436 ****        20.5000  25.0000   9.5000 Du        
  16437 ****        20.5000  25.0000   9.7500 Du        
  16438 ****        20.5000  25.2500   8.0000 Du        
  16439 ****        20.5000  25.2500   8.2500 Du        
  16440 ****        20.5000  25.2500   8.5000 Du        
  16441 ****        20.5000  25.2500   8.7500 Du        
  16442 ****        20.5000  25.2500   9.0000 Du        
  16443 ****        20.5000  25.2500   9.2500 Du        
  16444 ****        20.5000  25.2500   9.5000 Du        
  16445 ****        20.5000  25.2500   9.7500 Du        
  16446 ****        20.5000  25.2500  10.0000 Du        
  16447 ****        20.5000  25.5000   7.5000 Du        
  16448 ****        20.5000  25.5000   7.7500 Du        
  16449 ****        20.5000  25.5000   8.0000 Du        
  16450 ****        20.5000  25.5000   8.2500 Du        
  16451 ****        20.5000  25.5000   8.5000 Du        
  16452 ****        20.5000  25.5000   8.7500 Du        
  16453 ****        20.5000  25.5000   9.0000 Du        
  16454 ****        20.5000  25.5000   9.2500 Du        
  16455 ****        20.5000  25.5000   9.5000 Du        
  16456 ****        20.5000  25.5000   9.7500 Du        
  16457 ****        20.5000  25.5000  10.0000 Du        
  16458 ****        20.5000  25.7500   6.7500 Du        
  16459 ****        20.5000  25.7500   7.0000 Du        
  16460 ****        20.5000  25.7500   7.2500 Du        
  16461 ****        20.5000  25.7500   7.5000 Du        
  16462 ****        20.5000  25.7500   7.7500 Du        
  16463 ****        20.5000  25.7500   8.0000 Du        
  16464 ****        20.5000  25.7500   8.2500 Du        
  16465 ****        20.5000  25.7500   8.5000 Du        
  16466 ****        20.5000  25.7500   8.7500 Du        
  16467 ****        20.5000  25.7500   9.0000 Du        
  16468 ****        20.5000  25.7500   9.2500 Du        
  16469 ****        20.5000  25.7500   9.5000 Du        
  16470 ****        20.5000  25.7500   9.7500 Du        
  16471 ****        20.5000  25.7500  10.0000 Du        
  16472 ****        20.5000  25.7500  10.2500 Du        
  16473 ****        20.5000  26.0000   5.5000 Du        
  16474 ****        20.5000  26.0000   5.7500 Du        
  16475 ****        20.5000  26.0000   6.0000 Du        
  16476 ****        20.5000  26.0000   6.2500 Du        
  16477 ****        20.5000  26.0000   6.5000 Du        
  16478 ****        20.5000  26.0000   6.7500 Du        
  16479 ****        20.5000  26.0000   7.0000 Du        
  16480 ****        20.5000  26.0000   7.2500 Du        
  16481 ****        20.5000  26.0000   7.5000 Du        
  16482 ****        20.5000  26.0000   7.7500 Du        
  16483 ****        20.5000  26.0000   8.0000 Du        
  16484 ****        20.5000  26.0000   8.2500 Du        
  16485 ****        20.5000  26.0000   8.5000 Du        
  16486 ****        20.5000  26.0000   8.7500 Du        
  16487 ****        20.5000  26.0000   9.0000 Du        
  16488 ****        20.5000  26.0000   9.2500 Du        
  16489 ****        20.5000  26.0000   9.5000 Du        
  16490 ****        20.5000  26.0000   9.7500 Du        
  16491 ****        20.5000  26.0000  10.0000 Du        
  16492 ****        20.5000  26.0000  10.2500 Du        
  16493 ****        20.5000  26.2500   5.2500 Du        
  16494 ****        20.5000  26.2500   5.5000 Du        
  16495 ****        20.5000  26.2500   5.7500 Du        
  16496 ****        20.5000  26.2500   6.0000 Du        
  16497 ****        20.5000  26.2500   6.2500 Du        
  16498 ****        20.5000  26.2500   6.5000 Du        
  16499 ****        20.5000  26.2500   6.7500 Du        
  16500 ****        20.5000  26.2500   7.0000 Du        
  16501 ****        20.5000  26.2500   7.2500 Du        
  16502 ****        20.5000  26.2500   7.5000 Du        
  16503 ****        20.5000  26.2500   7.7500 Du        
  16504 ****        20.5000  26.2500   8.0000 Du        
  16505 ****        20.5000  26.2500   8.2500 Du        
  16506 ****        20.5000  26.2500   8.5000 Du        
  16507 ****        20.5000  26.2500   8.7500 Du        
  16508 ****        20.5000  26.2500   9.0000 Du        
  16509 ****        20.5000  26.2500   9.2500 Du        
  16510 ****        20.5000  26.2500   9.5000 Du        
  16511 ****        20.5000  26.2500   9.7500 Du        
  16512 ****        20.5000  26.2500  10.0000 Du        
  16513 ****        20.5000  26.2500  10.2500 Du        
  16514 ****        20.5000  26.2500  10.5000 Du        
  16515 ****        20.5000  26.5000   5.2500 Du        
  16516 ****        20.5000  26.5000   5.5000 Du        
  16517 ****        20.5000  26.5000   5.7500 Du        
  16518 ****        20.5000  26.5000   6.0000 Du        
  16519 ****        20.5000  26.5000   6.2500 Du        
  16520 ****        20.5000  26.5000   6.5000 Du        
  16521 ****        20.5000  26.5000   6.7500 Du        
  16522 ****        20.5000  26.5000   7.0000 Du        
  16523 ****        20.5000  26.5000   7.2500 Du        
  16524 ****        20.5000  26.5000   7.5000 Du        
  16525 ****        20.5000  26.5000   7.7500 Du        
  16526 ****        20.5000  26.5000   8.0000 Du        
  16527 ****        20.5000  26.5000   8.2500 Du        
  16528 ****        20.5000  26.5000   8.5000 Du        
  16529 ****        20.5000  26.5000   8.7500 Du        
  16530 ****        20.5000  26.5000   9.0000 Du        
  16531 ****        20.5000  26.5000   9.2500 Du        
  16532 ****        20.5000  26.5000   9.5000 Du        
  16533 ****        20.5000  26.5000   9.7500 Du        
  16534 ****        20.5000  26.5000  10.0000 Du        
  16535 ****        20.5000  26.5000  10.2500 Du        
  16536 ****        20.5000  26.5000  10.5000 Du        
  16537 ****        20.5000  26.7500   5.5000 Du        
  16538 ****        20.5000  26.7500   5.7500 Du        
  16539 ****        20.5000  26.7500   6.0000 Du        
  16540 ****        20.5000  26.7500   6.2500 Du        
  16541 ****        20.5000  26.7500   6.5000 Du        
  16542 ****        20.5000  26.7500   6.7500 Du        
  16543 ****        20.5000  26.7500   7.0000 Du        
  16544 ****        20.5000  26.7500   7.2500 Du        
  16545 ****        20.5000  26.7500   7.5000 Du        
  16546 ****        20.5000  26.7500   7.7500 Du        
  16547 ****        20.5000  26.7500   8.0000 Du        
  16548 ****        20.5000  26.7500   8.2500 Du        
  16549 ****        20.5000  26.7500   8.5000 Du        
  16550 ****        20.5000  26.7500   8.7500 Du        
  16551 ****        20.5000  26.7500   9.0000 Du        
  16552 ****        20.5000  26.7500   9.2500 Du        
  16553 ****        20.5000  26.7500   9.7500 Du        
  16554 ****        20.5000  26.7500  10.0000 Du        
  16555 ****        20.5000  26.7500  10.2500 Du        
  16556 ****        20.5000  26.7500  10.5000 Du        
  16557 ****        20.5000  26.7500  10.7500 Du        
  16558 ****        20.5000  27.0000   5.7500 Du        
  16559 ****        20.5000  27.0000   6.0000 Du        
  16560 ****        20.5000  27.0000   6.2500 Du        
  16561 ****        20.5000  27.0000   6.5000 Du        
  16562 ****        20.5000  27.0000   6.7500 Du        
  16563 ****        20.5000  27.0000   7.0000 Du        
  16564 ****        20.5000  27.0000   7.2500 Du        
  16565 ****        20.5000  27.0000   7.7500 Du        
  16566 ****        20.5000  27.0000   8.0000 Du        
  16567 ****        20.5000  27.0000   8.2500 Du        
  16568 ****        20.5000  27.0000  10.7500 Du        
  16569 ****        20.5000  27.2500   6.0000 Du        
  16570 ****        20.5000  27.2500   6.2500 Du        
  16571 ****        20.5000  27.2500   6.7500 Du        
  16572 ****        20.5000  27.2500   7.0000 Du        
  16573 ****        20.5000  27.2500   7.2500 Du        
  16574 ****        20.7500  13.7500  20.0000 Du        
  16575 ****        20.7500  14.0000  19.0000 Du        
  16576 ****        20.7500  14.0000  19.2500 Du        
  16577 ****        20.7500  14.0000  19.7500 Du        
  16578 ****        20.7500  14.0000  20.0000 Du        
  16579 ****        20.7500  14.2500  18.7500 Du        
  16580 ****        20.7500  14.2500  19.0000 Du        
  16581 ****        20.7500  14.2500  19.2500 Du        
  16582 ****        20.7500  14.2500  19.5000 Du        
  16583 ****        20.7500  14.2500  19.7500 Du        
  16584 ****        20.7500  14.5000   8.2500 Du        
  16585 ****        20.7500  14.5000   8.5000 Du        
  16586 ****        20.7500  14.5000  18.0000 Du        
  16587 ****        20.7500  14.5000  18.2500 Du        
  16588 ****        20.7500  14.5000  18.5000 Du        
  16589 ****        20.7500  14.5000  18.7500 Du        
  16590 ****        20.7500  14.5000  19.0000 Du        
  16591 ****        20.7500  14.5000  19.2500 Du        
  16592 ****        20.7500  14.5000  19.5000 Du        
  16593 ****        20.7500  14.5000  19.7500 Du        
  16594 ****        20.7500  14.7500   8.2500 Du        
  16595 ****        20.7500  14.7500   8.5000 Du        
  16596 ****        20.7500  14.7500   8.7500 Du        
  16597 ****        20.7500  14.7500   9.0000 Du        
  16598 ****        20.7500  14.7500   9.2500 Du        
  16599 ****        20.7500  14.7500  17.7500 Du        
  16600 ****        20.7500  14.7500  18.0000 Du        
  16601 ****        20.7500  14.7500  18.2500 Du        
  16602 ****        20.7500  14.7500  18.5000 Du        
  16603 ****        20.7500  14.7500  18.7500 Du        
  16604 ****        20.7500  14.7500  19.0000 Du        
  16605 ****        20.7500  14.7500  19.2500 Du        
  16606 ****        20.7500  14.7500  19.5000 Du        
  16607 ****        20.7500  14.7500  19.7500 Du        
  16608 ****        20.7500  15.0000   8.2500 Du        
  16609 ****        20.7500  15.0000   8.5000 Du        
  16610 ****        20.7500  15.0000   8.7500 Du        
  16611 ****        20.7500  15.0000   9.0000 Du        
  16612 ****        20.7500  15.0000   9.2500 Du        
  16613 ****        20.7500  15.0000  17.5000 Du        
  16614 ****        20.7500  15.0000  17.7500 Du        
  16615 ****        20.7500  15.0000  18.0000 Du        
  16616 ****        20.7500  15.0000  18.2500 Du        
  16617 ****        20.7500  15.0000  18.5000 Du        
  16618 ****        20.7500  15.0000  18.7500 Du        
  16619 ****        20.7500  15.0000  19.0000 Du        
  16620 ****        20.7500  15.0000  19.2500 Du        
  16621 ****        20.7500  15.0000  19.5000 Du        
  16622 ****        20.7500  15.2500   8.2500 Du        
  16623 ****        20.7500  15.2500   8.5000 Du        
  16624 ****        20.7500  15.2500   8.7500 Du        
  16625 ****        20.7500  15.2500   9.0000 Du        
  16626 ****        20.7500  15.2500   9.2500 Du        
  16627 ****        20.7500  15.2500  17.7500 Du        
  16628 ****        20.7500  15.2500  18.0000 Du        
  16629 ****        20.7500  15.2500  18.2500 Du        
  16630 ****        20.7500  15.2500  18.5000 Du        
  16631 ****        20.7500  15.2500  18.7500 Du        
  16632 ****        20.7500  15.2500  19.0000 Du        
  16633 ****        20.7500  15.2500  19.2500 Du        
  16634 ****        20.7500  15.2500  19.5000 Du        
  16635 ****        20.7500  15.5000   8.2500 Du        
  16636 ****        20.7500  15.5000   8.5000 Du        
  16637 ****        20.7500  15.5000   8.7500 Du        
  16638 ****        20.7500  15.5000   9.0000 Du        
  16639 ****        20.7500  15.5000  12.0000 Du        
  16640 ****        20.7500  15.5000  12.2500 Du        
  16641 ****        20.7500  15.5000  18.2500 Du        
  16642 ****        20.7500  15.5000  18.5000 Du        
  16643 ****        20.7500  15.5000  18.7500 Du        
  16644 ****        20.7500  15.5000  19.0000 Du        
  16645 ****        20.7500  15.5000  19.2500 Du        
  16646 ****        20.7500  15.7500   8.2500 Du        
  16647 ****        20.7500  15.7500  11.7500 Du        
  16648 ****        20.7500  15.7500  12.0000 Du        
  16649 ****        20.7500  15.7500  12.2500 Du        
  16650 ****        20.7500  15.7500  12.5000 Du        
  16651 ****        20.7500  15.7500  12.7500 Du        
  16652 ****        20.7500  15.7500  18.7500 Du        
  16653 ****        20.7500  15.7500  19.0000 Du        
  16654 ****        20.7500  15.7500  19.2500 Du        
  16655 ****        20.7500  16.0000  12.0000 Du        
  16656 ****        20.7500  16.0000  12.2500 Du        
  16657 ****        20.7500  16.0000  12.5000 Du        
  16658 ****        20.7500  16.0000  12.7500 Du        
  16659 ****        20.7500  16.2500  12.2500 Du        
  16660 ****        20.7500  16.2500  12.5000 Du        
  16661 ****        20.7500  22.0000  19.2500 Du        
  16662 ****        20.7500  22.0000  19.5000 Du        
  16663 ****        20.7500  22.0000  19.7500 Du        
  16664 ****        20.7500  22.0000  20.0000 Du        
  16665 ****        20.7500  22.2500  18.7500 Du        
  16666 ****        20.7500  22.2500  19.0000 Du        
  16667 ****        20.7500  22.2500  19.2500 Du        
  16668 ****        20.7500  22.2500  19.5000 Du        
  16669 ****        20.7500  22.2500  19.7500 Du        
  16670 ****        20.7500  22.2500  20.0000 Du        
  16671 ****        20.7500  22.2500  20.2500 Du        
  16672 ****        20.7500  22.5000  18.5000 Du        
  16673 ****        20.7500  22.5000  18.7500 Du        
  16674 ****        20.7500  22.5000  19.0000 Du        
  16675 ****        20.7500  22.5000  19.2500 Du        
  16676 ****        20.7500  22.5000  19.5000 Du        
  16677 ****        20.7500  22.5000  19.7500 Du        
  16678 ****        20.7500  22.5000  20.0000 Du        
  16679 ****        20.7500  22.5000  20.2500 Du        
  16680 ****        20.7500  22.5000  20.5000 Du        
  16681 ****        20.7500  22.7500  18.2500 Du        
  16682 ****        20.7500  22.7500  18.5000 Du        
  16683 ****        20.7500  22.7500  18.7500 Du        
  16684 ****        20.7500  22.7500  19.0000 Du        
  16685 ****        20.7500  22.7500  19.2500 Du        
  16686 ****        20.7500  22.7500  19.5000 Du        
  16687 ****        20.7500  22.7500  19.7500 Du        
  16688 ****        20.7500  22.7500  20.0000 Du        
  16689 ****        20.7500  22.7500  20.2500 Du        
  16690 ****        20.7500  22.7500  20.5000 Du        
  16691 ****        20.7500  22.7500  20.7500 Du        
  16692 ****        20.7500  22.7500  21.0000 Du        
  16693 ****        20.7500  23.0000  18.5000 Du        
  16694 ****        20.7500  23.0000  18.7500 Du        
  16695 ****        20.7500  23.0000  19.0000 Du        
  16696 ****        20.7500  23.0000  19.2500 Du        
  16697 ****        20.7500  23.0000  19.5000 Du        
  16698 ****        20.7500  23.0000  19.7500 Du        
  16699 ****        20.7500  23.0000  20.0000 Du        
  16700 ****        20.7500  23.0000  20.2500 Du        
  16701 ****        20.7500  23.0000  20.5000 Du        
  16702 ****        20.7500  23.0000  20.7500 Du        
  16703 ****        20.7500  23.0000  21.0000 Du        
  16704 ****        20.7500  23.0000  21.2500 Du        
  16705 ****        20.7500  23.0000  21.5000 Du        
  16706 ****        20.7500  23.0000  21.7500 Du        
  16707 ****        20.7500  23.2500  18.7500 Du        
  16708 ****        20.7500  23.2500  19.0000 Du        
  16709 ****        20.7500  23.2500  19.2500 Du        
  16710 ****        20.7500  23.2500  19.5000 Du        
  16711 ****        20.7500  23.2500  19.7500 Du        
  16712 ****        20.7500  23.2500  20.0000 Du        
  16713 ****        20.7500  23.2500  20.2500 Du        
  16714 ****        20.7500  23.2500  20.5000 Du        
  16715 ****        20.7500  23.2500  20.7500 Du        
  16716 ****        20.7500  23.2500  21.0000 Du        
  16717 ****        20.7500  23.2500  21.2500 Du        
  16718 ****        20.7500  23.2500  21.5000 Du        
  16719 ****        20.7500  23.2500  21.7500 Du        
  16720 ****        20.7500  23.2500  22.0000 Du        
  16721 ****        20.7500  23.5000  19.2500 Du        
  16722 ****        20.7500  23.5000  19.5000 Du        
  16723 ****        20.7500  23.5000  19.7500 Du        
  16724 ****        20.7500  23.5000  20.0000 Du        
  16725 ****        20.7500  23.5000  20.2500 Du        
  16726 ****        20.7500  23.5000  20.5000 Du        
  16727 ****        20.7500  23.5000  20.7500 Du        
  16728 ****        20.7500  23.5000  21.0000 Du        
  16729 ****        20.7500  23.5000  21.2500 Du        
  16730 ****        20.7500  23.5000  21.5000 Du        
  16731 ****        20.7500  23.7500  19.7500 Du        
  16732 ****        20.7500  23.7500  20.0000 Du        
  16733 ****        20.7500  23.7500  20.2500 Du        
  16734 ****        20.7500  23.7500  20.5000 Du        
  16735 ****        20.7500  23.7500  20.7500 Du        
  16736 ****        20.7500  23.7500  21.0000 Du        
  16737 ****        20.7500  23.7500  21.2500 Du        
  16738 ****        20.7500  24.0000  20.0000 Du        
  16739 ****        20.7500  24.0000  20.2500 Du        
  16740 ****        20.7500  25.0000   9.0000 Du        
  16741 ****        20.7500  25.0000   9.2500 Du        
  16742 ****        20.7500  25.2500   8.2500 Du        
  16743 ****        20.7500  25.2500   8.5000 Du        
  16744 ****        20.7500  25.2500   8.7500 Du        
  16745 ****        20.7500  25.2500   9.0000 Du        
  16746 ****        20.7500  25.2500   9.2500 Du        
  16747 ****        20.7500  25.2500   9.5000 Du        
  16748 ****        20.7500  25.5000   7.5000 Du        
  16749 ****        20.7500  25.5000   7.7500 Du        
  16750 ****        20.7500  25.5000   8.0000 Du        
  16751 ****        20.7500  25.5000   8.2500 Du        
  16752 ****        20.7500  25.5000   8.5000 Du        
  16753 ****        20.7500  25.5000   8.7500 Du        
  16754 ****        20.7500  25.5000   9.0000 Du        
  16755 ****        20.7500  25.5000   9.2500 Du        
  16756 ****        20.7500  25.5000   9.5000 Du        
  16757 ****        20.7500  25.5000   9.7500 Du        
  16758 ****        20.7500  25.7500   6.0000 Du        
  16759 ****        20.7500  25.7500   6.2500 Du        
  16760 ****        20.7500  25.7500   6.5000 Du        
  16761 ****        20.7500  25.7500   6.7500 Du        
  16762 ****        20.7500  25.7500   7.0000 Du        
  16763 ****        20.7500  25.7500   7.2500 Du        
  16764 ****        20.7500  25.7500   7.5000 Du        
  16765 ****        20.7500  25.7500   7.7500 Du        
  16766 ****        20.7500  25.7500   8.0000 Du        
  16767 ****        20.7500  25.7500   8.2500 Du        
  16768 ****        20.7500  25.7500   8.5000 Du        
  16769 ****        20.7500  25.7500   8.7500 Du        
  16770 ****        20.7500  25.7500   9.0000 Du        
  16771 ****        20.7500  25.7500   9.2500 Du        
  16772 ****        20.7500  25.7500   9.5000 Du        
  16773 ****        20.7500  25.7500   9.7500 Du        
  16774 ****        20.7500  25.7500  10.0000 Du        
  16775 ****        20.7500  26.0000   5.2500 Du        
  16776 ****        20.7500  26.0000   5.5000 Du        
  16777 ****        20.7500  26.0000   5.7500 Du        
  16778 ****        20.7500  26.0000   6.0000 Du        
  16779 ****        20.7500  26.0000   6.2500 Du        
  16780 ****        20.7500  26.0000   6.5000 Du        
  16781 ****        20.7500  26.0000   6.7500 Du        
  16782 ****        20.7500  26.0000   7.0000 Du        
  16783 ****        20.7500  26.0000   7.2500 Du        
  16784 ****        20.7500  26.0000   7.5000 Du        
  16785 ****        20.7500  26.0000   7.7500 Du        
  16786 ****        20.7500  26.0000   8.0000 Du        
  16787 ****        20.7500  26.0000   8.2500 Du        
  16788 ****        20.7500  26.0000   8.5000 Du        
  16789 ****        20.7500  26.0000   8.7500 Du        
  16790 ****        20.7500  26.0000   9.0000 Du        
  16791 ****        20.7500  26.0000   9.2500 Du        
  16792 ****        20.7500  26.0000   9.5000 Du        
  16793 ****        20.7500  26.0000   9.7500 Du        
  16794 ****        20.7500  26.0000  10.0000 Du        
  16795 ****        20.7500  26.2500   5.2500 Du        
  16796 ****        20.7500  26.2500   5.5000 Du        
  16797 ****        20.7500  26.2500   5.7500 Du        
  16798 ****        20.7500  26.2500   6.0000 Du        
  16799 ****        20.7500  26.2500   6.2500 Du        
  16800 ****        20.7500  26.2500   6.5000 Du        
  16801 ****        20.7500  26.2500   6.7500 Du        
  16802 ****        20.7500  26.2500   7.0000 Du        
  16803 ****        20.7500  26.2500   7.2500 Du        
  16804 ****        20.7500  26.2500   7.5000 Du        
  16805 ****        20.7500  26.2500   7.7500 Du        
  16806 ****        20.7500  26.2500   8.0000 Du        
  16807 ****        20.7500  26.2500   8.2500 Du        
  16808 ****        20.7500  26.2500   8.5000 Du        
  16809 ****        20.7500  26.2500   8.7500 Du        
  16810 ****        20.7500  26.2500   9.0000 Du        
  16811 ****        20.7500  26.2500   9.2500 Du        
  16812 ****        20.7500  26.2500   9.5000 Du        
  16813 ****        20.7500  26.2500   9.7500 Du        
  16814 ****        20.7500  26.2500  10.0000 Du        
  16815 ****        20.7500  26.2500  10.2500 Du        
  16816 ****        20.7500  26.5000   5.2500 Du        
  16817 ****        20.7500  26.5000   5.5000 Du        
  16818 ****        20.7500  26.5000   5.7500 Du        
  16819 ****        20.7500  26.5000   6.0000 Du        
  16820 ****        20.7500  26.5000   6.2500 Du        
  16821 ****        20.7500  26.5000   6.5000 Du        
  16822 ****        20.7500  26.5000   6.7500 Du        
  16823 ****        20.7500  26.5000   7.0000 Du        
  16824 ****        20.7500  26.5000   7.2500 Du        
  16825 ****        20.7500  26.5000   7.5000 Du        
  16826 ****        20.7500  26.5000   7.7500 Du        
  16827 ****        20.7500  26.5000   8.0000 Du        
  16828 ****        20.7500  26.5000   8.2500 Du        
  16829 ****        20.7500  26.5000   8.5000 Du        
  16830 ****        20.7500  26.5000   8.7500 Du        
  16831 ****        20.7500  26.5000   9.0000 Du        
  16832 ****        20.7500  26.5000   9.2500 Du        
  16833 ****        20.7500  26.5000   9.5000 Du        
  16834 ****        20.7500  26.5000   9.7500 Du        
  16835 ****        20.7500  26.5000  10.0000 Du        
  16836 ****        20.7500  26.7500   5.2500 Du        
  16837 ****        20.7500  26.7500   5.5000 Du        
  16838 ****        20.7500  26.7500   5.7500 Du        
  16839 ****        20.7500  26.7500   6.0000 Du        
  16840 ****        20.7500  26.7500   6.2500 Du        
  16841 ****        20.7500  26.7500   6.5000 Du        
  16842 ****        20.7500  26.7500   6.7500 Du        
  16843 ****        20.7500  26.7500   7.0000 Du        
  16844 ****        20.7500  26.7500   7.2500 Du        
  16845 ****        20.7500  26.7500   7.5000 Du        
  16846 ****        20.7500  26.7500   7.7500 Du        
  16847 ****        20.7500  26.7500   8.0000 Du        
  16848 ****        20.7500  26.7500   8.2500 Du        
  16849 ****        20.7500  26.7500   9.0000 Du        
  16850 ****        20.7500  26.7500  10.0000 Du        
  16851 ****        20.7500  26.7500  10.2500 Du        
  16852 ****        20.7500  26.7500  10.5000 Du        
  16853 ****        20.7500  27.0000   5.2500 Du        
  16854 ****        20.7500  27.0000   5.5000 Du        
  16855 ****        20.7500  27.0000   5.7500 Du        
  16856 ****        20.7500  27.0000   6.0000 Du        
  16857 ****        20.7500  27.0000   6.2500 Du        
  16858 ****        20.7500  27.0000   6.5000 Du        
  16859 ****        20.7500  27.0000   6.7500 Du        
  16860 ****        20.7500  27.0000   7.0000 Du        
  16861 ****        20.7500  27.0000   7.2500 Du        
  16862 ****        20.7500  27.0000  10.5000 Du        
  16863 ****        20.7500  27.2500   5.5000 Du        
  16864 ****        20.7500  27.2500   5.7500 Du        
  16865 ****        20.7500  27.2500   6.0000 Du        
  16866 ****        20.7500  27.2500   6.2500 Du        
  16867 ****        20.7500  27.2500   7.0000 Du        
  16868 ****        20.7500  27.2500   7.2500 Du        
  16869 ****        20.7500  27.5000   6.2500 Du        
  16870 ****        21.0000  13.5000  20.5000 Du        
  16871 ****        21.0000  13.5000  20.7500 Du        
  16872 ****        21.0000  13.7500  20.0000 Du        
  16873 ****        21.0000  13.7500  20.2500 Du        
  16874 ****        21.0000  13.7500  20.5000 Du        
  16875 ****        21.0000  14.0000  19.0000 Du        
  16876 ****        21.0000  14.0000  19.2500 Du        
  16877 ****        21.0000  14.0000  19.5000 Du        
  16878 ****        21.0000  14.0000  19.7500 Du        
  16879 ****        21.0000  14.0000  20.0000 Du        
  16880 ****        21.0000  14.0000  20.2500 Du        
  16881 ****        21.0000  14.2500  18.7500 Du        
  16882 ****        21.0000  14.2500  19.0000 Du        
  16883 ****        21.0000  14.2500  19.2500 Du        
  16884 ****        21.0000  14.2500  19.5000 Du        
  16885 ****        21.0000  14.2500  19.7500 Du        
  16886 ****        21.0000  14.2500  20.0000 Du        
  16887 ****        21.0000  14.5000   8.2500 Du        
  16888 ****        21.0000  14.5000   8.5000 Du        
  16889 ****        21.0000  14.5000   8.7500 Du        
  16890 ****        21.0000  14.5000  18.0000 Du        
  16891 ****        21.0000  14.5000  18.2500 Du        
  16892 ****        21.0000  14.5000  18.5000 Du        
  16893 ****        21.0000  14.5000  18.7500 Du        
  16894 ****        21.0000  14.5000  19.0000 Du        
  16895 ****        21.0000  14.5000  19.2500 Du        
  16896 ****        21.0000  14.5000  19.5000 Du        
  16897 ****        21.0000  14.5000  19.7500 Du        
  16898 ****        21.0000  14.5000  20.0000 Du        
  16899 ****        21.0000  14.7500   8.2500 Du        
  16900 ****        21.0000  14.7500   8.5000 Du        
  16901 ****        21.0000  14.7500   8.7500 Du        
  16902 ****        21.0000  14.7500   9.0000 Du        
  16903 ****        21.0000  14.7500   9.2500 Du        
  16904 ****        21.0000  14.7500  17.7500 Du        
  16905 ****        21.0000  14.7500  18.0000 Du        
  16906 ****        21.0000  14.7500  18.2500 Du        
  16907 ****        21.0000  14.7500  18.5000 Du        
  16908 ****        21.0000  14.7500  18.7500 Du        
  16909 ****        21.0000  14.7500  19.0000 Du        
  16910 ****        21.0000  14.7500  19.2500 Du        
  16911 ****        21.0000  14.7500  19.5000 Du        
  16912 ****        21.0000  14.7500  19.7500 Du        
  16913 ****        21.0000  15.0000   8.2500 Du        
  16914 ****        21.0000  15.0000   8.5000 Du        
  16915 ****        21.0000  15.0000   8.7500 Du        
  16916 ****        21.0000  15.0000   9.0000 Du        
  16917 ****        21.0000  15.0000   9.2500 Du        
  16918 ****        21.0000  15.0000   9.5000 Du        
  16919 ****        21.0000  15.0000   9.7500 Du        
  16920 ****        21.0000  15.0000  17.5000 Du        
  16921 ****        21.0000  15.0000  17.7500 Du        
  16922 ****        21.0000  15.0000  18.0000 Du        
  16923 ****        21.0000  15.0000  18.2500 Du        
  16924 ****        21.0000  15.0000  18.5000 Du        
  16925 ****        21.0000  15.0000  18.7500 Du        
  16926 ****        21.0000  15.0000  19.0000 Du        
  16927 ****        21.0000  15.0000  19.2500 Du        
  16928 ****        21.0000  15.0000  19.5000 Du        
  16929 ****        21.0000  15.0000  19.7500 Du        
  16930 ****        21.0000  15.2500   8.2500 Du        
  16931 ****        21.0000  15.2500   8.5000 Du        
  16932 ****        21.0000  15.2500   8.7500 Du        
  16933 ****        21.0000  15.2500   9.0000 Du        
  16934 ****        21.0000  15.2500   9.2500 Du        
  16935 ****        21.0000  15.2500   9.5000 Du        
  16936 ****        21.0000  15.2500  10.0000 Du        
  16937 ****        21.0000  15.2500  17.7500 Du        
  16938 ****        21.0000  15.2500  18.0000 Du        
  16939 ****        21.0000  15.2500  18.2500 Du        
  16940 ****        21.0000  15.2500  18.5000 Du        
  16941 ****        21.0000  15.2500  18.7500 Du        
  16942 ****        21.0000  15.2500  19.0000 Du        
  16943 ****        21.0000  15.2500  19.2500 Du        
  16944 ****        21.0000  15.2500  19.5000 Du        
  16945 ****        21.0000  15.5000   8.2500 Du        
  16946 ****        21.0000  15.5000   8.5000 Du        
  16947 ****        21.0000  15.5000   8.7500 Du        
  16948 ****        21.0000  15.5000   9.0000 Du        
  16949 ****        21.0000  15.5000   9.2500 Du        
  16950 ****        21.0000  15.5000  11.2500 Du        
  16951 ****        21.0000  15.5000  18.2500 Du        
  16952 ****        21.0000  15.5000  18.5000 Du        
  16953 ****        21.0000  15.5000  18.7500 Du        
  16954 ****        21.0000  15.5000  19.0000 Du        
  16955 ****        21.0000  15.5000  19.2500 Du        
  16956 ****        21.0000  15.5000  19.5000 Du        
  16957 ****        21.0000  15.7500   8.2500 Du        
  16958 ****        21.0000  15.7500   8.5000 Du        
  16959 ****        21.0000  15.7500   8.7500 Du        
  16960 ****        21.0000  15.7500  11.2500 Du        
  16961 ****        21.0000  15.7500  11.7500 Du        
  16962 ****        21.0000  15.7500  12.0000 Du        
  16963 ****        21.0000  15.7500  12.2500 Du        
  16964 ****        21.0000  15.7500  12.5000 Du        
  16965 ****        21.0000  15.7500  12.7500 Du        
  16966 ****        21.0000  15.7500  13.0000 Du        
  16967 ****        21.0000  15.7500  18.7500 Du        
  16968 ****        21.0000  15.7500  19.0000 Du        
  16969 ****        21.0000  15.7500  19.2500 Du        
  16970 ****        21.0000  16.0000  11.7500 Du        
  16971 ****        21.0000  16.0000  12.0000 Du        
  16972 ****        21.0000  16.0000  12.2500 Du        
  16973 ****        21.0000  16.0000  12.5000 Du        
  16974 ****        21.0000  16.0000  12.7500 Du        
  16975 ****        21.0000  16.0000  13.0000 Du        
  16976 ****        21.0000  16.2500  12.0000 Du        
  16977 ****        21.0000  16.2500  12.2500 Du        
  16978 ****        21.0000  16.2500  12.5000 Du        
  16979 ****        21.0000  16.2500  12.7500 Du        
  16980 ****        21.0000  22.0000  19.5000 Du        
  16981 ****        21.0000  22.0000  19.7500 Du        
  16982 ****        21.0000  22.0000  20.0000 Du        
  16983 ****        21.0000  22.2500  19.0000 Du        
  16984 ****        21.0000  22.2500  19.2500 Du        
  16985 ****        21.0000  22.2500  19.5000 Du        
  16986 ****        21.0000  22.2500  19.7500 Du        
  16987 ****        21.0000  22.2500  20.0000 Du        
  16988 ****        21.0000  22.2500  20.2500 Du        
  16989 ****        21.0000  22.2500  20.5000 Du        
  16990 ****        21.0000  22.5000  19.0000 Du        
  16991 ****        21.0000  22.5000  19.2500 Du        
  16992 ****        21.0000  22.5000  19.5000 Du        
  16993 ****        21.0000  22.5000  19.7500 Du        
  16994 ****        21.0000  22.5000  20.0000 Du        
  16995 ****        21.0000  22.5000  20.2500 Du        
  16996 ****        21.0000  22.5000  20.5000 Du        
  16997 ****        21.0000  22.5000  20.7500 Du        
  16998 ****        21.0000  22.7500  19.0000 Du        
  16999 ****        21.0000  22.7500  19.2500 Du        
  17000 ****        21.0000  22.7500  19.5000 Du        
  17001 ****        21.0000  22.7500  19.7500 Du        
  17002 ****        21.0000  22.7500  20.0000 Du        
  17003 ****        21.0000  22.7500  20.2500 Du        
  17004 ****        21.0000  22.7500  20.5000 Du        
  17005 ****        21.0000  22.7500  20.7500 Du        
  17006 ****        21.0000  22.7500  21.0000 Du        
  17007 ****        21.0000  22.7500  21.2500 Du        
  17008 ****        21.0000  23.0000  19.2500 Du        
  17009 ****        21.0000  23.0000  19.5000 Du        
  17010 ****        21.0000  23.0000  19.7500 Du        
  17011 ****        21.0000  23.0000  20.0000 Du        
  17012 ****        21.0000  23.0000  20.2500 Du        
  17013 ****        21.0000  23.0000  20.5000 Du        
  17014 ****        21.0000  23.0000  20.7500 Du        
  17015 ****        21.0000  23.0000  21.0000 Du        
  17016 ****        21.0000  23.0000  21.2500 Du        
  17017 ****        21.0000  23.0000  21.5000 Du        
  17018 ****        21.0000  23.0000  21.7500 Du        
  17019 ****        21.0000  23.0000  22.0000 Du        
  17020 ****        21.0000  23.2500  19.7500 Du        
  17021 ****        21.0000  23.2500  20.0000 Du        
  17022 ****        21.0000  23.2500  20.2500 Du        
  17023 ****        21.0000  23.2500  20.5000 Du        
  17024 ****        21.0000  23.2500  20.7500 Du        
  17025 ****        21.0000  23.2500  21.0000 Du        
  17026 ****        21.0000  23.2500  21.2500 Du        
  17027 ****        21.0000  23.2500  21.5000 Du        
  17028 ****        21.0000  23.2500  21.7500 Du        
  17029 ****        21.0000  23.2500  22.0000 Du        
  17030 ****        21.0000  23.2500  22.2500 Du        
  17031 ****        21.0000  23.5000  20.0000 Du        
  17032 ****        21.0000  23.5000  20.2500 Du        
  17033 ****        21.0000  23.5000  20.5000 Du        
  17034 ****        21.0000  23.5000  20.7500 Du        
  17035 ****        21.0000  23.5000  21.0000 Du        
  17036 ****        21.0000  23.5000  21.2500 Du        
  17037 ****        21.0000  23.5000  21.5000 Du        
  17038 ****        21.0000  23.5000  21.7500 Du        
  17039 ****        21.0000  23.5000  22.0000 Du        
  17040 ****        21.0000  23.7500  20.0000 Du        
  17041 ****        21.0000  23.7500  20.2500 Du        
  17042 ****        21.0000  23.7500  20.5000 Du        
  17043 ****        21.0000  23.7500  20.7500 Du        
  17044 ****        21.0000  23.7500  21.0000 Du        
  17045 ****        21.0000  23.7500  21.2500 Du        
  17046 ****        21.0000  23.7500  21.5000 Du        
  17047 ****        21.0000  23.7500  21.7500 Du        
  17048 ****        21.0000  24.0000  20.2500 Du        
  17049 ****        21.0000  24.0000  20.7500 Du        
  17050 ****        21.0000  24.0000  21.0000 Du        
  17051 ****        21.0000  25.2500   8.5000 Du        
  17052 ****        21.0000  25.2500   8.7500 Du        
  17053 ****        21.0000  25.5000   7.7500 Du        
  17054 ****        21.0000  25.5000   8.0000 Du        
  17055 ****        21.0000  25.5000   8.2500 Du        
  17056 ****        21.0000  25.5000   8.5000 Du        
  17057 ****        21.0000  25.5000   8.7500 Du        
  17058 ****        21.0000  25.5000   9.0000 Du        
  17059 ****        21.0000  25.7500   6.0000 Du        
  17060 ****        21.0000  25.7500   6.2500 Du        
  17061 ****        21.0000  25.7500   6.5000 Du        
  17062 ****        21.0000  25.7500   6.7500 Du        
  17063 ****        21.0000  25.7500   7.0000 Du        
  17064 ****        21.0000  25.7500   7.2500 Du        
  17065 ****        21.0000  25.7500   7.5000 Du        
  17066 ****        21.0000  25.7500   7.7500 Du        
  17067 ****        21.0000  25.7500   8.0000 Du        
  17068 ****        21.0000  25.7500   8.2500 Du        
  17069 ****        21.0000  25.7500   8.5000 Du        
  17070 ****        21.0000  25.7500   8.7500 Du        
  17071 ****        21.0000  25.7500   9.0000 Du        
  17072 ****        21.0000  25.7500   9.2500 Du        
  17073 ****        21.0000  26.0000   5.2500 Du        
  17074 ****        21.0000  26.0000   5.5000 Du        
  17075 ****        21.0000  26.0000   5.7500 Du        
  17076 ****        21.0000  26.0000   6.0000 Du        
  17077 ****        21.0000  26.0000   6.2500 Du        
  17078 ****        21.0000  26.0000   6.5000 Du        
  17079 ****        21.0000  26.0000   6.7500 Du        
  17080 ****        21.0000  26.0000   7.0000 Du        
  17081 ****        21.0000  26.0000   7.2500 Du        
  17082 ****        21.0000  26.0000   7.5000 Du        
  17083 ****        21.0000  26.0000   7.7500 Du        
  17084 ****        21.0000  26.0000   8.0000 Du        
  17085 ****        21.0000  26.0000   8.2500 Du        
  17086 ****        21.0000  26.0000   8.5000 Du        
  17087 ****        21.0000  26.0000   8.7500 Du        
  17088 ****        21.0000  26.0000   9.0000 Du        
  17089 ****        21.0000  26.0000   9.2500 Du        
  17090 ****        21.0000  26.0000   9.5000 Du        
  17091 ****        21.0000  26.2500   5.2500 Du        
  17092 ****        21.0000  26.2500   5.5000 Du        
  17093 ****        21.0000  26.2500   5.7500 Du        
  17094 ****        21.0000  26.2500   6.0000 Du        
  17095 ****        21.0000  26.2500   6.2500 Du        
  17096 ****        21.0000  26.2500   6.5000 Du        
  17097 ****        21.0000  26.2500   6.7500 Du        
  17098 ****        21.0000  26.2500   7.0000 Du        
  17099 ****        21.0000  26.2500   7.2500 Du        
  17100 ****        21.0000  26.2500   7.5000 Du        
  17101 ****        21.0000  26.2500   7.7500 Du        
  17102 ****        21.0000  26.2500   8.0000 Du        
  17103 ****        21.0000  26.2500   8.2500 Du        
  17104 ****        21.0000  26.2500   8.5000 Du        
  17105 ****        21.0000  26.2500   8.7500 Du        
  17106 ****        21.0000  26.2500   9.0000 Du        
  17107 ****        21.0000  26.2500   9.2500 Du        
  17108 ****        21.0000  26.5000   5.2500 Du        
  17109 ****        21.0000  26.5000   5.5000 Du        
  17110 ****        21.0000  26.5000   5.7500 Du        
  17111 ****        21.0000  26.5000   6.0000 Du        
  17112 ****        21.0000  26.5000   6.2500 Du        
  17113 ****        21.0000  26.5000   6.5000 Du        
  17114 ****        21.0000  26.5000   6.7500 Du        
  17115 ****        21.0000  26.5000   7.0000 Du        
  17116 ****        21.0000  26.5000   7.2500 Du        
  17117 ****        21.0000  26.5000   7.5000 Du        
  17118 ****        21.0000  26.5000   7.7500 Du        
  17119 ****        21.0000  26.5000   8.0000 Du        
  17120 ****        21.0000  26.5000   8.2500 Du        
  17121 ****        21.0000  26.7500   5.2500 Du        
  17122 ****        21.0000  26.7500   5.5000 Du        
  17123 ****        21.0000  26.7500   5.7500 Du        
  17124 ****        21.0000  26.7500   6.0000 Du        
  17125 ****        21.0000  26.7500   6.2500 Du        
  17126 ****        21.0000  26.7500   6.5000 Du        
  17127 ****        21.0000  26.7500   6.7500 Du        
  17128 ****        21.0000  26.7500   7.0000 Du        
  17129 ****        21.0000  26.7500   7.2500 Du        
  17130 ****        21.0000  26.7500   8.0000 Du        
  17131 ****        21.0000  26.7500   8.2500 Du        
  17132 ****        21.0000  27.0000   5.2500 Du        
  17133 ****        21.0000  27.0000   5.5000 Du        
  17134 ****        21.0000  27.0000   5.7500 Du        
  17135 ****        21.0000  27.0000   6.0000 Du        
  17136 ****        21.0000  27.0000   6.2500 Du        
  17137 ****        21.0000  27.0000   6.5000 Du        
  17138 ****        21.0000  27.0000   6.7500 Du        
  17139 ****        21.0000  27.0000   7.2500 Du        
  17140 ****        21.0000  27.0000   8.0000 Du        
  17141 ****        21.0000  27.2500   5.2500 Du        
  17142 ****        21.0000  27.2500   5.5000 Du        
  17143 ****        21.0000  27.2500   5.7500 Du        
  17144 ****        21.0000  27.2500   6.0000 Du        
  17145 ****        21.0000  27.2500   6.2500 Du        
  17146 ****        21.0000  27.5000   5.5000 Du        
  17147 ****        21.0000  27.5000   5.7500 Du        
  17148 ****        21.2500  13.5000  20.5000 Du        
  17149 ****        21.2500  13.5000  20.7500 Du        
  17150 ****        21.2500  13.7500  20.0000 Du        
  17151 ****        21.2500  13.7500  20.2500 Du        
  17152 ****        21.2500  13.7500  20.5000 Du        
  17153 ****        21.2500  14.0000  19.0000 Du        
  17154 ****        21.2500  14.0000  19.2500 Du        
  17155 ****        21.2500  14.0000  19.5000 Du        
  17156 ****        21.2500  14.0000  19.7500 Du        
  17157 ****        21.2500  14.0000  20.0000 Du        
  17158 ****        21.2500  14.0000  20.2500 Du        
  17159 ****        21.2500  14.2500  18.7500 Du        
  17160 ****        21.2500  14.2500  19.0000 Du        
  17161 ****        21.2500  14.2500  19.2500 Du        
  17162 ****        21.2500  14.2500  19.5000 Du        
  17163 ****        21.2500  14.2500  19.7500 Du        
  17164 ****        21.2500  14.2500  20.0000 Du        
  17165 ****        21.2500  14.5000   8.7500 Du        
  17166 ****        21.2500  14.5000  18.2500 Du        
  17167 ****        21.2500  14.5000  18.5000 Du        
  17168 ****        21.2500  14.5000  18.7500 Du        
  17169 ****        21.2500  14.5000  19.0000 Du        
  17170 ****        21.2500  14.5000  19.2500 Du        
  17171 ****        21.2500  14.5000  19.5000 Du        
  17172 ****        21.2500  14.5000  19.7500 Du        
  17173 ****        21.2500  14.5000  20.0000 Du        
  17174 ****        21.2500  14.7500   8.2500 Du        
  17175 ****        21.2500  14.7500   8.5000 Du        
  17176 ****        21.2500  14.7500   8.7500 Du        
  17177 ****        21.2500  14.7500   9.0000 Du        
  17178 ****        21.2500  14.7500   9.2500 Du        
  17179 ****        21.2500  14.7500   9.5000 Du        
  17180 ****        21.2500  14.7500  17.5000 Du        
  17181 ****        21.2500  14.7500  17.7500 Du        
  17182 ****        21.2500  14.7500  18.0000 Du        
  17183 ****        21.2500  14.7500  18.2500 Du        
  17184 ****        21.2500  14.7500  18.5000 Du        
  17185 ****        21.2500  14.7500  18.7500 Du        
  17186 ****        21.2500  14.7500  19.0000 Du        
  17187 ****        21.2500  14.7500  19.2500 Du        
  17188 ****        21.2500  14.7500  19.5000 Du        
  17189 ****        21.2500  14.7500  19.7500 Du        
  17190 ****        21.2500  14.7500  20.0000 Du        
  17191 ****        21.2500  15.0000   8.2500 Du        
  17192 ****        21.2500  15.0000   8.5000 Du        
  17193 ****        21.2500  15.0000   8.7500 Du        
  17194 ****        21.2500  15.0000   9.0000 Du        
  17195 ****        21.2500  15.0000   9.2500 Du        
  17196 ****        21.2500  15.0000   9.5000 Du        
  17197 ****        21.2500  15.0000   9.7500 Du        
  17198 ****        21.2500  15.0000  17.5000 Du        
  17199 ****        21.2500  15.0000  17.7500 Du        
  17200 ****        21.2500  15.0000  18.0000 Du        
  17201 ****        21.2500  15.0000  18.2500 Du        
  17202 ****        21.2500  15.0000  18.5000 Du        
  17203 ****        21.2500  15.0000  18.7500 Du        
  17204 ****        21.2500  15.0000  19.0000 Du        
  17205 ****        21.2500  15.0000  19.2500 Du        
  17206 ****        21.2500  15.0000  19.5000 Du        
  17207 ****        21.2500  15.0000  19.7500 Du        
  17208 ****        21.2500  15.2500   8.2500 Du        
  17209 ****        21.2500  15.2500   8.5000 Du        
  17210 ****        21.2500  15.2500   8.7500 Du        
  17211 ****        21.2500  15.2500   9.0000 Du        
  17212 ****        21.2500  15.2500   9.2500 Du        
  17213 ****        21.2500  15.2500   9.5000 Du        
  17214 ****        21.2500  15.2500  10.0000 Du        
  17215 ****        21.2500  15.2500  10.2500 Du        
  17216 ****        21.2500  15.2500  17.7500 Du        
  17217 ****        21.2500  15.2500  18.0000 Du        
  17218 ****        21.2500  15.2500  18.2500 Du        
  17219 ****        21.2500  15.2500  18.5000 Du        
  17220 ****        21.2500  15.2500  18.7500 Du        
  17221 ****        21.2500  15.2500  19.0000 Du        
  17222 ****        21.2500  15.2500  19.2500 Du        
  17223 ****        21.2500  15.2500  19.5000 Du        
  17224 ****        21.2500  15.5000   8.2500 Du        
  17225 ****        21.2500  15.5000   8.5000 Du        
  17226 ****        21.2500  15.5000   8.7500 Du        
  17227 ****        21.2500  15.5000   9.0000 Du        
  17228 ****        21.2500  15.5000   9.2500 Du        
  17229 ****        21.2500  15.5000   9.5000 Du        
  17230 ****        21.2500  15.5000  10.0000 Du        
  17231 ****        21.2500  15.5000  12.7500 Du        
  17232 ****        21.2500  15.5000  18.2500 Du        
  17233 ****        21.2500  15.5000  18.5000 Du        
  17234 ****        21.2500  15.5000  18.7500 Du        
  17235 ****        21.2500  15.5000  19.0000 Du        
  17236 ****        21.2500  15.5000  19.2500 Du        
  17237 ****        21.2500  15.7500   8.2500 Du        
  17238 ****        21.2500  15.7500   8.5000 Du        
  17239 ****        21.2500  15.7500   8.7500 Du        
  17240 ****        21.2500  15.7500   9.0000 Du        
  17241 ****        21.2500  15.7500  11.7500 Du        
  17242 ****        21.2500  15.7500  12.0000 Du        
  17243 ****        21.2500  15.7500  12.2500 Du        
  17244 ****        21.2500  15.7500  12.5000 Du        
  17245 ****        21.2500  15.7500  12.7500 Du        
  17246 ****        21.2500  15.7500  13.0000 Du        
  17247 ****        21.2500  15.7500  18.7500 Du        
  17248 ****        21.2500  15.7500  19.0000 Du        
  17249 ****        21.2500  15.7500  19.2500 Du        
  17250 ****        21.2500  16.0000   8.2500 Du        
  17251 ****        21.2500  16.0000   8.5000 Du        
  17252 ****        21.2500  16.0000  11.7500 Du        
  17253 ****        21.2500  16.0000  12.0000 Du        
  17254 ****        21.2500  16.0000  12.2500 Du        
  17255 ****        21.2500  16.0000  12.5000 Du        
  17256 ****        21.2500  16.0000  12.7500 Du        
  17257 ****        21.2500  16.0000  13.0000 Du        
  17258 ****        21.2500  16.2500  12.2500 Du        
  17259 ****        21.2500  16.2500  12.5000 Du        
  17260 ****        21.2500  16.2500  12.7500 Du        
  17261 ****        21.2500  22.0000  19.7500 Du        
  17262 ****        21.2500  22.0000  20.0000 Du        
  17263 ****        21.2500  22.0000  20.2500 Du        
  17264 ****        21.2500  22.2500  19.5000 Du        
  17265 ****        21.2500  22.2500  19.7500 Du        
  17266 ****        21.2500  22.2500  20.0000 Du        
  17267 ****        21.2500  22.2500  20.2500 Du        
  17268 ****        21.2500  22.2500  20.5000 Du        
  17269 ****        21.2500  22.5000  19.5000 Du        
  17270 ****        21.2500  22.5000  19.7500 Du        
  17271 ****        21.2500  22.5000  20.0000 Du        
  17272 ****        21.2500  22.5000  20.2500 Du        
  17273 ****        21.2500  22.5000  20.5000 Du        
  17274 ****        21.2500  22.5000  20.7500 Du        
  17275 ****        21.2500  22.7500  19.7500 Du        
  17276 ****        21.2500  22.7500  20.0000 Du        
  17277 ****        21.2500  22.7500  20.2500 Du        
  17278 ****        21.2500  22.7500  20.5000 Du        
  17279 ****        21.2500  22.7500  20.7500 Du        
  17280 ****        21.2500  22.7500  21.0000 Du        
  17281 ****        21.2500  22.7500  21.2500 Du        
  17282 ****        21.2500  23.0000  19.7500 Du        
  17283 ****        21.2500  23.0000  20.0000 Du        
  17284 ****        21.2500  23.0000  20.2500 Du        
  17285 ****        21.2500  23.0000  20.5000 Du        
  17286 ****        21.2500  23.0000  20.7500 Du        
  17287 ****        21.2500  23.0000  21.0000 Du        
  17288 ****        21.2500  23.0000  21.2500 Du        
  17289 ****        21.2500  23.0000  21.5000 Du        
  17290 ****        21.2500  23.0000  21.7500 Du        
  17291 ****        21.2500  23.0000  22.0000 Du        
  17292 ****        21.2500  23.2500  20.0000 Du        
  17293 ****        21.2500  23.2500  20.2500 Du        
  17294 ****        21.2500  23.2500  20.5000 Du        
  17295 ****        21.2500  23.2500  20.7500 Du        
  17296 ****        21.2500  23.2500  21.0000 Du        
  17297 ****        21.2500  23.2500  21.2500 Du        
  17298 ****        21.2500  23.2500  21.5000 Du        
  17299 ****        21.2500  23.2500  21.7500 Du        
  17300 ****        21.2500  23.2500  22.0000 Du        
  17301 ****        21.2500  23.2500  22.2500 Du        
  17302 ****        21.2500  23.5000  20.2500 Du        
  17303 ****        21.2500  23.5000  20.5000 Du        
  17304 ****        21.2500  23.5000  20.7500 Du        
  17305 ****        21.2500  23.5000  21.0000 Du        
  17306 ****        21.2500  23.5000  21.2500 Du        
  17307 ****        21.2500  23.5000  21.5000 Du        
  17308 ****        21.2500  23.5000  21.7500 Du        
  17309 ****        21.2500  23.5000  22.0000 Du        
  17310 ****        21.2500  23.7500  20.2500 Du        
  17311 ****        21.2500  23.7500  20.5000 Du        
  17312 ****        21.2500  23.7500  20.7500 Du        
  17313 ****        21.2500  23.7500  21.0000 Du        
  17314 ****        21.2500  23.7500  21.2500 Du        
  17315 ****        21.2500  23.7500  21.5000 Du        
  17316 ****        21.2500  23.7500  21.7500 Du        
  17317 ****        21.2500  24.0000  20.7500 Du        
  17318 ****        21.2500  24.0000  21.0000 Du        
  17319 ****        21.2500  24.0000  21.2500 Du        
  17320 ****        21.2500  25.7500   5.7500 Du        
  17321 ****        21.2500  25.7500   6.0000 Du        
  17322 ****        21.2500  25.7500   6.2500 Du        
  17323 ****        21.2500  25.7500   6.5000 Du        
  17324 ****        21.2500  25.7500   6.7500 Du        
  17325 ****        21.2500  25.7500   7.0000 Du        
  17326 ****        21.2500  25.7500   7.2500 Du        
  17327 ****        21.2500  25.7500   7.5000 Du        
  17328 ****        21.2500  25.7500   7.7500 Du        
  17329 ****        21.2500  25.7500   8.0000 Du        
  17330 ****        21.2500  25.7500   8.2500 Du        
  17331 ****        21.2500  25.7500   8.5000 Du        
  17332 ****        21.2500  26.0000   5.2500 Du        
  17333 ****        21.2500  26.0000   5.5000 Du        
  17334 ****        21.2500  26.0000   5.7500 Du        
  17335 ****        21.2500  26.0000   6.0000 Du        
  17336 ****        21.2500  26.0000   6.2500 Du        
  17337 ****        21.2500  26.0000   6.5000 Du        
  17338 ****        21.2500  26.0000   6.7500 Du        
  17339 ****        21.2500  26.0000   7.0000 Du        
  17340 ****        21.2500  26.0000   7.2500 Du        
  17341 ****        21.2500  26.0000   7.5000 Du        
  17342 ****        21.2500  26.0000   7.7500 Du        
  17343 ****        21.2500  26.0000   8.0000 Du        
  17344 ****        21.2500  26.0000   8.2500 Du        
  17345 ****        21.2500  26.0000   8.5000 Du        
  17346 ****        21.2500  26.2500   5.2500 Du        
  17347 ****        21.2500  26.2500   5.5000 Du        
  17348 ****        21.2500  26.2500   5.7500 Du        
  17349 ****        21.2500  26.2500   6.0000 Du        
  17350 ****        21.2500  26.2500   6.2500 Du        
  17351 ****        21.2500  26.2500   6.5000 Du        
  17352 ****        21.2500  26.2500   6.7500 Du        
  17353 ****        21.2500  26.2500   7.0000 Du        
  17354 ****        21.2500  26.2500   7.2500 Du        
  17355 ****        21.2500  26.2500   7.5000 Du        
  17356 ****        21.2500  26.2500   7.7500 Du        
  17357 ****        21.2500  26.2500   8.0000 Du        
  17358 ****        21.2500  26.2500   8.2500 Du        
  17359 ****        21.2500  26.2500   8.5000 Du        
  17360 ****        21.2500  26.2500   8.7500 Du        
  17361 ****        21.2500  26.5000   5.2500 Du        
  17362 ****        21.2500  26.5000   5.5000 Du        
  17363 ****        21.2500  26.5000   5.7500 Du        
  17364 ****        21.2500  26.5000   6.0000 Du        
  17365 ****        21.2500  26.5000   6.2500 Du        
  17366 ****        21.2500  26.5000   6.5000 Du        
  17367 ****        21.2500  26.5000   6.7500 Du        
  17368 ****        21.2500  26.5000   7.0000 Du        
  17369 ****        21.2500  26.5000   7.2500 Du        
  17370 ****        21.2500  26.5000   7.5000 Du        
  17371 ****        21.2500  26.5000   7.7500 Du        
  17372 ****        21.2500  26.7500   5.2500 Du        
  17373 ****        21.2500  26.7500   5.5000 Du        
  17374 ****        21.2500  26.7500   5.7500 Du        
  17375 ****        21.2500  26.7500   6.0000 Du        
  17376 ****        21.2500  27.0000   5.2500 Du        
  17377 ****        21.2500  27.0000   5.5000 Du        
  17378 ****        21.2500  27.0000   5.7500 Du        
  17379 ****        21.2500  27.0000   6.0000 Du        
  17380 ****        21.2500  27.2500   5.2500 Du        
  17381 ****        21.2500  27.2500   5.5000 Du        
  17382 ****        21.2500  27.2500   5.7500 Du        
  17383 ****        21.2500  27.2500   6.0000 Du        
  17384 ****        21.5000  13.7500  20.2500 Du        
  17385 ****        21.5000  14.0000  19.5000 Du        
  17386 ****        21.5000  14.0000  19.7500 Du        
  17387 ****        21.5000  14.0000  20.0000 Du        
  17388 ****        21.5000  14.2500  18.5000 Du        
  17389 ****        21.5000  14.2500  18.7500 Du        
  17390 ****        21.5000  14.2500  19.0000 Du        
  17391 ****        21.5000  14.2500  19.2500 Du        
  17392 ****        21.5000  14.2500  19.5000 Du        
  17393 ****        21.5000  14.2500  19.7500 Du        
  17394 ****        21.5000  14.2500  20.0000 Du        
  17395 ****        21.5000  14.5000   8.7500 Du        
  17396 ****        21.5000  14.5000  18.2500 Du        
  17397 ****        21.5000  14.5000  18.5000 Du        
  17398 ****        21.5000  14.5000  18.7500 Du        
  17399 ****        21.5000  14.5000  19.0000 Du        
  17400 ****        21.5000  14.5000  19.2500 Du        
  17401 ****        21.5000  14.5000  19.5000 Du        
  17402 ****        21.5000  14.5000  19.7500 Du        
  17403 ****        21.5000  14.5000  20.0000 Du        
  17404 ****        21.5000  14.7500   8.2500 Du        
  17405 ****        21.5000  14.7500   8.5000 Du        
  17406 ****        21.5000  14.7500   8.7500 Du        
  17407 ****        21.5000  14.7500   9.0000 Du        
  17408 ****        21.5000  14.7500   9.2500 Du        
  17409 ****        21.5000  14.7500  17.7500 Du        
  17410 ****        21.5000  14.7500  18.0000 Du        
  17411 ****        21.5000  14.7500  18.2500 Du        
  17412 ****        21.5000  14.7500  18.5000 Du        
  17413 ****        21.5000  14.7500  18.7500 Du        
  17414 ****        21.5000  14.7500  19.0000 Du        
  17415 ****        21.5000  14.7500  19.2500 Du        
  17416 ****        21.5000  14.7500  19.5000 Du        
  17417 ****        21.5000  14.7500  19.7500 Du        
  17418 ****        21.5000  15.0000   8.2500 Du        
  17419 ****        21.5000  15.0000   8.5000 Du        
  17420 ****        21.5000  15.0000   8.7500 Du        
  17421 ****        21.5000  15.0000   9.0000 Du        
  17422 ****        21.5000  15.0000   9.2500 Du        
  17423 ****        21.5000  15.0000  17.5000 Du        
  17424 ****        21.5000  15.0000  17.7500 Du        
  17425 ****        21.5000  15.0000  18.0000 Du        
  17426 ****        21.5000  15.0000  18.2500 Du        
  17427 ****        21.5000  15.0000  18.5000 Du        
  17428 ****        21.5000  15.0000  18.7500 Du        
  17429 ****        21.5000  15.0000  19.0000 Du        
  17430 ****        21.5000  15.0000  19.2500 Du        
  17431 ****        21.5000  15.0000  19.5000 Du        
  17432 ****        21.5000  15.0000  19.7500 Du        
  17433 ****        21.5000  15.2500   8.2500 Du        
  17434 ****        21.5000  15.2500   8.5000 Du        
  17435 ****        21.5000  15.2500   8.7500 Du        
  17436 ****        21.5000  15.2500   9.0000 Du        
  17437 ****        21.5000  15.2500   9.2500 Du        
  17438 ****        21.5000  15.2500   9.5000 Du        
  17439 ****        21.5000  15.2500  17.7500 Du        
  17440 ****        21.5000  15.2500  18.0000 Du        
  17441 ****        21.5000  15.2500  18.2500 Du        
  17442 ****        21.5000  15.2500  18.5000 Du        
  17443 ****        21.5000  15.2500  18.7500 Du        
  17444 ****        21.5000  15.2500  19.0000 Du        
  17445 ****        21.5000  15.2500  19.2500 Du        
  17446 ****        21.5000  15.2500  19.5000 Du        
  17447 ****        21.5000  15.5000   8.2500 Du        
  17448 ****        21.5000  15.5000   8.5000 Du        
  17449 ****        21.5000  15.5000   8.7500 Du        
  17450 ****        21.5000  15.5000   9.0000 Du        
  17451 ****        21.5000  15.5000   9.2500 Du        
  17452 ****        21.5000  15.5000   9.5000 Du        
  17453 ****        21.5000  15.5000  10.0000 Du        
  17454 ****        21.5000  15.5000  18.5000 Du        
  17455 ****        21.5000  15.5000  18.7500 Du        
  17456 ****        21.5000  15.5000  19.0000 Du        
  17457 ****        21.5000  15.5000  19.2500 Du        
  17458 ****        21.5000  15.7500   8.2500 Du        
  17459 ****        21.5000  15.7500   8.5000 Du        
  17460 ****        21.5000  15.7500   8.7500 Du        
  17461 ****        21.5000  15.7500   9.0000 Du        
  17462 ****        21.5000  15.7500  12.7500 Du        
  17463 ****        21.5000  15.7500  13.0000 Du        
  17464 ****        21.5000  15.7500  13.2500 Du        
  17465 ****        21.5000  15.7500  18.7500 Du        
  17466 ****        21.5000  15.7500  19.0000 Du        
  17467 ****        21.5000  16.0000   8.2500 Du        
  17468 ****        21.5000  16.0000   8.5000 Du        
  17469 ****        21.5000  16.0000  12.5000 Du        
  17470 ****        21.5000  16.0000  12.7500 Du        
  17471 ****        21.5000  16.0000  13.0000 Du        
  17472 ****        21.5000  16.2500  12.7500 Du        
  17473 ****        21.5000  22.2500  19.7500 Du        
  17474 ****        21.5000  22.2500  20.0000 Du        
  17475 ****        21.5000  22.2500  20.2500 Du        
  17476 ****        21.5000  22.2500  20.5000 Du        
  17477 ****        21.5000  22.5000  19.7500 Du        
  17478 ****        21.5000  22.5000  20.0000 Du        
  17479 ****        21.5000  22.5000  20.2500 Du        
  17480 ****        21.5000  22.5000  20.5000 Du        
  17481 ****        21.5000  22.5000  20.7500 Du        
  17482 ****        21.5000  22.5000  21.0000 Du        
  17483 ****        21.5000  22.7500  20.0000 Du        
  17484 ****        21.5000  22.7500  20.2500 Du        
  17485 ****        21.5000  22.7500  20.5000 Du        
  17486 ****        21.5000  22.7500  20.7500 Du        
  17487 ****        21.5000  22.7500  21.0000 Du        
  17488 ****        21.5000  22.7500  21.2500 Du        
  17489 ****        21.5000  22.7500  21.5000 Du        
  17490 ****        21.5000  23.0000  20.0000 Du        
  17491 ****        21.5000  23.0000  20.2500 Du        
  17492 ****        21.5000  23.0000  20.5000 Du        
  17493 ****        21.5000  23.0000  20.7500 Du        
  17494 ****        21.5000  23.0000  21.0000 Du        
  17495 ****        21.5000  23.0000  21.2500 Du        
  17496 ****        21.5000  23.0000  21.5000 Du        
  17497 ****        21.5000  23.0000  21.7500 Du        
  17498 ****        21.5000  23.0000  22.0000 Du        
  17499 ****        21.5000  23.0000  22.2500 Du        
  17500 ****        21.5000  23.2500  20.2500 Du        
  17501 ****        21.5000  23.2500  20.5000 Du        
  17502 ****        21.5000  23.2500  20.7500 Du        
  17503 ****        21.5000  23.2500  21.0000 Du        
  17504 ****        21.5000  23.2500  21.2500 Du        
  17505 ****        21.5000  23.2500  21.5000 Du        
  17506 ****        21.5000  23.2500  21.7500 Du        
  17507 ****        21.5000  23.2500  22.0000 Du        
  17508 ****        21.5000  23.2500  22.2500 Du        
  17509 ****        21.5000  23.2500  22.5000 Du        
  17510 ****        21.5000  23.5000  20.5000 Du        
  17511 ****        21.5000  23.5000  20.7500 Du        
  17512 ****        21.5000  23.5000  21.0000 Du        
  17513 ****        21.5000  23.5000  21.2500 Du        
  17514 ****        21.5000  23.5000  21.5000 Du        
  17515 ****        21.5000  23.5000  21.7500 Du        
  17516 ****        21.5000  23.5000  22.0000 Du        
  17517 ****        21.5000  23.5000  22.2500 Du        
  17518 ****        21.5000  23.7500  20.5000 Du        
  17519 ****        21.5000  23.7500  20.7500 Du        
  17520 ****        21.5000  23.7500  21.0000 Du        
  17521 ****        21.5000  23.7500  21.2500 Du        
  17522 ****        21.5000  23.7500  21.5000 Du        
  17523 ****        21.5000  23.7500  21.7500 Du        
  17524 ****        21.5000  23.7500  22.0000 Du        
  17525 ****        21.5000  23.7500  22.2500 Du        
  17526 ****        21.5000  24.0000  20.7500 Du        
  17527 ****        21.5000  24.0000  21.0000 Du        
  17528 ****        21.5000  24.0000  21.2500 Du        
  17529 ****        21.5000  24.0000  21.5000 Du        
  17530 ****        21.5000  24.0000  21.7500 Du        
  17531 ****        21.5000  24.0000  22.0000 Du        
  17532 ****        21.5000  24.2500  21.0000 Du        
  17533 ****        21.5000  26.0000   6.0000 Du        
  17534 ****        21.5000  26.0000   6.7500 Du        
  17535 ****        21.5000  26.0000   7.0000 Du        
  17536 ****        21.5000  26.0000   7.2500 Du        
  17537 ****        21.5000  26.2500   5.2500 Du        
  17538 ****        21.5000  26.2500   5.7500 Du        
  17539 ****        21.5000  26.2500   6.0000 Du        
  17540 ****        21.5000  26.2500   7.0000 Du        
  17541 ****        21.5000  26.2500   7.2500 Du        
  17542 ****        21.5000  26.5000   5.2500 Du        
  17543 ****        21.7500  14.0000  19.0000 Du        
  17544 ****        21.7500  14.0000  19.2500 Du        
  17545 ****        21.7500  14.0000  19.5000 Du        
  17546 ****        21.7500  14.0000  19.7500 Du        
  17547 ****        21.7500  14.0000  20.0000 Du        
  17548 ****        21.7500  14.2500  18.5000 Du        
  17549 ****        21.7500  14.2500  18.7500 Du        
  17550 ****        21.7500  14.2500  19.0000 Du        
  17551 ****        21.7500  14.2500  19.2500 Du        
  17552 ****        21.7500  14.2500  19.5000 Du        
  17553 ****        21.7500  14.2500  19.7500 Du        
  17554 ****        21.7500  14.5000  18.0000 Du        
  17555 ****        21.7500  14.5000  18.2500 Du        
  17556 ****        21.7500  14.5000  18.5000 Du        
  17557 ****        21.7500  14.5000  18.7500 Du        
  17558 ****        21.7500  14.5000  19.0000 Du        
  17559 ****        21.7500  14.5000  19.2500 Du        
  17560 ****        21.7500  14.5000  19.5000 Du        
  17561 ****        21.7500  14.5000  19.7500 Du        
  17562 ****        21.7500  14.7500   8.7500 Du        
  17563 ****        21.7500  14.7500   9.0000 Du        
  17564 ****        21.7500  14.7500   9.2500 Du        
  17565 ****        21.7500  14.7500  17.5000 Du        
  17566 ****        21.7500  14.7500  17.7500 Du        
  17567 ****        21.7500  14.7500  18.0000 Du        
  17568 ****        21.7500  14.7500  18.2500 Du        
  17569 ****        21.7500  14.7500  18.5000 Du        
  17570 ****        21.7500  14.7500  18.7500 Du        
  17571 ****        21.7500  14.7500  19.0000 Du        
  17572 ****        21.7500  14.7500  19.2500 Du        
  17573 ****        21.7500  14.7500  19.5000 Du        
  17574 ****        21.7500  14.7500  19.7500 Du        
  17575 ****        21.7500  15.0000   8.7500 Du        
  17576 ****        21.7500  15.0000   9.0000 Du        
  17577 ****        21.7500  15.0000   9.2500 Du        
  17578 ****        21.7500  15.0000  17.5000 Du        
  17579 ****        21.7500  15.0000  17.7500 Du        
  17580 ****        21.7500  15.0000  18.0000 Du        
  17581 ****        21.7500  15.0000  18.2500 Du        
  17582 ****        21.7500  15.0000  18.5000 Du        
  17583 ****        21.7500  15.0000  18.7500 Du        
  17584 ****        21.7500  15.0000  19.0000 Du        
  17585 ****        21.7500  15.0000  19.2500 Du        
  17586 ****        21.7500  15.0000  19.5000 Du        
  17587 ****        21.7500  15.2500   8.2500 Du        
  17588 ****        21.7500  15.2500   8.5000 Du        
  17589 ****        21.7500  15.2500   8.7500 Du        
  17590 ****        21.7500  15.2500   9.0000 Du        
  17591 ****        21.7500  15.2500   9.2500 Du        
  17592 ****        21.7500  15.2500   9.5000 Du        
  17593 ****        21.7500  15.2500   9.7500 Du        
  17594 ****        21.7500  15.2500  18.0000 Du        
  17595 ****        21.7500  15.2500  18.2500 Du        
  17596 ****        21.7500  15.2500  18.5000 Du        
  17597 ****        21.7500  15.2500  18.7500 Du        
  17598 ****        21.7500  15.2500  19.0000 Du        
  17599 ****        21.7500  15.2500  19.2500 Du        
  17600 ****        21.7500  15.5000   8.2500 Du        
  17601 ****        21.7500  15.5000   8.5000 Du        
  17602 ****        21.7500  15.5000   8.7500 Du        
  17603 ****        21.7500  15.5000   9.0000 Du        
  17604 ****        21.7500  15.5000   9.2500 Du        
  17605 ****        21.7500  15.5000   9.5000 Du        
  17606 ****        21.7500  15.5000   9.7500 Du        
  17607 ****        21.7500  15.5000  10.0000 Du        
  17608 ****        21.7500  15.5000  10.2500 Du        
  17609 ****        21.7500  15.5000  18.5000 Du        
  17610 ****        21.7500  15.5000  18.7500 Du        
  17611 ****        21.7500  15.5000  19.0000 Du        
  17612 ****        21.7500  15.5000  19.2500 Du        
  17613 ****        21.7500  15.7500   8.2500 Du        
  17614 ****        21.7500  15.7500   8.5000 Du        
  17615 ****        21.7500  15.7500   8.7500 Du        
  17616 ****        21.7500  15.7500   9.0000 Du        
  17617 ****        21.7500  15.7500   9.2500 Du        
  17618 ****        21.7500  15.7500   9.5000 Du        
  17619 ****        21.7500  16.0000   8.5000 Du        
  17620 ****        21.7500  16.0000   8.7500 Du        
  17621 ****        21.7500  22.2500  20.0000 Du        
  17622 ****        21.7500  22.2500  20.2500 Du        
  17623 ****        21.7500  22.2500  20.5000 Du        
  17624 ****        21.7500  22.2500  20.7500 Du        
  17625 ****        21.7500  22.5000  20.0000 Du        
  17626 ****        21.7500  22.5000  20.2500 Du        
  17627 ****        21.7500  22.5000  20.5000 Du        
  17628 ****        21.7500  22.5000  20.7500 Du        
  17629 ****        21.7500  22.5000  21.0000 Du        
  17630 ****        21.7500  22.5000  21.2500 Du        
  17631 ****        21.7500  22.7500  20.2500 Du        
  17632 ****        21.7500  22.7500  20.5000 Du        
  17633 ****        21.7500  22.7500  20.7500 Du        
  17634 ****        21.7500  22.7500  21.0000 Du        
  17635 ****        21.7500  22.7500  21.2500 Du        
  17636 ****        21.7500  22.7500  21.5000 Du        
  17637 ****        21.7500  22.7500  21.7500 Du        
  17638 ****        21.7500  22.7500  22.0000 Du        
  17639 ****        21.7500  23.0000  20.2500 Du        
  17640 ****        21.7500  23.0000  20.5000 Du        
  17641 ****        21.7500  23.0000  20.7500 Du        
  17642 ****        21.7500  23.0000  21.0000 Du        
  17643 ****        21.7500  23.0000  21.2500 Du        
  17644 ****        21.7500  23.0000  21.5000 Du        
  17645 ****        21.7500  23.0000  21.7500 Du        
  17646 ****        21.7500  23.0000  22.0000 Du        
  17647 ****        21.7500  23.0000  22.2500 Du        
  17648 ****        21.7500  23.0000  22.5000 Du        
  17649 ****        21.7500  23.2500  20.5000 Du        
  17650 ****        21.7500  23.2500  20.7500 Du        
  17651 ****        21.7500  23.2500  21.0000 Du        
  17652 ****        21.7500  23.2500  21.2500 Du        
  17653 ****        21.7500  23.2500  21.5000 Du        
  17654 ****        21.7500  23.2500  21.7500 Du        
  17655 ****        21.7500  23.2500  22.0000 Du        
  17656 ****        21.7500  23.2500  22.2500 Du        
  17657 ****        21.7500  23.2500  22.5000 Du        
  17658 ****        21.7500  23.5000  20.5000 Du        
  17659 ****        21.7500  23.5000  20.7500 Du        
  17660 ****        21.7500  23.5000  21.0000 Du        
  17661 ****        21.7500  23.5000  21.2500 Du        
  17662 ****        21.7500  23.5000  21.5000 Du        
  17663 ****        21.7500  23.5000  21.7500 Du        
  17664 ****        21.7500  23.5000  22.0000 Du        
  17665 ****        21.7500  23.5000  22.2500 Du        
  17666 ****        21.7500  23.5000  22.5000 Du        
  17667 ****        21.7500  23.7500  20.7500 Du        
  17668 ****        21.7500  23.7500  21.0000 Du        
  17669 ****        21.7500  23.7500  21.2500 Du        
  17670 ****        21.7500  23.7500  21.5000 Du        
  17671 ****        21.7500  23.7500  21.7500 Du        
  17672 ****        21.7500  23.7500  22.0000 Du        
  17673 ****        21.7500  23.7500  22.2500 Du        
  17674 ****        21.7500  23.7500  22.5000 Du        
  17675 ****        21.7500  24.0000  20.7500 Du        
  17676 ****        21.7500  24.0000  21.0000 Du        
  17677 ****        21.7500  24.0000  21.2500 Du        
  17678 ****        21.7500  24.0000  21.5000 Du        
  17679 ****        21.7500  24.0000  21.7500 Du        
  17680 ****        21.7500  24.0000  22.0000 Du        
  17681 ****        21.7500  24.0000  22.2500 Du        
  17682 ****        21.7500  24.2500  21.2500 Du        
  17683 ****        21.7500  24.2500  21.5000 Du        
  17684 ****        21.7500  24.2500  21.7500 Du        
  17685 ****        21.7500  26.0000   6.0000 Du        
  17686 ****        21.7500  26.0000   6.7500 Du        
  17687 ****        21.7500  26.0000   7.0000 Du        
  17688 ****        21.7500  26.0000   7.2500 Du        
  17689 ****        21.7500  26.2500   6.7500 Du        
  17690 ****        21.7500  26.2500   7.0000 Du        
  17691 ****        21.7500  26.2500   7.2500 Du        
  17692 ****        22.0000  14.0000  19.0000 Du        
  17693 ****        22.0000  14.0000  19.2500 Du        
  17694 ****        22.0000  14.0000  19.7500 Du        
  17695 ****        22.0000  14.2500  18.5000 Du        
  17696 ****        22.0000  14.2500  18.7500 Du        
  17697 ****        22.0000  14.2500  19.0000 Du        
  17698 ****        22.0000  14.2500  19.2500 Du        
  17699 ****        22.0000  14.2500  19.5000 Du        
  17700 ****        22.0000  14.2500  19.7500 Du        
  17701 ****        22.0000  14.5000  18.0000 Du        
  17702 ****        22.0000  14.5000  18.2500 Du        
  17703 ****        22.0000  14.5000  18.5000 Du        
  17704 ****        22.0000  14.5000  18.7500 Du        
  17705 ****        22.0000  14.5000  19.0000 Du        
  17706 ****        22.0000  14.5000  19.2500 Du        
  17707 ****        22.0000  14.5000  19.5000 Du        
  17708 ****        22.0000  14.5000  19.7500 Du        
  17709 ****        22.0000  14.7500   8.7500 Du        
  17710 ****        22.0000  14.7500   9.0000 Du        
  17711 ****        22.0000  14.7500   9.2500 Du        
  17712 ****        22.0000  14.7500  17.7500 Du        
  17713 ****        22.0000  14.7500  18.0000 Du        
  17714 ****        22.0000  14.7500  18.2500 Du        
  17715 ****        22.0000  14.7500  18.5000 Du        
  17716 ****        22.0000  14.7500  18.7500 Du        
  17717 ****        22.0000  14.7500  19.0000 Du        
  17718 ****        22.0000  14.7500  19.2500 Du        
  17719 ****        22.0000  14.7500  19.5000 Du        
  17720 ****        22.0000  15.0000   8.7500 Du        
  17721 ****        22.0000  15.0000   9.0000 Du        
  17722 ****        22.0000  15.0000   9.2500 Du        
  17723 ****        22.0000  15.0000   9.5000 Du        
  17724 ****        22.0000  15.0000  18.0000 Du        
  17725 ****        22.0000  15.0000  18.2500 Du        
  17726 ****        22.0000  15.0000  18.5000 Du        
  17727 ****        22.0000  15.0000  18.7500 Du        
  17728 ****        22.0000  15.0000  19.0000 Du        
  17729 ****        22.0000  15.0000  19.2500 Du        
  17730 ****        22.0000  15.2500   8.5000 Du        
  17731 ****        22.0000  15.2500   8.7500 Du        
  17732 ****        22.0000  15.2500   9.0000 Du        
  17733 ****        22.0000  15.2500   9.2500 Du        
  17734 ****        22.0000  15.2500   9.5000 Du        
  17735 ****        22.0000  15.2500   9.7500 Du        
  17736 ****        22.0000  15.2500  18.5000 Du        
  17737 ****        22.0000  15.2500  18.7500 Du        
  17738 ****        22.0000  15.2500  19.0000 Du        
  17739 ****        22.0000  15.5000   8.5000 Du        
  17740 ****        22.0000  15.5000   8.7500 Du        
  17741 ****        22.0000  15.5000   9.0000 Du        
  17742 ****        22.0000  15.5000   9.2500 Du        
  17743 ****        22.0000  15.5000   9.5000 Du        
  17744 ****        22.0000  15.5000   9.7500 Du        
  17745 ****        22.0000  15.5000  10.0000 Du        
  17746 ****        22.0000  15.7500   8.7500 Du        
  17747 ****        22.0000  15.7500   9.0000 Du        
  17748 ****        22.0000  15.7500   9.2500 Du        
  17749 ****        22.0000  15.7500   9.5000 Du        
  17750 ****        22.0000  15.7500   9.7500 Du        
  17751 ****        22.0000  16.0000   9.0000 Du        
  17752 ****        22.0000  22.5000  20.2500 Du        
  17753 ****        22.0000  22.5000  20.5000 Du        
  17754 ****        22.0000  22.5000  20.7500 Du        
  17755 ****        22.0000  22.5000  21.0000 Du        
  17756 ****        22.0000  22.5000  21.2500 Du        
  17757 ****        22.0000  22.7500  20.5000 Du        
  17758 ****        22.0000  22.7500  20.7500 Du        
  17759 ****        22.0000  22.7500  21.0000 Du        
  17760 ****        22.0000  22.7500  21.2500 Du        
  17761 ****        22.0000  22.7500  21.5000 Du        
  17762 ****        22.0000  22.7500  21.7500 Du        
  17763 ****        22.0000  22.7500  22.0000 Du        
  17764 ****        22.0000  22.7500  22.2500 Du        
  17765 ****        22.0000  23.0000  20.5000 Du        
  17766 ****        22.0000  23.0000  20.7500 Du        
  17767 ****        22.0000  23.0000  21.0000 Du        
  17768 ****        22.0000  23.0000  21.2500 Du        
  17769 ****        22.0000  23.0000  21.5000 Du        
  17770 ****        22.0000  23.0000  21.7500 Du        
  17771 ****        22.0000  23.0000  22.0000 Du        
  17772 ****        22.0000  23.0000  22.2500 Du        
  17773 ****        22.0000  23.0000  22.5000 Du        
  17774 ****        22.0000  23.2500  20.5000 Du        
  17775 ****        22.0000  23.2500  20.7500 Du        
  17776 ****        22.0000  23.2500  21.0000 Du        
  17777 ****        22.0000  23.2500  21.2500 Du        
  17778 ****        22.0000  23.2500  21.5000 Du        
  17779 ****        22.0000  23.2500  21.7500 Du        
  17780 ****        22.0000  23.2500  22.0000 Du        
  17781 ****        22.0000  23.2500  22.2500 Du        
  17782 ****        22.0000  23.2500  22.5000 Du        
  17783 ****        22.0000  23.2500  22.7500 Du        
  17784 ****        22.0000  23.5000  20.7500 Du        
  17785 ****        22.0000  23.5000  21.0000 Du        
  17786 ****        22.0000  23.5000  21.2500 Du        
  17787 ****        22.0000  23.5000  21.5000 Du        
  17788 ****        22.0000  23.5000  21.7500 Du        
  17789 ****        22.0000  23.5000  22.0000 Du        
  17790 ****        22.0000  23.5000  22.2500 Du        
  17791 ****        22.0000  23.5000  22.5000 Du        
  17792 ****        22.0000  23.5000  22.7500 Du        
  17793 ****        22.0000  23.7500  20.7500 Du        
  17794 ****        22.0000  23.7500  21.0000 Du        
  17795 ****        22.0000  23.7500  21.2500 Du        
  17796 ****        22.0000  23.7500  21.5000 Du        
  17797 ****        22.0000  23.7500  21.7500 Du        
  17798 ****        22.0000  23.7500  22.0000 Du        
  17799 ****        22.0000  23.7500  22.2500 Du        
  17800 ****        22.0000  23.7500  22.5000 Du        
  17801 ****        22.0000  23.7500  22.7500 Du        
  17802 ****        22.0000  24.0000  21.0000 Du        
  17803 ****        22.0000  24.0000  21.2500 Du        
  17804 ****        22.0000  24.0000  21.5000 Du        
  17805 ****        22.0000  24.0000  21.7500 Du        
  17806 ****        22.0000  24.0000  22.0000 Du        
  17807 ****        22.0000  24.0000  22.2500 Du        
  17808 ****        22.0000  24.0000  22.5000 Du        
  17809 ****        22.0000  24.2500  21.2500 Du        
  17810 ****        22.0000  24.2500  21.5000 Du        
  17811 ****        22.0000  24.2500  21.7500 Du        
  17812 ****        22.0000  24.2500  22.0000 Du        
  17813 ****        22.0000  26.0000   6.7500 Du        
  17814 ****        22.0000  26.0000   7.0000 Du        
  17815 ****        22.0000  26.0000   7.2500 Du        
  17816 ****        22.0000  26.2500   6.7500 Du        
  17817 ****        22.0000  26.2500   7.0000 Du        
  17818 ****        22.0000  26.2500   7.2500 Du        
  17819 ****        22.0000  28.0000  13.7500 Du        
  17820 ****        22.2500  14.2500  18.7500 Du        
  17821 ****        22.2500  14.2500  19.0000 Du        
  17822 ****        22.2500  14.2500  19.2500 Du        
  17823 ****        22.2500  14.5000  18.5000 Du        
  17824 ****        22.2500  14.5000  18.7500 Du        
  17825 ****        22.2500  14.5000  19.0000 Du        
  17826 ****        22.2500  14.5000  19.2500 Du        
  17827 ****        22.2500  14.5000  19.5000 Du        
  17828 ****        22.2500  14.7500  18.5000 Du        
  17829 ****        22.2500  14.7500  18.7500 Du        
  17830 ****        22.2500  14.7500  19.0000 Du        
  17831 ****        22.2500  14.7500  19.2500 Du        
  17832 ****        22.2500  15.0000   9.2500 Du        
  17833 ****        22.2500  15.2500   9.0000 Du        
  17834 ****        22.2500  15.2500   9.2500 Du        
  17835 ****        22.2500  15.5000   9.0000 Du        
  17836 ****        22.2500  15.5000   9.2500 Du        
  17837 ****        22.2500  15.5000   9.5000 Du        
  17838 ****        22.2500  15.5000   9.7500 Du        
  17839 ****        22.2500  15.5000  10.0000 Du        
  17840 ****        22.2500  15.7500   9.0000 Du        
  17841 ****        22.2500  15.7500   9.2500 Du        
  17842 ****        22.2500  15.7500   9.5000 Du        
  17843 ****        22.2500  15.7500   9.7500 Du        
  17844 ****        22.2500  15.7500  10.0000 Du        
  17845 ****        22.2500  22.5000  21.0000 Du        
  17846 ****        22.2500  22.5000  21.2500 Du        
  17847 ****        22.2500  22.7500  20.7500 Du        
  17848 ****        22.2500  22.7500  21.0000 Du        
  17849 ****        22.2500  22.7500  21.2500 Du        
  17850 ****        22.2500  22.7500  21.5000 Du        
  17851 ****        22.2500  22.7500  21.7500 Du        
  17852 ****        22.2500  22.7500  22.0000 Du        
  17853 ****        22.2500  22.7500  22.2500 Du        
  17854 ****        22.2500  22.7500  22.5000 Du        
  17855 ****        22.2500  23.0000  20.7500 Du        
  17856 ****        22.2500  23.0000  21.0000 Du        
  17857 ****        22.2500  23.0000  21.2500 Du        
  17858 ****        22.2500  23.0000  21.5000 Du        
  17859 ****        22.2500  23.0000  21.7500 Du        
  17860 ****        22.2500  23.0000  22.0000 Du        
  17861 ****        22.2500  23.0000  22.2500 Du        
  17862 ****        22.2500  23.0000  22.5000 Du        
  17863 ****        22.2500  23.0000  22.7500 Du        
  17864 ****        22.2500  23.2500  20.7500 Du        
  17865 ****        22.2500  23.2500  21.0000 Du        
  17866 ****        22.2500  23.2500  21.2500 Du        
  17867 ****        22.2500  23.2500  21.5000 Du        
  17868 ****        22.2500  23.2500  21.7500 Du        
  17869 ****        22.2500  23.2500  22.0000 Du        
  17870 ****        22.2500  23.2500  22.2500 Du        
  17871 ****        22.2500  23.2500  22.5000 Du        
  17872 ****        22.2500  23.2500  22.7500 Du        
  17873 ****        22.2500  23.5000  20.7500 Du        
  17874 ****        22.2500  23.5000  21.0000 Du        
  17875 ****        22.2500  23.5000  21.2500 Du        
  17876 ****        22.2500  23.5000  21.5000 Du        
  17877 ****        22.2500  23.5000  21.7500 Du        
  17878 ****        22.2500  23.5000  22.0000 Du        
  17879 ****        22.2500  23.5000  22.2500 Du        
  17880 ****        22.2500  23.5000  22.5000 Du        
  17881 ****        22.2500  23.5000  22.7500 Du        
  17882 ****        22.2500  23.7500  21.0000 Du        
  17883 ****        22.2500  23.7500  21.2500 Du        
  17884 ****        22.2500  23.7500  21.5000 Du        
  17885 ****        22.2500  23.7500  21.7500 Du        
  17886 ****        22.2500  23.7500  22.0000 Du        
  17887 ****        22.2500  23.7500  22.2500 Du        
  17888 ****        22.2500  23.7500  22.5000 Du        
  17889 ****        22.2500  23.7500  22.7500 Du        
  17890 ****        22.2500  24.0000  21.0000 Du        
  17891 ****        22.2500  24.0000  21.2500 Du        
  17892 ****        22.2500  24.0000  21.5000 Du        
  17893 ****        22.2500  24.0000  21.7500 Du        
  17894 ****        22.2500  24.0000  22.0000 Du        
  17895 ****        22.2500  24.0000  22.2500 Du        
  17896 ****        22.2500  24.0000  22.5000 Du        
  17897 ****        22.2500  24.2500  21.2500 Du        
  17898 ****        22.2500  24.2500  21.5000 Du        
  17899 ****        22.2500  24.2500  21.7500 Du        
  17900 ****        22.2500  24.2500  22.0000 Du        
  17901 ****        22.2500  24.2500  22.2500 Du        
  17902 ****        22.2500  27.7500  13.5000 Du        
  17903 ****        22.2500  28.0000  13.5000 Du        
  17904 ****        22.2500  28.0000  13.7500 Du        
  17905 ****        22.2500  28.2500  13.7500 Du        
  17906 ****        22.5000  15.5000   9.2500 Du        
  17907 ****        22.5000  15.5000   9.5000 Du        
  17908 ****        22.5000  15.7500   9.2500 Du        
  17909 ****        22.5000  22.7500  21.7500 Du        
  17910 ****        22.5000  22.7500  22.0000 Du        
  17911 ****        22.5000  22.7500  22.2500 Du        
  17912 ****        22.5000  22.7500  22.5000 Du        
  17913 ****        22.5000  22.7500  22.7500 Du        
  17914 ****        22.5000  23.0000  21.0000 Du        
  17915 ****        22.5000  23.0000  21.2500 Du        
  17916 ****        22.5000  23.0000  21.5000 Du        
  17917 ****        22.5000  23.0000  21.7500 Du        
  17918 ****        22.5000  23.0000  22.0000 Du        
  17919 ****        22.5000  23.0000  22.2500 Du        
  17920 ****        22.5000  23.0000  22.5000 Du        
  17921 ****        22.5000  23.0000  22.7500 Du        
  17922 ****        22.5000  23.2500  21.0000 Du        
  17923 ****        22.5000  23.2500  21.2500 Du        
  17924 ****        22.5000  23.2500  21.5000 Du        
  17925 ****        22.5000  23.2500  21.7500 Du        
  17926 ****        22.5000  23.2500  22.0000 Du        
  17927 ****        22.5000  23.2500  22.2500 Du        
  17928 ****        22.5000  23.2500  22.5000 Du        
  17929 ****        22.5000  23.2500  22.7500 Du        
  17930 ****        22.5000  23.2500  23.0000 Du        
  17931 ****        22.5000  23.5000  21.0000 Du        
  17932 ****        22.5000  23.5000  21.2500 Du        
  17933 ****        22.5000  23.5000  21.5000 Du        
  17934 ****        22.5000  23.5000  21.7500 Du        
  17935 ****        22.5000  23.5000  22.0000 Du        
  17936 ****        22.5000  23.5000  22.2500 Du        
  17937 ****        22.5000  23.5000  22.5000 Du        
  17938 ****        22.5000  23.5000  22.7500 Du        
  17939 ****        22.5000  23.7500  21.0000 Du        
  17940 ****        22.5000  23.7500  21.2500 Du        
  17941 ****        22.5000  23.7500  21.5000 Du        
  17942 ****        22.5000  23.7500  21.7500 Du        
  17943 ****        22.5000  23.7500  22.0000 Du        
  17944 ****        22.5000  23.7500  22.2500 Du        
  17945 ****        22.5000  23.7500  22.5000 Du        
  17946 ****        22.5000  23.7500  22.7500 Du        
  17947 ****        22.5000  24.0000  21.2500 Du        
  17948 ****        22.5000  24.0000  21.5000 Du        
  17949 ****        22.5000  24.0000  21.7500 Du        
  17950 ****        22.5000  24.0000  22.0000 Du        
  17951 ****        22.5000  24.0000  22.2500 Du        
  17952 ****        22.5000  24.0000  22.5000 Du        
  17953 ****        22.5000  24.0000  22.7500 Du        
  17954 ****        22.5000  24.2500  21.5000 Du        
  17955 ****        22.5000  24.2500  21.7500 Du        
  17956 ****        22.5000  24.2500  22.0000 Du        
  17957 ****        22.5000  24.2500  22.2500 Du        
  17958 ****        22.5000  27.7500  12.5000 Du        
  17959 ****        22.5000  27.7500  12.7500 Du        
  17960 ****        22.5000  27.7500  13.0000 Du        
  17961 ****        22.5000  27.7500  13.2500 Du        
  17962 ****        22.5000  27.7500  13.5000 Du        
  17963 ****        22.5000  28.0000  12.7500 Du        
  17964 ****        22.5000  28.0000  13.0000 Du        
  17965 ****        22.5000  28.0000  13.2500 Du        
  17966 ****        22.5000  28.0000  13.5000 Du        
  17967 ****        22.5000  28.0000  13.7500 Du        
  17968 ****        22.5000  28.2500  13.2500 Du        
  17969 ****        22.5000  28.2500  13.5000 Du        
  17970 ****        22.5000  28.2500  13.7500 Du        
  17971 ****        22.7500  22.7500  22.2500 Du        
  17972 ****        22.7500  22.7500  22.5000 Du        
  17973 ****        22.7500  22.7500  22.7500 Du        
  17974 ****        22.7500  23.0000  21.7500 Du        
  17975 ****        22.7500  23.0000  22.0000 Du        
  17976 ****        22.7500  23.0000  22.2500 Du        
  17977 ****        22.7500  23.0000  22.5000 Du        
  17978 ****        22.7500  23.0000  22.7500 Du        
  17979 ****        22.7500  23.0000  23.0000 Du        
  17980 ****        22.7500  23.2500  21.2500 Du        
  17981 ****        22.7500  23.2500  21.5000 Du        
  17982 ****        22.7500  23.2500  21.7500 Du        
  17983 ****        22.7500  23.2500  22.0000 Du        
  17984 ****        22.7500  23.2500  22.2500 Du        
  17985 ****        22.7500  23.2500  22.5000 Du        
  17986 ****        22.7500  23.2500  22.7500 Du        
  17987 ****        22.7500  23.2500  23.0000 Du        
  17988 ****        22.7500  23.5000  21.2500 Du        
  17989 ****        22.7500  23.5000  21.5000 Du        
  17990 ****        22.7500  23.5000  21.7500 Du        
  17991 ****        22.7500  23.5000  22.0000 Du        
  17992 ****        22.7500  23.5000  22.2500 Du        
  17993 ****        22.7500  23.5000  22.5000 Du        
  17994 ****        22.7500  23.5000  22.7500 Du        
  17995 ****        22.7500  23.5000  23.0000 Du        
  17996 ****        22.7500  23.7500  21.2500 Du        
  17997 ****        22.7500  23.7500  21.5000 Du        
  17998 ****        22.7500  23.7500  21.7500 Du        
  17999 ****        22.7500  23.7500  22.0000 Du        
  18000 ****        22.7500  23.7500  22.2500 Du        
  18001 ****        22.7500  23.7500  22.5000 Du        
  18002 ****        22.7500  23.7500  22.7500 Du        
  18003 ****        22.7500  23.7500  23.0000 Du        
  18004 ****        22.7500  24.0000  21.2500 Du        
  18005 ****        22.7500  24.0000  21.5000 Du        
  18006 ****        22.7500  24.0000  21.7500 Du        
  18007 ****        22.7500  24.0000  22.0000 Du        
  18008 ****        22.7500  24.0000  22.2500 Du        
  18009 ****        22.7500  24.0000  22.5000 Du        
  18010 ****        22.7500  24.0000  22.7500 Du        
  18011 ****        22.7500  24.0000  23.0000 Du        
  18012 ****        22.7500  24.2500  21.5000 Du        
  18013 ****        22.7500  24.2500  21.7500 Du        
  18014 ****        22.7500  24.2500  22.0000 Du        
  18015 ****        22.7500  24.2500  22.2500 Du        
  18016 ****        22.7500  27.7500  12.7500 Du        
  18017 ****        22.7500  27.7500  13.0000 Du        
  18018 ****        22.7500  27.7500  13.2500 Du        
  18019 ****        22.7500  27.7500  13.5000 Du        
  18020 ****        22.7500  28.0000  12.5000 Du        
  18021 ****        22.7500  28.0000  12.7500 Du        
  18022 ****        22.7500  28.0000  13.0000 Du        
  18023 ****        22.7500  28.0000  13.2500 Du        
  18024 ****        22.7500  28.0000  13.5000 Du        
  18025 ****        22.7500  28.0000  13.7500 Du        
  18026 ****        22.7500  28.2500  13.0000 Du        
  18027 ****        22.7500  28.2500  13.2500 Du        
  18028 ****        22.7500  28.2500  13.5000 Du        
  18029 ****        22.7500  28.2500  13.7500 Du        
  18030 ****        23.0000  15.5000  15.0000 Du        
  18031 ****        23.0000  22.7500  22.7500 Du        
  18032 ****        23.0000  23.0000  22.2500 Du        
  18033 ****        23.0000  23.0000  22.5000 Du        
  18034 ****        23.0000  23.0000  22.7500 Du        
  18035 ****        23.0000  23.0000  23.0000 Du        
  18036 ****        23.0000  23.2500  22.0000 Du        
  18037 ****        23.0000  23.2500  22.2500 Du        
  18038 ****        23.0000  23.2500  22.5000 Du        
  18039 ****        23.0000  23.2500  22.7500 Du        
  18040 ****        23.0000  23.2500  23.0000 Du        
  18041 ****        23.0000  23.5000  21.7500 Du        
  18042 ****        23.0000  23.5000  22.0000 Du        
  18043 ****        23.0000  23.5000  22.2500 Du        
  18044 ****        23.0000  23.5000  22.5000 Du        
  18045 ****        23.0000  23.5000  22.7500 Du        
  18046 ****        23.0000  23.5000  23.0000 Du        
  18047 ****        23.0000  23.7500  21.5000 Du        
  18048 ****        23.0000  23.7500  21.7500 Du        
  18049 ****        23.0000  23.7500  22.0000 Du        
  18050 ****        23.0000  23.7500  22.2500 Du        
  18051 ****        23.0000  23.7500  22.5000 Du        
  18052 ****        23.0000  23.7500  22.7500 Du        
  18053 ****        23.0000  23.7500  23.0000 Du        
  18054 ****        23.0000  23.7500  23.2500 Du        
  18055 ****        23.0000  24.0000  21.5000 Du        
  18056 ****        23.0000  24.0000  21.7500 Du        
  18057 ****        23.0000  24.0000  22.0000 Du        
  18058 ****        23.0000  24.0000  22.2500 Du        
  18059 ****        23.0000  24.0000  22.5000 Du        
  18060 ****        23.0000  24.0000  22.7500 Du        
  18061 ****        23.0000  24.0000  23.0000 Du        
  18062 ****        23.0000  24.2500  21.7500 Du        
  18063 ****        23.0000  24.2500  22.0000 Du        
  18064 ****        23.0000  24.2500  22.2500 Du        
  18065 ****        23.0000  24.2500  22.5000 Du        
  18066 ****        23.0000  28.2500  13.5000 Du        
  18067 ****        23.2500  15.5000  15.0000 Du        
  18068 ****        23.2500  23.0000  22.7500 Du        
  18069 ****        23.2500  23.0000  23.0000 Du        
  18070 ****        23.2500  23.2500  22.5000 Du        
  18071 ****        23.2500  23.2500  22.7500 Du        
  18072 ****        23.2500  23.2500  23.0000 Du        
  18073 ****        23.2500  23.2500  23.2500 Du        
  18074 ****        23.2500  23.5000  22.2500 Du        
  18075 ****        23.2500  23.5000  22.5000 Du        
  18076 ****        23.2500  23.5000  22.7500 Du        
  18077 ****        23.2500  23.5000  23.0000 Du        
  18078 ****        23.2500  23.5000  23.2500 Du        
  18079 ****        23.2500  23.7500  21.7500 Du        
  18080 ****        23.2500  23.7500  22.0000 Du        
  18081 ****        23.2500  23.7500  22.2500 Du        
  18082 ****        23.2500  23.7500  22.5000 Du        
  18083 ****        23.2500  23.7500  22.7500 Du        
  18084 ****        23.2500  23.7500  23.0000 Du        
  18085 ****        23.2500  23.7500  23.2500 Du        
  18086 ****        23.2500  24.0000  21.7500 Du        
  18087 ****        23.2500  24.0000  22.0000 Du        
  18088 ****        23.2500  24.0000  22.2500 Du        
  18089 ****        23.2500  24.0000  22.5000 Du        
  18090 ****        23.2500  24.0000  22.7500 Du        
  18091 ****        23.2500  24.0000  23.0000 Du        
  18092 ****        23.2500  24.0000  23.2500 Du        
  18093 ****        23.2500  24.2500  21.7500 Du        
  18094 ****        23.2500  24.2500  22.0000 Du        
  18095 ****        23.2500  24.2500  22.2500 Du        
  18096 ****        23.2500  24.2500  22.5000 Du        
  18097 ****        23.2500  24.2500  22.7500 Du        
  18098 ****        23.2500  25.2500   5.2500 Du        
  18099 ****        23.2500  25.2500   5.5000 Du        
  18100 ****        23.2500  25.7500   6.0000 Du        
  18101 ****        23.5000  15.5000  15.0000 Du        
  18102 ****        23.5000  23.0000  23.0000 Du        
  18103 ****        23.5000  23.2500  22.7500 Du        
  18104 ****        23.5000  23.2500  23.0000 Du        
  18105 ****        23.5000  23.2500  23.2500 Du        
  18106 ****        23.5000  23.5000  22.7500 Du        
  18107 ****        23.5000  23.5000  23.0000 Du        
  18108 ****        23.5000  23.5000  23.2500 Du        
  18109 ****        23.5000  23.7500  22.2500 Du        
  18110 ****        23.5000  23.7500  22.5000 Du        
  18111 ****        23.5000  23.7500  22.7500 Du        
  18112 ****        23.5000  23.7500  23.0000 Du        
  18113 ****        23.5000  23.7500  23.2500 Du        
  18114 ****        23.5000  24.0000  22.0000 Du        
  18115 ****        23.5000  24.0000  22.2500 Du        
  18116 ****        23.5000  24.0000  22.5000 Du        
  18117 ****        23.5000  24.0000  22.7500 Du        
  18118 ****        23.5000  24.0000  23.0000 Du        
  18119 ****        23.5000  24.0000  23.2500 Du        
  18120 ****        23.5000  24.2500  22.0000 Du        
  18121 ****        23.5000  24.2500  22.2500 Du        
  18122 ****        23.5000  24.2500  22.5000 Du        
  18123 ****        23.5000  24.2500  22.7500 Du        
  18124 ****        23.5000  24.2500  23.0000 Du        
  18125 ****        23.5000  24.5000  22.2500 Du        
  18126 ****        23.5000  25.0000   5.2500 Du        
  18127 ****        23.5000  25.2500   5.2500 Du        
  18128 ****        23.7500  23.2500  23.0000 Du        
  18129 ****        23.7500  23.2500  23.2500 Du        
  18130 ****        23.7500  23.2500  23.5000 Du        
  18131 ****        23.7500  23.5000  23.0000 Du        
  18132 ****        23.7500  23.5000  23.2500 Du        
  18133 ****        23.7500  23.5000  23.5000 Du        
  18134 ****        23.7500  23.7500  22.5000 Du        
  18135 ****        23.7500  23.7500  22.7500 Du        
  18136 ****        23.7500  23.7500  23.0000 Du        
  18137 ****        23.7500  23.7500  23.2500 Du        
  18138 ****        23.7500  23.7500  23.5000 Du        
  18139 ****        23.7500  24.0000  22.2500 Du        
  18140 ****        23.7500  24.0000  22.5000 Du        
  18141 ****        23.7500  24.0000  22.7500 Du        
  18142 ****        23.7500  24.0000  23.0000 Du        
  18143 ****        23.7500  24.0000  23.2500 Du        
  18144 ****        23.7500  24.2500  22.0000 Du        
  18145 ****        23.7500  24.2500  22.2500 Du        
  18146 ****        23.7500  24.2500  22.5000 Du        
  18147 ****        23.7500  24.2500  22.7500 Du        
  18148 ****        23.7500  24.2500  23.0000 Du        
  18149 ****        23.7500  24.5000  22.2500 Du        
  18150 ****        24.0000  23.5000  23.2500 Du        
  18151 ****        24.0000  23.7500  23.0000 Du        
  18152 ****        24.0000  23.7500  23.2500 Du        
  18153 ****        24.0000  23.7500  23.5000 Du        
  18154 ****        24.0000  24.0000  22.5000 Du        
  18155 ****        24.0000  24.0000  22.7500 Du        
  18156 ****        24.0000  24.0000  23.0000 Du        
  18157 ****        24.0000  24.0000  23.2500 Du        
  18158 ****        24.0000  24.2500  22.2500 Du        
  18159 ****        24.0000  24.2500  22.5000 Du        
  18160 ****        24.0000  24.2500  22.7500 Du        
  18161 ****        24.0000  24.2500  23.0000 Du        
  18162 ****        24.5000  19.2500  25.5000 Du        
  18163 ****        24.7500  19.2500  25.2500 Du        
  18164 ****        24.7500  19.2500  25.5000 Du        
  18165 ****        24.7500  19.5000  25.2500 Du        
  18166 ****        24.7500  19.5000  25.5000 Du        
  18167 ****        24.7500  19.7500  25.5000 Du        
  18168 ****        25.0000  19.2500  25.2500 Du        
  18169 ****        25.0000  19.2500  25.5000 Du        
  18170 ****        25.0000  19.5000  25.2500 Du        
  18171 ****        25.0000  19.5000  25.5000 Du        
  18172 ****        25.0000  19.7500  25.2500 Du        
  18173 ****        25.0000  19.7500  25.5000 Du        
  18174 ****        25.0000  20.0000  25.2500 Du        
  18175 ****        25.0000  20.0000  25.5000 Du        
  18176 ****        25.2500  19.2500  25.2500 Du        
  18177 ****        25.2500  19.2500  25.5000 Du        
  18178 ****        25.2500  19.5000  25.2500 Du        
  18179 ****        25.2500  19.5000  25.5000 Du        
  18180 ****        25.2500  19.7500  25.2500 Du        
  18181 ****        25.2500  19.7500  25.5000 Du        
  18182 ****        25.2500  20.0000  25.5000 Du        
  18183 ****        25.2500  20.2500  25.5000 Du        
  18184 ****        25.5000  19.2500  25.2500 Du        
  18185 ****        25.5000  19.2500  25.5000 Du        
  18186 ****        25.5000  19.5000  25.5000 Du        
  18187 ****        25.5000  19.7500  25.5000 Du        
