#       Name:                CT1002167954
#       Creating user name   hitesit
#       Creation time:       Sun Apr 16 02:21:29 2023


#       File generated by GOLD software.
#

@<TRIPOS>MOLECULE
CT1002167954|ligand_prepared|mol2|1|dock10
    29    30     1
SMALL
NO_CHARGES


@<TRIPOS>ATOM
      1 C1          13.8974  22.9179  16.7428 C.3            1 RES1               0.0000
      2 C2          12.6341  22.7831  17.6172 C.ar           1 RES1               0.0000
      3 C3          13.5866  22.2073  15.4287 C.2            1 RES1               0.0000
      4 C4          14.1566  24.4131  16.5953 C.2            1 RES1               0.0000
      5 C5          15.1586  22.2733  17.3634 C.3            1 RES1               0.0000
      6 C6          11.3749  22.6856  17.0329 C.ar           1 RES1               0.0000
      7 C7          12.7122  22.7523  19.0070 C.ar           1 RES1               0.0000
      8 N8          13.3562  22.9823  14.3304 N.am           1 RES1               0.0000
      9 O9          13.5060  20.9867  15.3658 O.2            1 RES1               0.0000
     10 N10         14.0369  24.9655  15.3470 N.am           1 RES1               0.0000
     11 O11         14.4473  25.1210  17.5517 O.2            1 RES1               0.0000
     12 C12         16.3384  22.1903  16.4077 C.3            1 RES1               0.0000
     13 C13         10.2351  22.5588  17.8096 C.ar           1 RES1               0.0000
     14 C14         11.5711  22.6257  19.7819 C.ar           1 RES1               0.0000
     15 C15         13.6184  24.3237  14.2133 C.2            1 RES1               0.0000
     16 C16         10.3324  22.5283  19.1844 C.ar           1 RES1               0.0000
     17 O17         13.4834  24.9011  13.1384 O.2            1 RES1               0.0000
     18 H18         15.4571  22.8570  18.2429 H              1 RES1               0.0000
     19 H19         14.9072  21.2608  17.7026 H              1 RES1               0.0000
     20 H20         11.2784  22.7102  15.9525 H              1 RES1               0.0000
     21 H21         13.6759  22.8284  19.4989 H              1 RES1               0.0000
     22 H22         12.9514  22.5220  13.5214 H              1 RES1               0.0000
     23 H23         14.2826  25.9460  15.2542 H              1 RES1               0.0000
     24 H24         17.1965  21.7303  16.8931 H              1 RES1               0.0000
     25 H25         16.0848  21.5954  15.5327 H              1 RES1               0.0000
     26 H26         16.6315  23.1821  16.0698 H              1 RES1               0.0000
     27 H27          9.2625  22.4839  17.3345 H              1 RES1               0.0000
     28 H28         11.6523  22.6028  20.8636 H              1 RES1               0.0000
     29 H29          9.4395  22.4286  19.7926 H              1 RES1               0.0000
@<TRIPOS>BOND
    1    1    2 1     
    2    1    3 1     
    3    1    4 1     
    4    1    5 1     
    5    2    6 ar    
    6    2    7 ar    
    7    3    8 1     
    8    3    9 2     
    9    4   10 1     
   10    4   11 2     
   11    5   12 1     
   12    5   18 1     
   13    5   19 1     
   14    6   13 ar    
   15    6   20 1     
   16    7   14 ar    
   17    7   21 1     
   18    8   15 1     
   19    8   22 1     
   20   10   15 1     
   21   10   23 1     
   22   12   24 1     
   23   12   25 1     
   24   12   26 1     
   25   13   16 ar    
   26   13   27 1     
   27   14   16 ar    
   28   14   28 1     
   29   15   17 2     
   30   16   29 1     
@<TRIPOS>SUBSTRUCTURE
      1 RES1           1
@<TRIPOS>SET
DONOR_HYDROGENS      STATIC     ATOMS    <user>   **** ""
2 22 23
ATOM$RED        STATIC     ATOMS    COLORGROUP SYSTEM
2 22 23
@<TRIPOS>COMMENT
> <Gold.Version>
2022.3.0

> <Gold.Id.Protein>
unknown|2h24_cavity_clean|pdb

> <Gold.Protein.RotatedTorsions>
[  863  854  853  851 ] final  158.45 input   59.98 | X-H torsion

> <Gold.Protein.ActiveResidues>
 LEU19   MET22   LEU23   LEU26   ARG27   PHE30   VAL33   PHE37   LEU46   LEU47  
 LEU48   LYS49   GLU50   LEU52   LEU53   PHE56   GLY61   CYS62   LEU65   MET68  
 ILE69   TYR72   VAL76   MET77   ALA80   ILE87   VAL91   LEU94   LEU98   LEU101 
 LEU105  PHE111  LEU112 

> <Gold.Protein.RotatedAtoms>
   13.4712   19.5870   20.2284 H   0  0  0  0  0  0  0  0  0  0  0  0  # atno 863  bound_to 854 
   12.2459   19.1305   21.1968 LP  0  0  0  0  0  0  0  0  0  0  0  0  # atno 2322 bound_to 854 
   12.5010   20.7138   20.8892 LP  0  0  0  0  0  0  0  0  0  0  0  0  # atno 2323 bound_to 854 

> <Gold.Score>
     Fitness  S(hb_ext) S(vdw_ext)  S(hb_int)    S(int)      intcor
     31.76       0.00      23.58       0.00      -0.66      -0.76

> <Gold.Goldscore.Fitness>
31.7608

> <Gold.Goldscore.Internal.Vdw>
-0.8914

> <Gold.Goldscore.Internal.Torsion>
-0.5304

> <Gold.Goldscore.External.Vdw>
23.5811

> <Gold.Goldscore.Internal.HBond>
0.0000

> <Gold.Goldscore.External.HBond>
0.0000

> <Gold.Goldscore.Internal.Correction>
-0.7585

> <Gold.Goldscore.Internal.Vdw.Weighted>
-0.8914

> <Gold.Goldscore.Internal.Torsion.Weighted>
-0.5304

> <Gold.Goldscore.External.Vdw.Weighted>
32.4241

> <Gold.Goldscore.Internal.HBond.Weighted>
0.0000

> <Gold.Goldscore.External.HBond.Weighted>
0.0000

> <Gold.Goldscore.Internal.Correction.Weighted>
-0.7585

> <Gold.Rescore>
     Score     S(PLP)   S(hbond)     S(cho)   S(metal)  DE(clash)   DE(tors)     intcor
     34.36     -36.80       0.00       0.00       0.00       0.72       0.86       ----

> <Gold.PLP.Fitness>
34.3599

> <Gold.PLP.PLP>
-36.7977

> <Gold.PLP.part.hbond>
0.0000

> <Gold.PLP.part.metal>
0.0000

> <Gold.PLP.part.buried>
-3.0471

> <Gold.PLP.part.nonpolar>
-34.4244

> <Gold.PLP.part.repulsive>
0.1066

> <Gold.PLP.ligand.clash>
0.7247

> <Gold.PLP.ligand.torsion>
0.8565

> <Gold.PLP.Chemscore.Hbond>
0.0000

> <Gold.PLP.Chemscore.CHOScore>
0.0000

> <Gold.PLP.Chemscore.Metal>
0.0000

> <Gold.PLP.Chemscore.Internal.Correction>
   9.000000E+99

