#       Name:                CT1002167954
#       Creating user name   hitesit
#       Creation time:       Sun Apr 16 02:21:27 2023


#       File generated by GOLD software.
#

@<TRIPOS>MOLECULE
CT1002167954|ligand_prepared|mol2|1|dock8
    29    30     1
SMALL
NO_CHARGES


@<TRIPOS>ATOM
      1 C1          10.3172  24.4846  20.4819 C.3            1 RES1               0.0000
      2 C2          10.4396  25.9605  20.9128 C.ar           1 RES1               0.0000
      3 C3          11.7415  23.9446  20.3933 C.2            1 RES1               0.0000
      4 C4           9.4575  23.8014  21.5396 C.2            1 RES1               0.0000
      5 C5           9.6314  24.2892  19.1097 C.3            1 RES1               0.0000
      6 C6          11.2399  26.3191  21.9934 C.ar           1 RES1               0.0000
      7 C7           9.7618  26.9729  20.2390 C.ar           1 RES1               0.0000
      8 N8          12.1588  23.0982  21.3779 N.am           1 RES1               0.0000
      9 O9          12.5000  24.2872  19.4947 O.2            1 RES1               0.0000
     10 N10         10.0428  22.8378  22.3185 N.am           1 RES1               0.0000
     11 O11          8.2830  24.1004  21.7168 O.2            1 RES1               0.0000
     12 C12          9.6821  22.8585  18.5971 C.3            1 RES1               0.0000
     13 C13         11.3606  27.6423  22.3845 C.ar           1 RES1               0.0000
     14 C14          9.8836  28.2956  20.6319 C.ar           1 RES1               0.0000
     15 C15         11.3626  22.4769  22.3063 C.2            1 RES1               0.0000
     16 C16         10.6830  28.6314  21.7038 C.ar           1 RES1               0.0000
     17 O17         11.8262  21.6399  23.0754 O.2            1 RES1               0.0000
     18 H18          8.5820  24.5977  19.1922 H              1 RES1               0.0000
     19 H19         10.1168  24.9445  18.3759 H              1 RES1               0.0000
     20 H20         11.7788  25.5543  22.5426 H              1 RES1               0.0000
     21 H21          9.1264  26.7320  19.3935 H              1 RES1               0.0000
     22 H22         13.1549  22.9099  21.4287 H              1 RES1               0.0000
     23 H23          9.4387  22.3436  22.9675 H              1 RES1               0.0000
     24 H24          9.1871  22.7769  17.6317 H              1 RES1               0.0000
     25 H25         10.7118  22.5273  18.4791 H              1 RES1               0.0000
     26 H26          9.1860  22.1826  19.2906 H              1 RES1               0.0000
     27 H27         11.9898  27.9012  23.2296 H              1 RES1               0.0000
     28 H28          9.3480  29.0706  20.0937 H              1 RES1               0.0000
     29 H29         10.7779  29.6679  22.0101 H              1 RES1               0.0000
@<TRIPOS>BOND
    1    1    2 1     
    2    1    3 1     
    3    1    4 1     
    4    1    5 1     
    5    2    6 ar    
    6    2    7 ar    
    7    3    8 1     
    8    3    9 2     
    9    4   10 1     
   10    4   11 2     
   11    5   12 1     
   12    5   18 1     
   13    5   19 1     
   14    6   13 ar    
   15    6   20 1     
   16    7   14 ar    
   17    7   21 1     
   18    8   15 1     
   19    8   22 1     
   20   10   15 1     
   21   10   23 1     
   22   12   24 1     
   23   12   25 1     
   24   12   26 1     
   25   13   16 ar    
   26   13   27 1     
   27   14   16 ar    
   28   14   28 1     
   29   15   17 2     
   30   16   29 1     
@<TRIPOS>SUBSTRUCTURE
      1 RES1           1
@<TRIPOS>SET
DONOR_HYDROGENS      STATIC     ATOMS    <user>   **** ""
2 22 23
ATOM$RED        STATIC     ATOMS    COLORGROUP SYSTEM
2 22 23
@<TRIPOS>COMMENT
> <Gold.Version>
2022.3.0

> <Gold.Id.Protein>
unknown|2h24_cavity_clean|pdb

> <Gold.Protein.RotatedTorsions>
[  863  854  853  851 ] final  -61.08 input   59.98 | X-H torsion

> <Gold.Protein.ActiveResidues>
 LEU19   MET22   LEU23   LEU26   ARG27   PHE30   VAL33   PHE37   LEU46   LEU47  
 LEU48   LYS49   GLU50   LEU52   LEU53   PHE56   GLY61   CYS62   LEU65   MET68  
 ILE69   TYR72   VAL76   MET77   ALA80   ILE87   VAL91   LEU94   LEU98   LEU101 
 LEU105  PHE111  LEU112 

> <Gold.Protein.RotatedAtoms>
   12.2696   20.5593   21.0738 H   0  0  0  0  0  0  0  0  0  0  0  0  # atno 863  bound_to 854 
   13.4828   19.9194   20.1985 LP  0  0  0  0  0  0  0  0  0  0  0  0  # atno 2322 bound_to 854 
   12.4745   18.9455   21.0360 LP  0  0  0  0  0  0  0  0  0  0  0  0  # atno 2323 bound_to 854 

> <Gold.Score>
     Fitness  S(hb_ext) S(vdw_ext)  S(hb_int)    S(int)      intcor
     31.46       0.17      22.83       0.00      -0.10      -0.76

> <Gold.Goldscore.Fitness>
31.4583

> <Gold.Goldscore.Internal.Vdw>
-0.3912

> <Gold.Goldscore.Internal.Torsion>
-0.4718

> <Gold.Goldscore.External.Vdw>
22.8314

> <Gold.Goldscore.Internal.HBond>
0.0000

> <Gold.Goldscore.External.HBond>
0.1696

> <Gold.Goldscore.Internal.Correction>
-0.7585

> <Gold.Goldscore.Hbonds>
donor molecule, donor type, donor heavy atom, donor atom, acceptor molecule, acceptor atom, score
      P1  H   854   863       L1    17  0.08

> <Gold.Goldscore.Internal.Vdw.Weighted>
-0.3912

> <Gold.Goldscore.Internal.Torsion.Weighted>
-0.4718

> <Gold.Goldscore.External.Vdw.Weighted>
31.3932

> <Gold.Goldscore.Internal.HBond.Weighted>
0.0000

> <Gold.Goldscore.External.HBond.Weighted>
0.1696

> <Gold.Goldscore.Internal.Correction.Weighted>
-0.7585

> <Gold.Rescore>
     Score     S(PLP)   S(hbond)     S(cho)   S(metal)  DE(clash)   DE(tors)     intcor
     38.31     -35.90       1.00       0.00       0.00       0.00       0.30       ----

> <Gold.PLP.Fitness>
38.3097

> <Gold.PLP.PLP>
-35.9005

> <Gold.PLP.part.hbond>
-1.0000

> <Gold.PLP.part.metal>
0.0000

> <Gold.PLP.part.buried>
1.7074

> <Gold.PLP.part.nonpolar>
-35.8080

> <Gold.PLP.part.repulsive>
0.0000

> <Gold.PLP.ligand.clash>
0.0000

> <Gold.PLP.ligand.torsion>
0.2954

> <Gold.PLP.Chemscore.Hbond>
1.0000

> <Gold.PLP.Chemscore.CHOScore>
0.0000

> <Gold.PLP.Chemscore.Metal>
0.0000

> <Gold.Chemscore.Hbonds>
donor molecule, donor type, donor heavy atom, donor atom, acceptor molecule, acceptor atom, score
      P1  H   854   863       L1    17  0.02

> <Gold.PLP.Chemscore.Internal.Correction>
   9.000000E+99

