#       Name:                CT1002167954
#       Creating user name   hitesit
#       Creation time:       Sun Apr 16 02:21:20 2023


#       File generated by GOLD software.
#

@<TRIPOS>MOLECULE
CT1002167954|ligand_prepared|mol2|1|dock2
    29    30     1
SMALL
NO_CHARGES


@<TRIPOS>ATOM
      1 C1          12.6789  24.0689  15.6886 C.3            1 RES1               0.0000
      2 C2          11.3713  24.2339  16.4897 C.ar           1 RES1               0.0000
      3 C3          12.8529  25.3532  14.8833 C.2            1 RES1               0.0000
      4 C4          13.7797  23.8239  16.7146 C.2            1 RES1               0.0000
      5 C5          12.6644  22.8728  14.7085 C.3            1 RES1               0.0000
      6 C6          11.1003  25.4187  17.1675 C.ar           1 RES1               0.0000
      7 C7          10.4270  23.2130  16.5579 C.ar           1 RES1               0.0000
      8 N8          13.8090  26.2335  15.2967 N.am           1 RES1               0.0000
      9 O9          12.1356  25.6080  13.9238 O.2            1 RES1               0.0000
     10 N10         14.7571  24.7751  16.8472 N.am           1 RES1               0.0000
     11 O11         13.8004  22.8235  17.4211 O.2            1 RES1               0.0000
     12 C12         13.8980  22.7905  13.8232 C.3            1 RES1               0.0000
     13 C13          9.9264  25.5784  17.8851 C.ar           1 RES1               0.0000
     14 C14          9.2538  23.3747  17.2762 C.ar           1 RES1               0.0000
     15 C15         14.8047  25.9832  16.2064 C.2            1 RES1               0.0000
     16 C16          9.0023  24.5568  17.9396 C.ar           1 RES1               0.0000
     17 O17         15.6872  26.8098  16.4189 O.2            1 RES1               0.0000
     18 H18         12.5818  21.9439  15.2862 H              1 RES1               0.0000
     19 H19         11.7760  22.9504  14.0696 H              1 RES1               0.0000
     20 H20         11.8168  26.2328  17.1381 H              1 RES1               0.0000
     21 H21         10.6041  22.2739  16.0447 H              1 RES1               0.0000
     22 H22         13.7811  27.1640  14.8921 H              1 RES1               0.0000
     23 H23         15.5200  24.5630  17.4823 H              1 RES1               0.0000
     24 H24         13.8369  21.9341  13.1551 H              1 RES1               0.0000
     25 H25         13.9974  23.6877  13.2158 H              1 RES1               0.0000
     26 H26         14.7985  22.6872  14.4252 H              1 RES1               0.0000
     27 H27          9.7338  26.5102  18.4065 H              1 RES1               0.0000
     28 H28          8.5296  22.5678  17.3169 H              1 RES1               0.0000
     29 H29          8.0826  24.6823  18.5014 H              1 RES1               0.0000
@<TRIPOS>BOND
    1    1    2 1     
    2    1    3 1     
    3    1    4 1     
    4    1    5 1     
    5    2    6 ar    
    6    2    7 ar    
    7    3    8 1     
    8    3    9 2     
    9    4   10 1     
   10    4   11 2     
   11    5   12 1     
   12    5   18 1     
   13    5   19 1     
   14    6   13 ar    
   15    6   20 1     
   16    7   14 ar    
   17    7   21 1     
   18    8   15 1     
   19    8   22 1     
   20   10   15 1     
   21   10   23 1     
   22   12   24 1     
   23   12   25 1     
   24   12   26 1     
   25   13   16 ar    
   26   13   27 1     
   27   14   16 ar    
   28   14   28 1     
   29   15   17 2     
   30   16   29 1     
@<TRIPOS>SUBSTRUCTURE
      1 RES1           1
@<TRIPOS>SET
DONOR_HYDROGENS      STATIC     ATOMS    <user>   **** ""
2 22 23
ATOM$RED        STATIC     ATOMS    COLORGROUP SYSTEM
2 22 23
@<TRIPOS>COMMENT
> <Gold.Version>
2022.3.0

> <Gold.Id.Protein>
unknown|2h24_cavity_clean|pdb

> <Gold.Protein.RotatedTorsions>
[  863  854  853  851 ] final -104.57 input   59.98 | X-H torsion

> <Gold.Protein.ActiveResidues>
 LEU19   MET22   LEU23   LEU26   ARG27   PHE30   VAL33   PHE37   LEU46   LEU47  
 LEU48   LYS49   GLU50   LEU52   LEU53   PHE56   GLY61   CYS62   LEU65   MET68  
 ILE69   TYR72   VAL76   MET77   ALA80   ILE87   VAL91   LEU94   LEU98   LEU101 
 LEU105  PHE111  LEU112 

> <Gold.Protein.RotatedAtoms>
   12.7966   20.7377   20.6597 H   0  0  0  0  0  0  0  0  0  0  0  0  # atno 863  bound_to 854 
   13.3616   19.2459   20.3390 LP  0  0  0  0  0  0  0  0  0  0  0  0  # atno 2322 bound_to 854 
   12.0649   19.4393   21.3126 LP  0  0  0  0  0  0  0  0  0  0  0  0  # atno 2323 bound_to 854 

> <Gold.Score>
     Fitness  S(hb_ext) S(vdw_ext)  S(hb_int)    S(int)      intcor
     30.82       0.00      22.57       0.00      -0.21      -0.76

> <Gold.Goldscore.Fitness>
30.8158

> <Gold.Goldscore.Internal.Vdw>
-0.5566

> <Gold.Goldscore.Internal.Torsion>
-0.4195

> <Gold.Goldscore.External.Vdw>
22.5651

> <Gold.Goldscore.Internal.HBond>
0.0000

> <Gold.Goldscore.External.HBond>
0.0000

> <Gold.Goldscore.Internal.Correction>
-0.7650

> <Gold.Goldscore.Internal.Vdw.Weighted>
-0.5566

> <Gold.Goldscore.Internal.Torsion.Weighted>
-0.4195

> <Gold.Goldscore.External.Vdw.Weighted>
31.0270

> <Gold.Goldscore.Internal.HBond.Weighted>
0.0000

> <Gold.Goldscore.External.HBond.Weighted>
0.0000

> <Gold.Goldscore.Internal.Correction.Weighted>
-0.7650

> <Gold.Rescore>
     Score     S(PLP)   S(hbond)     S(cho)   S(metal)  DE(clash)   DE(tors)     intcor
     32.13     -33.34       0.00       0.00       0.00       0.00       0.60       ----

> <Gold.PLP.Fitness>
32.1330

> <Gold.PLP.PLP>
-33.3368

> <Gold.PLP.part.hbond>
0.0000

> <Gold.PLP.part.metal>
0.0000

> <Gold.PLP.part.buried>
0.2281

> <Gold.PLP.part.nonpolar>
-33.6712

> <Gold.PLP.part.repulsive>
0.0000

> <Gold.PLP.ligand.clash>
0.0000

> <Gold.PLP.ligand.torsion>
0.6019

> <Gold.PLP.Chemscore.Hbond>
0.0000

> <Gold.PLP.Chemscore.CHOScore>
0.0000

> <Gold.PLP.Chemscore.Metal>
0.0000

> <Gold.PLP.Chemscore.Internal.Correction>
   9.000000E+99

