#       Name:                CT1002167954
#       Creating user name   hitesit
#       Creation time:       Sun Apr 16 02:21:28 2023


#       File generated by GOLD software.
#

@<TRIPOS>MOLECULE
CT1002167954|ligand_prepared|mol2|1|dock9
    29    30     1
SMALL
NO_CHARGES


@<TRIPOS>ATOM
      1 C1          11.5022  23.7200  17.7213 C.3            1 RES1               0.0000
      2 C2          12.5259  23.1498  16.7185 C.ar           1 RES1               0.0000
      3 C3          12.1424  23.6015  19.1013 C.2            1 RES1               0.0000
      4 C4          11.2294  25.1547  17.2831 C.2            1 RES1               0.0000
      5 C5          10.1547  22.9613  17.7382 C.3            1 RES1               0.0000
      6 C6          12.1360  22.8013  15.4288 C.ar           1 RES1               0.0000
      7 C7          13.8617  22.9692  17.0671 C.ar           1 RES1               0.0000
      8 N8          12.5978  24.7459  19.6869 N.am           1 RES1               0.0000
      9 O9          12.2814  22.5153  19.6500 O.2            1 RES1               0.0000
     10 N10         11.6213  26.1670  18.1195 N.am           1 RES1               0.0000
     11 O11         10.6937  25.4182  16.2136 O.2            1 RES1               0.0000
     12 C12          9.2227  23.3919  18.8598 C.3            1 RES1               0.0000
     13 C13         13.0490  22.2936  14.5195 C.ar           1 RES1               0.0000
     14 C14         14.7731  22.4611  16.1562 C.ar           1 RES1               0.0000
     15 C15         12.3207  26.0286  19.2874 C.2            1 RES1               0.0000
     16 C16         14.3681  22.1236  14.8823 C.ar           1 RES1               0.0000
     17 O17         12.6853  26.9904  19.9575 O.2            1 RES1               0.0000
     18 H18          9.6483  23.1196  16.7780 H              1 RES1               0.0000
     19 H19         10.3553  21.8875  17.8385 H              1 RES1               0.0000
     20 H20         11.1017  22.9258  15.1260 H              1 RES1               0.0000
     21 H21         14.2027  23.2269  18.0640 H              1 RES1               0.0000
     22 H22         13.2000  24.6379  20.4968 H              1 RES1               0.0000
     23 H23         11.3681  27.1112  17.8462 H              1 RES1               0.0000
     24 H24          8.2924  22.8287  18.8258 H              1 RES1               0.0000
     25 H25          9.6846  23.2249  19.8307 H              1 RES1               0.0000
     26 H26          8.9818  24.4496  18.7765 H              1 RES1               0.0000
     27 H27         12.7250  22.0282  13.5186 H              1 RES1               0.0000
     28 H28         15.8102  22.3284  16.4463 H              1 RES1               0.0000
     29 H29         15.0833  21.7262  14.1697 H              1 RES1               0.0000
@<TRIPOS>BOND
    1    1    2 1     
    2    1    3 1     
    3    1    4 1     
    4    1    5 1     
    5    2    6 ar    
    6    2    7 ar    
    7    3    8 1     
    8    3    9 2     
    9    4   10 1     
   10    4   11 2     
   11    5   12 1     
   12    5   18 1     
   13    5   19 1     
   14    6   13 ar    
   15    6   20 1     
   16    7   14 ar    
   17    7   21 1     
   18    8   15 1     
   19    8   22 1     
   20   10   15 1     
   21   10   23 1     
   22   12   24 1     
   23   12   25 1     
   24   12   26 1     
   25   13   16 ar    
   26   13   27 1     
   27   14   16 ar    
   28   14   28 1     
   29   15   17 2     
   30   16   29 1     
@<TRIPOS>SUBSTRUCTURE
      1 RES1           1
@<TRIPOS>SET
DONOR_HYDROGENS      STATIC     ATOMS    <user>   **** ""
2 22 23
ATOM$RED        STATIC     ATOMS    COLORGROUP SYSTEM
2 22 23
@<TRIPOS>COMMENT
> <Gold.Version>
2022.3.0

> <Gold.Id.Protein>
unknown|2h24_cavity_clean|pdb

> <Gold.Protein.RotatedTorsions>
[  863  854  853  851 ] final -121.40 input   59.98 | X-H torsion

> <Gold.Protein.ActiveResidues>
 LEU19   MET22   LEU23   LEU26   ARG27   PHE30   VAL33   PHE37   LEU46   LEU47  
 LEU48   LYS49   GLU50   LEU52   LEU53   PHE56   GLY61   CYS62   LEU65   MET68  
 ILE69   TYR72   VAL76   MET77   ALA80   ILE87   VAL91   LEU94   LEU98   LEU101 
 LEU105  PHE111  LEU112 

> <Gold.Protein.RotatedAtoms>
   13.0094   20.6658   20.5028 H   0  0  0  0  0  0  0  0  0  0  0  0  # atno 863  bound_to 854 
   13.2124   19.0518   20.4665 LP  0  0  0  0  0  0  0  0  0  0  0  0  # atno 2322 bound_to 854 
   11.9997   19.7057   21.3431 LP  0  0  0  0  0  0  0  0  0  0  0  0  # atno 2323 bound_to 854 

> <Gold.Score>
     Fitness  S(hb_ext) S(vdw_ext)  S(hb_int)    S(int)      intcor
     28.55       0.03      21.61       0.00      -1.20      -0.76

> <Gold.Goldscore.Fitness>
28.5516

> <Gold.Goldscore.Internal.Vdw>
-1.4743

> <Gold.Goldscore.Internal.Torsion>
-0.4824

> <Gold.Goldscore.External.Vdw>
21.6133

> <Gold.Goldscore.Internal.HBond>
0.0000

> <Gold.Goldscore.External.HBond>
0.0315

> <Gold.Goldscore.Internal.Correction>
-0.7585

> <Gold.Goldscore.Hbonds>
donor molecule, donor type, donor heavy atom, donor atom, acceptor molecule, acceptor atom, score
      P1  H   854   863       L1     9  0.02

> <Gold.Goldscore.Internal.Vdw.Weighted>
-1.4743

> <Gold.Goldscore.Internal.Torsion.Weighted>
-0.4824

> <Gold.Goldscore.External.Vdw.Weighted>
29.7182

> <Gold.Goldscore.Internal.HBond.Weighted>
0.0000

> <Gold.Goldscore.External.HBond.Weighted>
0.0315

> <Gold.Goldscore.Internal.Correction.Weighted>
-0.7585

> <Gold.Rescore>
     Score     S(PLP)   S(hbond)     S(cho)   S(metal)  DE(clash)   DE(tors)     intcor
     38.76     -37.71       0.83       0.00       0.00       1.21       0.12       ----

> <Gold.PLP.Fitness>
38.7552

> <Gold.PLP.PLP>
-37.7123

> <Gold.PLP.part.hbond>
-1.0000

> <Gold.PLP.part.metal>
0.0000

> <Gold.PLP.part.buried>
-1.6565

> <Gold.PLP.part.nonpolar>
-34.7517

> <Gold.PLP.part.repulsive>
0.0000

> <Gold.PLP.ligand.clash>
1.2052

> <Gold.PLP.ligand.torsion>
0.1200

> <Gold.PLP.Chemscore.Hbond>
0.8294

> <Gold.PLP.Chemscore.CHOScore>
0.0000

> <Gold.PLP.Chemscore.Metal>
0.0000

> <Gold.Chemscore.Hbonds>
donor molecule, donor type, donor heavy atom, donor atom, acceptor molecule, acceptor atom, score
      P1  H   854   863       L1     9  0.45

> <Gold.PLP.Chemscore.Internal.Correction>
   9.000000E+99

