#       Name:                CT1002167954
#       Creating user name   hitesit
#       Creation time:       Sun Apr 16 02:21:19 2023


#       File generated by GOLD software.
#

@<TRIPOS>MOLECULE
CT1002167954|ligand_prepared|mol2|1|dock1
    29    30     1
SMALL
NO_CHARGES


@<TRIPOS>ATOM
      1 C1          10.7777  24.4063  18.1930 C.3            1 RES1               0.0000
      2 C2          11.3818  23.8303  16.8961 C.ar           1 RES1               0.0000
      3 C3           9.2964  24.0407  18.1749 C.2            1 RES1               0.0000
      4 C4          11.5591  23.7799  19.3426 C.2            1 RES1               0.0000
      5 C5          10.9028  25.9431  18.3117 C.3            1 RES1               0.0000
      6 C6          12.5932  24.3083  16.4054 C.ar           1 RES1               0.0000
      7 C7          10.7420  22.8205  16.1822 C.ar           1 RES1               0.0000
      8 N8           8.8793  23.0519  19.0164 N.am           1 RES1               0.0000
      9 O9           8.5134  24.5842  17.4057 O.2            1 RES1               0.0000
     10 N10         10.8898  22.9349  20.1887 N.am           1 RES1               0.0000
     11 O11         12.7523  23.9974  19.5136 O.2            1 RES1               0.0000
     12 C12         10.0670  26.5416  19.4321 C.3            1 RES1               0.0000
     13 C13         13.1464  23.7935  15.2446 C.ar           1 RES1               0.0000
     14 C14         11.2968  22.3074  15.0215 C.ar           1 RES1               0.0000
     15 C15          9.5928  22.5185  20.0595 C.2            1 RES1               0.0000
     16 C16         12.4989  22.7926  14.5522 C.ar           1 RES1               0.0000
     17 O17          9.0772  21.7137  20.8301 O.2            1 RES1               0.0000
     18 H18         11.9559  26.1996  18.4810 H              1 RES1               0.0000
     19 H19         10.5959  26.3969  17.3612 H              1 RES1               0.0000
     20 H20         13.1160  25.0974  16.9354 H              1 RES1               0.0000
     21 H21          9.7948  22.4243  16.5320 H              1 RES1               0.0000
     22 H22          7.9511  22.6740  18.8552 H              1 RES1               0.0000
     23 H23         11.4063  22.5840  20.9889 H              1 RES1               0.0000
     24 H24         10.1913  27.6218  19.4714 H              1 RES1               0.0000
     25 H25          9.0109  26.3273  19.2823 H              1 RES1               0.0000
     26 H26         10.3628  26.1312  20.3954 H              1 RES1               0.0000
     27 H27         14.0920  24.1798  14.8787 H              1 RES1               0.0000
     28 H28         10.7835  21.5200  14.4794 H              1 RES1               0.0000
     29 H29         12.9327  22.3892  13.6431 H              1 RES1               0.0000
@<TRIPOS>BOND
    1    1    2 1     
    2    1    3 1     
    3    1    4 1     
    4    1    5 1     
    5    2    6 ar    
    6    2    7 ar    
    7    3    8 1     
    8    3    9 2     
    9    4   10 1     
   10    4   11 2     
   11    5   12 1     
   12    5   18 1     
   13    5   19 1     
   14    6   13 ar    
   15    6   20 1     
   16    7   14 ar    
   17    7   21 1     
   18    8   15 1     
   19    8   22 1     
   20   10   15 1     
   21   10   23 1     
   22   12   24 1     
   23   12   25 1     
   24   12   26 1     
   25   13   16 ar    
   26   13   27 1     
   27   14   16 ar    
   28   14   28 1     
   29   15   17 2     
   30   16   29 1     
@<TRIPOS>SUBSTRUCTURE
      1 RES1           1
@<TRIPOS>SET
DONOR_HYDROGENS      STATIC     ATOMS    <user>   **** ""
2 22 23
ATOM$RED        STATIC     ATOMS    COLORGROUP SYSTEM
2 22 23
@<TRIPOS>COMMENT
> <Gold.Version>
2022.3.0

> <Gold.Id.Protein>
unknown|2h24_cavity_clean|pdb

> <Gold.Protein.RotatedTorsions>
[  863  854  853  851 ] final  -34.75 input   59.98 | X-H torsion

> <Gold.Protein.ActiveResidues>
 LEU19   MET22   LEU23   LEU26   ARG27   PHE30   VAL33   PHE37   LEU46   LEU47  
 LEU48   LYS49   GLU50   LEU52   LEU53   PHE56   GLY61   CYS62   LEU65   MET68  
 ILE69   TYR72   VAL76   MET77   ALA80   ILE87   VAL91   LEU94   LEU98   LEU101 
 LEU105  PHE111  LEU112 

> <Gold.Protein.RotatedAtoms>
   12.0621   20.2340   21.2551 H   0  0  0  0  0  0  0  0  0  0  0  0  # atno 863  bound_to 854 
   13.3530   20.3227   20.2685 LP  0  0  0  0  0  0  0  0  0  0  0  0  # atno 2322 bound_to 854 
   12.8134   18.8699   20.7833 LP  0  0  0  0  0  0  0  0  0  0  0  0  # atno 2323 bound_to 854 

> <Gold.Score>
     Fitness  S(hb_ext) S(vdw_ext)  S(hb_int)    S(int)      intcor
     31.76       0.00      23.89       0.00      -1.09      -0.76

> <Gold.Goldscore.Fitness>
31.7585

> <Gold.Goldscore.Internal.Vdw>
-1.2586

> <Gold.Goldscore.Internal.Torsion>
-0.5957

> <Gold.Goldscore.External.Vdw>
23.8893

> <Gold.Goldscore.Internal.HBond>
0.0000

> <Gold.Goldscore.External.HBond>
0.0000

> <Gold.Goldscore.Internal.Correction>
-0.7650

> <Gold.Goldscore.Internal.Vdw.Weighted>
-1.2586

> <Gold.Goldscore.Internal.Torsion.Weighted>
-0.5957

> <Gold.Goldscore.External.Vdw.Weighted>
32.8478

> <Gold.Goldscore.Internal.HBond.Weighted>
0.0000

> <Gold.Goldscore.External.HBond.Weighted>
0.0000

> <Gold.Goldscore.Internal.Correction.Weighted>
-0.7650

> <Gold.Rescore>
     Score     S(PLP)   S(hbond)     S(cho)   S(metal)  DE(clash)   DE(tors)     intcor
     37.82     -39.49       0.00       0.00       0.00       1.20       0.23       ----

> <Gold.PLP.Fitness>
37.8187

> <Gold.PLP.PLP>
-39.4852

> <Gold.PLP.part.hbond>
0.0000

> <Gold.PLP.part.metal>
0.0000

> <Gold.PLP.part.buried>
-4.7574

> <Gold.PLP.part.nonpolar>
-35.9020

> <Gold.PLP.part.repulsive>
0.0000

> <Gold.PLP.ligand.clash>
1.1974

> <Gold.PLP.ligand.torsion>
0.2346

> <Gold.PLP.Chemscore.Hbond>
0.0000

> <Gold.PLP.Chemscore.CHOScore>
0.0000

> <Gold.PLP.Chemscore.Metal>
0.0000

> <Gold.PLP.Chemscore.Internal.Correction>
   9.000000E+99

