#       Name:                CT1002167954
#       Creating user name   hitesit
#       Creation time:       Sun Apr 16 02:21:22 2023


#       File generated by GOLD software.
#

@<TRIPOS>MOLECULE
CT1002167954|ligand_prepared|mol2|1|dock4
    29    30     1
SMALL
NO_CHARGES


@<TRIPOS>ATOM
      1 C1          12.4675  24.5535  15.5324 C.3            1 RES1               0.0000
      2 C2          11.2164  24.5157  16.4335 C.ar           1 RES1               0.0000
      3 C3          13.6707  24.5753  16.4706 C.2            1 RES1               0.0000
      4 C4          12.3923  23.3153  14.6460 C.2            1 RES1               0.0000
      5 C5          12.5385  25.7953  14.6136 C.3            1 RES1               0.0000
      6 C6          10.7331  25.6795  17.0241 C.ar           1 RES1               0.0000
      7 C7          10.5344  23.3273  16.6809 C.ar           1 RES1               0.0000
      8 N8          14.4048  23.4315  16.5834 N.am           1 RES1               0.0000
      9 O9          13.9478  25.5687  17.1314 O.2            1 RES1               0.0000
     10 N10         13.3503  22.3493  14.8096 N.am           1 RES1               0.0000
     11 O11         11.5024  23.1598  13.8188 O.2            1 RES1               0.0000
     12 C12         13.5033  25.6415  13.4484 C.3            1 RES1               0.0000
     13 C13          9.6072  25.6567  17.8304 C.ar           1 RES1               0.0000
     14 C14          9.4088  23.3067  17.4878 C.ar           1 RES1               0.0000
     15 C15         14.3353  22.3372  15.7592 C.2            1 RES1               0.0000
     16 C16          8.9441  24.4705  18.0624 C.ar           1 RES1               0.0000
     17 O17         15.1267  21.4063  15.8789 O.2            1 RES1               0.0000
     18 H18         11.5361  25.9992  14.2174 H              1 RES1               0.0000
     19 H19         12.8446  26.6613  15.2134 H              1 RES1               0.0000
     20 H20         11.2433  26.6220  16.8550 H              1 RES1               0.0000
     21 H21         10.8826  22.3993  16.2402 H              1 RES1               0.0000
     22 H22         15.0667  23.3856  17.3516 H              1 RES1               0.0000
     23 H23         13.3271  21.5667  14.1635 H              1 RES1               0.0000
     24 H24         13.5147  26.5405  12.8358 H              1 RES1               0.0000
     25 H25         14.5151  25.4625  13.8063 H              1 RES1               0.0000
     26 H26         13.2143  24.8043  12.8163 H              1 RES1               0.0000
     27 H27          9.2464  26.5752  18.2815 H              1 RES1               0.0000
     28 H28          8.8904  22.3707  17.6681 H              1 RES1               0.0000
     29 H29          8.0619  24.4530  18.6938 H              1 RES1               0.0000
@<TRIPOS>BOND
    1    1    2 1     
    2    1    3 1     
    3    1    4 1     
    4    1    5 1     
    5    2    6 ar    
    6    2    7 ar    
    7    3    8 1     
    8    3    9 2     
    9    4   10 1     
   10    4   11 2     
   11    5   12 1     
   12    5   18 1     
   13    5   19 1     
   14    6   13 ar    
   15    6   20 1     
   16    7   14 ar    
   17    7   21 1     
   18    8   15 1     
   19    8   22 1     
   20   10   15 1     
   21   10   23 1     
   22   12   24 1     
   23   12   25 1     
   24   12   26 1     
   25   13   16 ar    
   26   13   27 1     
   27   14   16 ar    
   28   14   28 1     
   29   15   17 2     
   30   16   29 1     
@<TRIPOS>SUBSTRUCTURE
      1 RES1           1
@<TRIPOS>SET
DONOR_HYDROGENS      STATIC     ATOMS    <user>   **** ""
2 22 23
ATOM$RED        STATIC     ATOMS    COLORGROUP SYSTEM
2 22 23
@<TRIPOS>COMMENT
> <Gold.Version>
2022.3.0

> <Gold.Id.Protein>
unknown|2h24_cavity_clean|pdb

> <Gold.Protein.RotatedTorsions>
[  863  854  853  851 ] final  -34.47 input   59.98 | X-H torsion

> <Gold.Protein.ActiveResidues>
 LEU19   MET22   LEU23   LEU26   ARG27   PHE30   VAL33   PHE37   LEU46   LEU47  
 LEU48   LYS49   GLU50   LEU52   LEU53   PHE56   GLY61   CYS62   LEU65   MET68  
 ILE69   TYR72   VAL76   MET77   ALA80   ILE87   VAL91   LEU94   LEU98   LEU101 
 LEU105  PHE111  LEU112 

> <Gold.Protein.RotatedAtoms>
   12.0606   20.2298   21.2565 H   0  0  0  0  0  0  0  0  0  0  0  0  # atno 863  bound_to 854 
   13.3508   20.3266   20.2699 LP  0  0  0  0  0  0  0  0  0  0  0  0  # atno 2322 bound_to 854 
   12.8171   18.8702   20.7805 LP  0  0  0  0  0  0  0  0  0  0  0  0  # atno 2323 bound_to 854 

> <Gold.Score>
     Fitness  S(hb_ext) S(vdw_ext)  S(hb_int)    S(int)      intcor
     30.64       0.00      23.24       0.00      -1.32      -0.76

> <Gold.Goldscore.Fitness>
30.6372

> <Gold.Goldscore.Internal.Vdw>
-1.2535

> <Gold.Goldscore.Internal.Torsion>
-0.8354

> <Gold.Goldscore.External.Vdw>
23.2445

> <Gold.Goldscore.Internal.HBond>
0.0000

> <Gold.Goldscore.External.HBond>
0.0000

> <Gold.Goldscore.Internal.Correction>
-0.7650

> <Gold.Goldscore.Internal.Vdw.Weighted>
-1.2535

> <Gold.Goldscore.Internal.Torsion.Weighted>
-0.8354

> <Gold.Goldscore.External.Vdw.Weighted>
31.9612

> <Gold.Goldscore.Internal.HBond.Weighted>
0.0000

> <Gold.Goldscore.External.HBond.Weighted>
0.0000

> <Gold.Goldscore.Internal.Correction.Weighted>
-0.7650

> <Gold.Rescore>
     Score     S(PLP)   S(hbond)     S(cho)   S(metal)  DE(clash)   DE(tors)     intcor
     35.39     -37.38       0.00       0.00       0.00       0.07       0.96       ----

> <Gold.PLP.Fitness>
35.3865

> <Gold.PLP.PLP>
-37.3836

> <Gold.PLP.part.hbond>
0.0000

> <Gold.PLP.part.metal>
0.0000

> <Gold.PLP.part.buried>
-3.9039

> <Gold.PLP.part.nonpolar>
-33.6496

> <Gold.PLP.part.repulsive>
0.1009

> <Gold.PLP.ligand.clash>
0.0701

> <Gold.PLP.ligand.torsion>
0.9635

> <Gold.PLP.Chemscore.Hbond>
0.0000

> <Gold.PLP.Chemscore.CHOScore>
0.0000

> <Gold.PLP.Chemscore.Metal>
0.0000

> <Gold.PLP.Chemscore.Internal.Correction>
   9.000000E+99

