#       Name:                CT1002167954
#       Creating user name   hitesit
#       Creation time:       Sun Apr 16 02:21:21 2023


#       File generated by GOLD software.
#

@<TRIPOS>MOLECULE
CT1002167954|ligand_prepared|mol2|1|dock3
    29    30     1
SMALL
NO_CHARGES


@<TRIPOS>ATOM
      1 C1          12.6671  24.0987  15.6661 C.3            1 RES1               0.0000
      2 C2          11.3653  24.3168  16.4639 C.ar           1 RES1               0.0000
      3 C3          12.8931  25.3733  14.8583 C.2            1 RES1               0.0000
      4 C4          13.7553  23.8131  16.6951 C.2            1 RES1               0.0000
      5 C5          12.6078  22.9017  14.6887 C.3            1 RES1               0.0000
      6 C6          10.4073  23.3106  16.5457 C.ar           1 RES1               0.0000
      7 C7          11.1098  25.5156  17.1244 C.ar           1 RES1               0.0000
      8 N8          13.8821  26.2163  15.2717 N.am           1 RES1               0.0000
      9 O9          12.1884  25.6537  13.8965 O.2            1 RES1               0.0000
     10 N10         14.7690  24.7256  16.8277 N.am           1 RES1               0.0000
     11 O11         13.7352  22.8144  17.4040 O.2            1 RES1               0.0000
     12 C12         13.8165  22.7984  13.7719 C.3            1 RES1               0.0000
     13 C13          9.2376  23.4951  17.2642 C.ar           1 RES1               0.0000
     14 C14          9.9394  25.6980  17.8422 C.ar           1 RES1               0.0000
     15 C15         14.8653  25.9293  16.1843 C.2            1 RES1               0.0000
     16 C16          9.0031  24.6885  17.9132 C.ar           1 RES1               0.0000
     17 O17         15.7790  26.7212  16.3969 O.2            1 RES1               0.0000
     18 H18         12.5253  21.9750  15.2700 H              1 RES1               0.0000
     19 H19         11.7044  22.9929  14.0731 H              1 RES1               0.0000
     20 H20         10.5733  22.3656  16.0394 H              1 RES1               0.0000
     21 H21         11.8317  26.3241  17.0814 H              1 RES1               0.0000
     22 H22         13.8916  27.1462  14.8649 H              1 RES1               0.0000
     23 H23         15.5215  24.4852  17.4651 H              1 RES1               0.0000
     24 H24         13.7241  21.9422  13.1070 H              1 RES1               0.0000
     25 H25         13.9145  23.6931  13.1606 H              1 RES1               0.0000
     26 H26         14.7305  22.6812  14.3503 H              1 RES1               0.0000
     27 H27          8.5033  22.6980  17.3158 H              1 RES1               0.0000
     28 H28          9.7586  26.6392  18.3509 H              1 RES1               0.0000
     29 H29          8.0869  24.8326  18.4763 H              1 RES1               0.0000
@<TRIPOS>BOND
    1    1    2 1     
    2    1    3 1     
    3    1    4 1     
    4    1    5 1     
    5    2    6 ar    
    6    2    7 ar    
    7    3    8 1     
    8    3    9 2     
    9    4   10 1     
   10    4   11 2     
   11    5   12 1     
   12    5   18 1     
   13    5   19 1     
   14    6   13 ar    
   15    6   20 1     
   16    7   14 ar    
   17    7   21 1     
   18    8   15 1     
   19    8   22 1     
   20   10   15 1     
   21   10   23 1     
   22   12   24 1     
   23   12   25 1     
   24   12   26 1     
   25   13   16 ar    
   26   13   27 1     
   27   14   16 ar    
   28   14   28 1     
   29   15   17 2     
   30   16   29 1     
@<TRIPOS>SUBSTRUCTURE
      1 RES1           1
@<TRIPOS>SET
DONOR_HYDROGENS      STATIC     ATOMS    <user>   **** ""
2 22 23
ATOM$RED        STATIC     ATOMS    COLORGROUP SYSTEM
2 22 23
@<TRIPOS>COMMENT
> <Gold.Version>
2022.3.0

> <Gold.Id.Protein>
unknown|2h24_cavity_clean|pdb

> <Gold.Protein.RotatedTorsions>
[  863  854  853  851 ] final -144.50 input   59.98 | X-H torsion

> <Gold.Protein.ActiveResidues>
 LEU19   MET22   LEU23   LEU26   ARG27   PHE30   VAL33   PHE37   LEU46   LEU47  
 LEU48   LYS49   GLU50   LEU52   LEU53   PHE56   GLY61   CYS62   LEU65   MET68  
 ILE69   TYR72   VAL76   MET77   ALA80   ILE87   VAL91   LEU94   LEU98   LEU101 
 LEU105  PHE111  LEU112 

> <Gold.Protein.RotatedAtoms>
   13.2605   20.4502   20.3270 H   0  0  0  0  0  0  0  0  0  0  0  0  # atno 863  bound_to 854 
   12.9452   18.8937   20.6813 LP  0  0  0  0  0  0  0  0  0  0  0  0  # atno 2322 bound_to 854 
   12.0139   20.0811   21.3054 LP  0  0  0  0  0  0  0  0  0  0  0  0  # atno 2323 bound_to 854 

> <Gold.Score>
     Fitness  S(hb_ext) S(vdw_ext)  S(hb_int)    S(int)      intcor
     30.38       0.00      22.60       0.00      -0.69      -0.76

> <Gold.Goldscore.Fitness>
30.3811

> <Gold.Goldscore.Internal.Vdw>
-0.9896

> <Gold.Goldscore.Internal.Torsion>
-0.4663

> <Gold.Goldscore.External.Vdw>
22.5979

> <Gold.Goldscore.Internal.HBond>
0.0000

> <Gold.Goldscore.External.HBond>
0.0000

> <Gold.Goldscore.Internal.Correction>
-0.7650

> <Gold.Goldscore.Internal.Vdw.Weighted>
-0.9896

> <Gold.Goldscore.Internal.Torsion.Weighted>
-0.4663

> <Gold.Goldscore.External.Vdw.Weighted>
31.0722

> <Gold.Goldscore.Internal.HBond.Weighted>
0.0000

> <Gold.Goldscore.External.HBond.Weighted>
0.0000

> <Gold.Goldscore.Internal.Correction.Weighted>
-0.7650

> <Gold.Rescore>
     Score     S(PLP)   S(hbond)     S(cho)   S(metal)  DE(clash)   DE(tors)     intcor
     31.59     -31.83       0.00       0.00       0.00       0.00       0.12       ----

> <Gold.PLP.Fitness>
31.5870

> <Gold.PLP.PLP>
-31.8344

> <Gold.PLP.part.hbond>
0.0000

> <Gold.PLP.part.metal>
0.0000

> <Gold.PLP.part.buried>
0.7197

> <Gold.PLP.part.nonpolar>
-33.0425

> <Gold.PLP.part.repulsive>
0.0000

> <Gold.PLP.ligand.clash>
0.0000

> <Gold.PLP.ligand.torsion>
0.1237

> <Gold.PLP.Chemscore.Hbond>
0.0000

> <Gold.PLP.Chemscore.CHOScore>
0.0000

> <Gold.PLP.Chemscore.Metal>
0.0000

> <Gold.PLP.Chemscore.Internal.Correction>
   9.000000E+99

