#       Name:                CT1002167954
#       Creating user name   hitesit
#       Creation time:       Sun Apr 16 02:21:24 2023


#       File generated by GOLD software.
#

@<TRIPOS>MOLECULE
CT1002167954|ligand_prepared|mol2|1|dock5
    29    30     1
SMALL
NO_CHARGES


@<TRIPOS>ATOM
      1 C1          11.0622  24.7274  17.9080 C.3            1 RES1               0.0000
      2 C2          11.7490  24.3395  16.5826 C.ar           1 RES1               0.0000
      3 C3           9.5601  24.6476  17.6515 C.2            1 RES1               0.0000
      4 C4          11.5678  23.7411  18.9550 C.2            1 RES1               0.0000
      5 C5          11.4024  26.1557  18.3934 C.3            1 RES1               0.0000
      6 C6          11.5369  23.0869  16.0146 C.ar           1 RES1               0.0000
      7 C7          12.5937  25.2231  15.9160 C.ar           1 RES1               0.0000
      8 N8           8.8819  23.5950  18.1918 N.am           1 RES1               0.0000
      9 O9           8.9864  25.4741  16.9529 O.2            1 RES1               0.0000
     10 N10         10.6642  22.8712  19.5069 N.am           1 RES1               0.0000
     11 O11         12.7437  23.6982  19.2949 O.2            1 RES1               0.0000
     12 C12         10.6980  26.5493  19.6823 C.3            1 RES1               0.0000
     13 C13         12.1448  22.7314  14.8220 C.ar           1 RES1               0.0000
     14 C14         13.2009  24.8656  14.7236 C.ar           1 RES1               0.0000
     15 C15          9.3504  22.7329  19.1504 C.2            1 RES1               0.0000
     16 C16         12.9768  23.6205  14.1755 C.ar           1 RES1               0.0000
     17 O17          8.6139  21.8900  19.6547 O.2            1 RES1               0.0000
     18 H18         12.4862  26.2275  18.5472 H              1 RES1               0.0000
     19 H19         11.1271  26.8705  17.6082 H              1 RES1               0.0000
     20 H20         10.8873  22.3731  16.5102 H              1 RES1               0.0000
     21 H21         12.7855  26.2076  16.3292 H              1 RES1               0.0000
     22 H22          7.9392  23.4339  17.8516 H              1 RES1               0.0000
     23 H23         11.0022  22.2713  20.2527 H              1 RES1               0.0000
     24 H24         10.9716  27.5599  19.9782 H              1 RES1               0.0000
     25 H25          9.6177  26.5133  19.5579 H              1 RES1               0.0000
     26 H26         10.9688  25.8741  20.4914 H              1 RES1               0.0000
     27 H27         11.9662  21.7499  14.3955 H              1 RES1               0.0000
     28 H28         13.8554  25.5682  14.2185 H              1 RES1               0.0000
     29 H29         13.4526  23.3420  13.2410 H              1 RES1               0.0000
@<TRIPOS>BOND
    1    1    2 1     
    2    1    3 1     
    3    1    4 1     
    4    1    5 1     
    5    2    6 ar    
    6    2    7 ar    
    7    3    8 1     
    8    3    9 2     
    9    4   10 1     
   10    4   11 2     
   11    5   12 1     
   12    5   18 1     
   13    5   19 1     
   14    6   13 ar    
   15    6   20 1     
   16    7   14 ar    
   17    7   21 1     
   18    8   15 1     
   19    8   22 1     
   20   10   15 1     
   21   10   23 1     
   22   12   24 1     
   23   12   25 1     
   24   12   26 1     
   25   13   16 ar    
   26   13   27 1     
   27   14   16 ar    
   28   14   28 1     
   29   15   17 2     
   30   16   29 1     
@<TRIPOS>SUBSTRUCTURE
      1 RES1           1
@<TRIPOS>SET
DONOR_HYDROGENS      STATIC     ATOMS    <user>   **** ""
2 22 23
ATOM$RED        STATIC     ATOMS    COLORGROUP SYSTEM
2 22 23
@<TRIPOS>COMMENT
> <Gold.Version>
2022.3.0

> <Gold.Id.Protein>
unknown|2h24_cavity_clean|pdb

> <Gold.Protein.RotatedTorsions>
[  863  854  853  851 ] final -112.23 input   59.98 | X-H torsion

> <Gold.Protein.ActiveResidues>
 LEU19   MET22   LEU23   LEU26   ARG27   PHE30   VAL33   PHE37   LEU46   LEU47  
 LEU48   LYS49   GLU50   LEU52   LEU53   PHE56   GLY61   CYS62   LEU65   MET68  
 ILE69   TYR72   VAL76   MET77   ALA80   ILE87   VAL91   LEU94   LEU98   LEU101 
 LEU105  PHE111  LEU112 

> <Gold.Protein.RotatedAtoms>
   12.8951   20.7146   20.5863 H   0  0  0  0  0  0  0  0  0  0  0  0  # atno 863  bound_to 854 
   13.2996   19.1505   20.3930 LP  0  0  0  0  0  0  0  0  0  0  0  0  # atno 2322 bound_to 854 
   12.0276   19.5579   21.3325 LP  0  0  0  0  0  0  0  0  0  0  0  0  # atno 2323 bound_to 854 

> <Gold.Score>
     Fitness  S(hb_ext) S(vdw_ext)  S(hb_int)    S(int)      intcor
     31.58       0.00      23.02       0.00      -0.07      -0.76

> <Gold.Goldscore.Fitness>
31.5842

> <Gold.Goldscore.Internal.Vdw>
-0.4591

> <Gold.Goldscore.Internal.Torsion>
-0.3710

> <Gold.Goldscore.External.Vdw>
23.0177

> <Gold.Goldscore.Internal.HBond>
0.0000

> <Gold.Goldscore.External.HBond>
0.0000

> <Gold.Goldscore.Internal.Correction>
-0.7650

> <Gold.Goldscore.Internal.Vdw.Weighted>
-0.4591

> <Gold.Goldscore.Internal.Torsion.Weighted>
-0.3710

> <Gold.Goldscore.External.Vdw.Weighted>
31.6493

> <Gold.Goldscore.Internal.HBond.Weighted>
0.0000

> <Gold.Goldscore.External.HBond.Weighted>
0.0000

> <Gold.Goldscore.Internal.Correction.Weighted>
-0.7650

> <Gold.Rescore>
     Score     S(PLP)   S(hbond)     S(cho)   S(metal)  DE(clash)   DE(tors)     intcor
     35.66     -35.79       0.00       0.00       0.00       0.00       0.07       ----

> <Gold.PLP.Fitness>
35.6582

> <Gold.PLP.PLP>
-35.7941

> <Gold.PLP.part.hbond>
0.0000

> <Gold.PLP.part.metal>
0.0000

> <Gold.PLP.part.buried>
-4.2223

> <Gold.PLP.part.nonpolar>
-31.8284

> <Gold.PLP.part.repulsive>
0.0127

> <Gold.PLP.ligand.clash>
0.0000

> <Gold.PLP.ligand.torsion>
0.0680

> <Gold.PLP.Chemscore.Hbond>
0.0000

> <Gold.PLP.Chemscore.CHOScore>
0.0000

> <Gold.PLP.Chemscore.Metal>
0.0000

> <Gold.PLP.Chemscore.Internal.Correction>
   9.000000E+99

