#       Name:                CT1002167954
#       Creating user name   hitesit
#       Creation time:       Sun Apr 16 20:17:41 2023


#       File generated by GOLD software.
#

@<TRIPOS>MOLECULE
CT1002167954|ligand_prepared|mol2|1|dock2
    29    30     1
SMALL
NO_CHARGES


@<TRIPOS>ATOM
      1 C1         112.6437 243.4189 325.6276 C.3            1 RES1               0.0000
      2 C2         111.9412 244.5236 324.8123 C.ar           1 RES1               0.0000
      3 C3         111.5578 242.7462 326.4622 C.2            1 RES1               0.0000
      4 C4         113.3087 242.4965 324.6119 C.2            1 RES1               0.0000
      5 C5         113.7397 243.9478 326.5819 C.3            1 RES1               0.0000
      6 C6         112.4077 245.8344 324.8460 C.ar           1 RES1               0.0000
      7 C7         110.8293 244.2473 324.0211 C.ar           1 RES1               0.0000
      8 N8         111.1470 241.5030 326.0808 N.am           1 RES1               0.0000
      9 O9         111.0419 243.3141 327.4170 O.2            1 RES1               0.0000
     10 N10        112.8458 241.2105 324.5129 N.am           1 RES1               0.0000
     11 O11        114.2181 242.8765 323.8848 O.2            1 RES1               0.0000
     12 C12        114.3920 242.8648 327.4267 C.3            1 RES1               0.0000
     13 C13        111.7869 246.8322 324.1130 C.ar           1 RES1               0.0000
     14 C14        110.2099 245.2468 323.2891 C.ar           1 RES1               0.0000
     15 C15        111.7747 240.6810 325.1797 C.2            1 RES1               0.0000
     16 C16        110.6880 246.5391 323.3338 C.ar           1 RES1               0.0000
     17 O17        111.3849 239.5313 324.9969 O.2            1 RES1               0.0000
     18 H18        114.5149 244.4467 325.9873 H              1 RES1               0.0000
     19 H19        113.2955 244.6965 327.2494 H              1 RES1               0.0000
     20 H20        113.2697 246.0845 325.4554 H              1 RES1               0.0000
     21 H21        110.4352 243.2380 323.9715 H              1 RES1               0.0000
     22 H22        110.2940 241.1521 326.5046 H              1 RES1               0.0000
     23 H23        113.3462 240.5905 323.8840 H              1 RES1               0.0000
     24 H24        115.1530 243.2896 328.0780 H              1 RES1               0.0000
     25 H25        113.6536 242.3645 328.0498 H              1 RES1               0.0000
     26 H26        114.8658 242.1161 326.7952 H              1 RES1               0.0000
     27 H27        112.1662 247.8480 324.1527 H              1 RES1               0.0000
     28 H28        109.3449 245.0117 322.6777 H              1 RES1               0.0000
     29 H29        110.2021 247.3209 322.7594 H              1 RES1               0.0000
@<TRIPOS>BOND
    1    1    2 1     
    2    1    3 1     
    3    1    4 1     
    4    1    5 1     
    5    2    6 ar    
    6    2    7 ar    
    7    3    8 1     
    8    3    9 2     
    9    4   10 1     
   10    4   11 2     
   11    5   12 1     
   12    5   18 1     
   13    5   19 1     
   14    6   13 ar    
   15    6   20 1     
   16    7   14 ar    
   17    7   21 1     
   18    8   15 1     
   19    8   22 1     
   20   10   15 1     
   21   10   23 1     
   22   12   24 1     
   23   12   25 1     
   24   12   26 1     
   25   13   16 ar    
   26   13   27 1     
   27   14   16 ar    
   28   14   28 1     
   29   15   17 2     
   30   16   29 1     
@<TRIPOS>SUBSTRUCTURE
      1 RES1           1
@<TRIPOS>SET
DONOR_HYDROGENS      STATIC     ATOMS    <user>   **** ""
2 22 23
ATOM$RED        STATIC     ATOMS    COLORGROUP SYSTEM
2 22 23
@<TRIPOS>COMMENT
> <Gold.Version>
2022.3.0

> <Gold.Id.Protein>
unknown|4uh6_clean|pdb

> <Gold.Protein.RotatedTorsions>
[ 8453 8448 8449 8450 ] final  143.22 input   43.75 | X-H torsion
[ 8477 8470 8471 8472 ] final  -42.57 input  101.27 | X-H torsion
[ 9021 9017 9018 9019 ] final  -10.76 input   41.82 | X-H torsion
[ 9055 9041 9042 9043 ] final  -48.69 input   38.00 | X-H torsion
[ 9104 9087 9088 9089 ] final  -94.78 input   99.63 | X-H torsion
[ 9112 9098 9097 9095 ] final -148.44 input   60.00 | X-H torsion
[ 9142 9125 9126 9127 ] final  -55.27 input   87.39 | X-H torsion
[ 9217 9202 9203 9204 ] final   78.78 input  119.00 | X-H torsion
[ 3599 3592 3593 3594 ] final  173.79 input   87.50 | X-H torsion
[ 9003 8997 8998 8999 ] final -128.88 input   29.71 | X-H torsion
[ 9162 9155 9156 9157 ] final   13.57 input  127.29 | X-H torsion
[ 11075 11068 11069 11070 ] final  -74.69 input   56.03 | X-H torsion
[ 4901 4888 4887 4884 ] final   50.35 input   60.01 | X-H torsion
[ 9007 9002 9001 8998 ] final  142.94 input   59.98 | X-H torsion
[ 8973 8962 8963 8964 ] final  155.59 input   50.05 | X-H torsion
[ 8510 8501 8502 8503 ] final   84.04 input   53.62 | X-H torsion
[ 4917 4907 4908 4909 ] final -116.57 input   25.27 | X-H torsion
[ 8353 8344 8343 8341 ] final -175.88 input   59.99 | X-H torsion
[ 5556 5551 5550 5547 ] final  -81.41 input   59.99 | X-H torsion
[ 5580 5571 5572 5573 ] final  128.52 input   51.16 | X-H torsion
[ 9375 9363 9364 9365 ] final   -4.58 input  121.73 | X-H torsion
[ 9250 9231 9232 9233 ] final  -81.66 input   97.49 | X-H torsion
[ 5552 5546 5547 5548 ] final  129.48 input   98.49 | X-H torsion
[ 5612 5604 5605 5606 ] final -149.02 input  122.00 | X-H torsion
[ 8539 8525 8526 8527 ] final  101.85 input   68.51 | X-H torsion
[ 8514 8506 8505 8502 ] final   67.09 input   59.98 | X-H torsion
[ 9192 9178 9176 9173 ] final -125.40 input   60.02 | X-H torsion
[ 9272 9265 9266 9267 ] final -149.70 input  106.17 | X-H torsion
[ 9298 9282 9283 9284 ] final   58.44 input   76.97 | X-H torsion
[ 9342 9318 9319 9320 ] final -167.82 input  100.94 | X-H torsion
[ 9411 9391 9392 9393 ] final   72.59 input   95.23 | X-H torsion
[ 12906 12888 12887 12885 ] final  101.72 input   60.01 | X-H torsion
[ 13471 13450 13449 13445 ] final -135.48 input   59.98 | X-H torsion
[ 3579 3563 3564 3565 ] final -151.92 input   99.66 | X-H torsion
[ 13485 8425 8424 8423 ] final -176.24 input    0.00 | X-H torsion
[ 13489 8965 8964 8963 ] final  -51.26 input    0.00 | X-H torsion
[ 13492 9020 9019 9018 ] final -121.45 input   -0.00 | X-H torsion
[ 13495 9044 9043 9042 ] final  126.38 input    0.00 | X-H torsion
[ 13498 9090 9089 9088 ] final  102.07 input    0.00 | X-H torsion
[ 13503 9128 9127 9126 ] final   72.55 input    0.00 | X-H torsion
[ 13516 9000 8999 8998 ] final   82.17 input    0.00 | X-H torsion
[ 13518 8370 8369 8368 ] final   61.32 input    0.00 | X-H torsion
[ 13522 11071 11070 11069 ] final -178.44 input   -0.00 | X-H torsion
[ 13526 8388 8387 8386 ] final   44.32 input    0.00 | X-H torsion
[ 13530 8451 8450 8449 ] final   76.43 input    0.00 | X-H torsion
[ 13532 8473 8472 8471 ] final  104.69 input    0.00 | X-H torsion
[ 13539 4910 4909 4908 ] final  -62.85 input   -0.00 | X-H torsion
[ 13543 5549 5548 5547 ] final  -90.89 input    0.00 | X-H torsion
[ 13547 9205 9204 9203 ] final  -67.67 input   -0.00 | X-H torsion
[ 13556 5645 5644 5643 ] final   69.78 input   -0.00 | X-H torsion
[ 13562 9321 9320 9319 ] final -124.35 input    0.00 | X-H torsion
[ 13567 5574 5573 5572 ] final -126.30 input    0.00 | X-H torsion
[ 13571 5523 5522 5521 ] final  171.96 input    0.00 | X-H torsion
[ 13573 6144 6143 6142 ] final   25.25 input    0.00 | X-H torsion
[ 13577 9175 9174 9173 ] final -178.15 input    0.00 | X-H torsion
[ 13581 9234 9233 9232 ] final  -76.03 input    0.00 | X-H torsion
[ 13585 9285 9284 9283 ] final -123.66 input    0.00 | X-H torsion
[ 13592 9366 9365 9364 ] final  157.50 input   -0.00 | X-H torsion

> <Gold.Protein.ActiveResidues>
 TRP311  MET341  HIS342  TRP414  ARG419  CYS420  VAL421  GLY422  LEU429  LEU460 
 SER462  ALA463  ILE464  ASN481  SER482  GLN483  LEU484  ILE485  ARG486  ASP500 
 ALA502  ASN503  TRP566  TYR567  GLY568  LEU569  PRO570  ALA571  VAL572  SER573 
 ASN574  MET575  PRO588  PHE589  SER590  GLY591  TRP592  TYR593  MET594  GLY595 
 THR596  GLU597  ILE598  GLY599  VAL600  ARG601  ASP602  TYR603  ASP605  ARG608 
 ILE653  VAL654  TRP683  PRO687  SER691  PHE696  HIS697  TYR711  HEM750  H4B760 

> <Gold.Protein.RotatedAtoms>
  121.8465  250.1178  330.1930 H   0  0  0  0  0  0  0  0  0  0  0  0  # atno 3579 bound_to 3563
  123.7081  248.0821  328.3001 H   0  0  0  0  0  0  0  0  0  0  0  0  # atno 3599 bound_to 3592
  125.8950  246.5109  318.2644 H   0  0  0  0  0  0  0  0  0  0  0  0  # atno 4901 bound_to 4888
  123.6252  248.3904  315.3228 H   0  0  0  0  0  0  0  0  0  0  0  0  # atno 4917 bound_to 4907
  105.6232  245.0460  318.8444 H   0  0  0  0  0  0  0  0  0  0  0  0  # atno 5552 bound_to 5546
  106.1518  243.9173  320.8089 H   0  0  0  0  0  0  0  0  0  0  0  0  # atno 5556 bound_to 5551
  108.5854  244.3426  319.8435 H   0  0  0  0  0  0  0  0  0  0  0  0  # atno 5580 bound_to 5571
  110.9137  244.7858  316.4733 H   0  0  0  0  0  0  0  0  0  0  0  0  # atno 5612 bound_to 5604
  112.0965  239.6432  321.7665 H   0  0  0  0  0  0  0  0  0  0  0  0  # atno 8353 bound_to 8344
  115.9916  242.7461  318.5543 H   0  0  0  0  0  0  0  0  0  0  0  0  # atno 8453 bound_to 8448
  114.3834  246.2508  318.2160 H   0  0  0  0  0  0  0  0  0  0  0  0  # atno 8477 bound_to 8470
  111.0814  247.4584  318.6043 H   0  0  0  0  0  0  0  0  0  0  0  0  # atno 8510 bound_to 8501
  108.8242  247.2857  316.7557 H   0  0  0  0  0  0  0  0  0  0  0  0  # atno 8514 bound_to 8506
  109.6718  249.3275  319.2431 H   0  0  0  0  0  0  0  0  0  0  0  0  # atno 8539 bound_to 8525
  115.5084  250.6082  316.0732 H   0  0  0  0  0  0  0  0  0  0  0  0  # atno 8973 bound_to 8962
  118.0278  248.2432  317.4014 H   0  0  0  0  0  0  0  0  0  0  0  0  # atno 9003 bound_to 8997
  119.8171  244.4367  315.0683 H   0  0  0  0  0  0  0  0  0  0  0  0  # atno 9007 bound_to 9002
  120.2387  244.5602  318.5772 H   0  0  0  0  0  0  0  0  0  0  0  0  # atno 9021 bound_to 9017
  121.9082  243.6958  320.9082 H   0  0  0  0  0  0  0  0  0  0  0  0  # atno 9055 bound_to 9041
  122.0175  241.4033  322.5441 H   0  0  0  0  0  0  0  0  0  0  0  0  # atno 9104 bound_to 9087
  114.6873  238.6126  322.5196 H   0  0  0  0  0  0  0  0  0  0  0  0  # atno 9112 bound_to 9098
  121.6675  240.0065  325.8026 H   0  0  0  0  0  0  0  0  0  0  0  0  # atno 9142 bound_to 9125
  121.8745  238.8619  329.3292 H   0  0  0  0  0  0  0  0  0  0  0  0  # atno 9162 bound_to 9155
  120.9319  240.1658  332.9175 H   0  0  0  0  0  0  0  0  0  0  0  0  # atno 9192 bound_to 9178
  118.7689  238.7131  329.5459 H   0  0  0  0  0  0  0  0  0  0  0  0  # atno 9217 bound_to 9202
  116.0230  238.2369  328.9030 H   0  0  0  0  0  0  0  0  0  0  0  0  # atno 9250 bound_to 9231
  116.6506  234.7120  329.0354 H   0  0  0  0  0  0  0  0  0  0  0  0  # atno 9272 bound_to 9265
  116.0820  236.3739  331.8908 H   0  0  0  0  0  0  0  0  0  0  0  0  # atno 9298 bound_to 9282
  114.3125  238.1076  333.3660 H   0  0  0  0  0  0  0  0  0  0  0  0  # atno 9342 bound_to 9318
  112.1498  237.0604  331.0490 H   0  0  0  0  0  0  0  0  0  0  0  0  # atno 9375 bound_to 9363
  112.4322  235.0912  330.6325 H   0  0  0  0  0  0  0  0  0  0  0  0  # atno 9411 bound_to 9391
  125.9238  237.5680  325.7464 H   0  0  0  0  0  0  0  0  0  0  0  0  # atno 11075 bound_to 11068
  112.2453  253.1746  328.9953 H   0  0  0  0  0  0  0  0  0  0  0  0  # atno 12906 bound_to 12888
  108.6222  246.7098  336.9239 H   0  0  0  0  0  0  0  0  0  0  0  0  # atno 13471 bound_to 13450
  117.7231  244.9516  318.8629 LP  0  0  0  0  0  0  0  0  0  0  0  0  # atno 13485 bound_to 8425
  118.7239  243.7465  319.6018 LP  0  0  0  0  0  0  0  0  0  0  0  0  # atno 13486 bound_to 8425
  115.4291  243.6937  319.9095 LP  0  0  0  0  0  0  0  0  0  0  0  0  # atno 13487 bound_to 8448
  115.2819  246.5937  319.6768 LP  0  0  0  0  0  0  0  0  0  0  0  0  # atno 13488 bound_to 8470
  116.1455  248.0928  318.4669 LP  0  0  0  0  0  0  0  0  0  0  0  0  # atno 13489 bound_to 8965
  116.5176  246.6488  317.5858 LP  0  0  0  0  0  0  0  0  0  0  0  0  # atno 13490 bound_to 8965
  120.4319  246.2666  318.9098 LP  0  0  0  0  0  0  0  0  0  0  0  0  # atno 13491 bound_to 9017
  121.5301  242.0818  318.6037 LP  0  0  0  0  0  0  0  0  0  0  0  0  # atno 13492 bound_to 9020
  122.7212  242.9521  317.6961 LP  0  0  0  0  0  0  0  0  0  0  0  0  # atno 13493 bound_to 9020
  123.5329  243.6129  320.2614 LP  0  0  0  0  0  0  0  0  0  0  0  0  # atno 13494 bound_to 9041
  121.4734  242.9094  323.7283 LP  0  0  0  0  0  0  0  0  0  0  0  0  # atno 13495 bound_to 9044
  123.1413  243.2022  323.3647 LP  0  0  0  0  0  0  0  0  0  0  0  0  # atno 13496 bound_to 9044
  122.2512  239.6757  322.4090 LP  0  0  0  0  0  0  0  0  0  0  0  0  # atno 13497 bound_to 9087
  124.1386  240.3009  325.1610 LP  0  0  0  0  0  0  0  0  0  0  0  0  # atno 13498 bound_to 9090
  123.4411  238.7168  325.2270 LP  0  0  0  0  0  0  0  0  0  0  0  0  # atno 13499 bound_to 9090
  114.8508  240.2253  322.3783 LP  0  0  0  0  0  0  0  0  0  0  0  0  # atno 13500 bound_to 9098
  114.4735  239.5633  323.8226 LP  0  0  0  0  0  0  0  0  0  0  0  0  # atno 13501 bound_to 9098
  121.4619  241.6399  326.3925 LP  0  0  0  0  0  0  0  0  0  0  0  0  # atno 13502 bound_to 9125
  119.8132  239.0849  327.2968 LP  0  0  0  0  0  0  0  0  0  0  0  0  # atno 13503 bound_to 9128
  119.6865  239.2764  329.0135 LP  0  0  0  0  0  0  0  0  0  0  0  0  # atno 13504 bound_to 9128
  118.0787  239.1357  331.0919 LP  0  0  0  0  0  0  0  0  0  0  0  0  # atno 13505 bound_to 9202
  124.3128  249.7167  328.1998 LP  0  0  0  0  0  0  0  0  0  0  0  0  # atno 13514 bound_to 3592
  119.4068  248.1004  316.3461 LP  0  0  0  0  0  0  0  0  0  0  0  0  # atno 13515 bound_to 8997
  121.5246  247.9230  317.8524 LP  0  0  0  0  0  0  0  0  0  0  0  0  # atno 13516 bound_to 9000
  121.9656  246.6741  316.7362 LP  0  0  0  0  0  0  0  0  0  0  0  0  # atno 13517 bound_to 9000
  121.0687  237.8810  319.0312 LP  0  0  0  0  0  0  0  0  0  0  0  0  # atno 13518 bound_to 8370
  119.7881  238.6159  319.9367 LP  0  0  0  0  0  0  0  0  0  0  0  0  # atno 13519 bound_to 8370
  122.8215  238.1274  328.0542 LP  0  0  0  0  0  0  0  0  0  0  0  0  # atno 13520 bound_to 9155
  125.4900  239.2330  325.4647 LP  0  0  0  0  0  0  0  0  0  0  0  0  # atno 13521 bound_to 11068
  124.5413  238.5848  329.4441 LP  0  0  0  0  0  0  0  0  0  0  0  0  # atno 13522 bound_to 11071
  124.4139  239.1209  327.8020 LP  0  0  0  0  0  0  0  0  0  0  0  0  # atno 13523 bound_to 11071
  124.4577  246.8781  318.9343 LP  0  0  0  0  0  0  0  0  0  0  0  0  # atno 13524 bound_to 4888
  125.7403  247.8644  319.1551 LP  0  0  0  0  0  0  0  0  0  0  0  0  # atno 13525 bound_to 4888
  115.7333  239.3813  317.8650 LP  0  0  0  0  0  0  0  0  0  0  0  0  # atno 13526 bound_to 8388
  115.6471  241.1034  318.0294 LP  0  0  0  0  0  0  0  0  0  0  0  0  # atno 13527 bound_to 8388
  120.5094  245.7741  315.6844 LP  0  0  0  0  0  0  0  0  0  0  0  0  # atno 13528 bound_to 9002
  119.2548  245.9044  314.6473 LP  0  0  0  0  0  0  0  0  0  0  0  0  # atno 13529 bound_to 9002
  112.6559  244.4994  318.4601 LP  0  0  0  0  0  0  0  0  0  0  0  0  # atno 13530 bound_to 8451
  112.7092  245.7460  317.2588 LP  0  0  0  0  0  0  0  0  0  0  0  0  # atno 13531 bound_to 8451
  113.8356  248.9254  316.9179 LP  0  0  0  0  0  0  0  0  0  0  0  0  # atno 13532 bound_to 8473
  113.8744  250.0138  318.2647 LP  0  0  0  0  0  0  0  0  0  0  0  0  # atno 13533 bound_to 8473
  115.3372  248.8685  316.0728 LP  0  0  0  0  0  0  0  0  0  0  0  0  # atno 13534 bound_to 8962
  112.3010  248.7020  318.6948 LP  0  0  0  0  0  0  0  0  0  0  0  0  # atno 13535 bound_to 8501
  122.1945  247.3910  315.2713 LP  0  0  0  0  0  0  0  0  0  0  0  0  # atno 13538 bound_to 4907
  119.8156  248.3128  314.9406 LP  0  0  0  0  0  0  0  0  0  0  0  0  # atno 13539 bound_to 4910
  120.0662  249.8020  315.7887 LP  0  0  0  0  0  0  0  0  0  0  0  0  # atno 13540 bound_to 4910
  109.9062  247.3547  319.1013 LP  0  0  0  0  0  0  0  0  0  0  0  0  # atno 13543 bound_to 5549
  109.9438  246.7200  320.7124 LP  0  0  0  0  0  0  0  0  0  0  0  0  # atno 13544 bound_to 5549
  111.6380  238.3032  322.5684 LP  0  0  0  0  0  0  0  0  0  0  0  0  # atno 13545 bound_to 8344
  110.7460  238.8542  321.3164 LP  0  0  0  0  0  0  0  0  0  0  0  0  # atno 13546 bound_to 8344
  114.3475  238.5854  330.1254 LP  0  0  0  0  0  0  0  0  0  0  0  0  # atno 13547 bound_to 9205
  114.1021  238.6398  328.4117 LP  0  0  0  0  0  0  0  0  0  0  0  0  # atno 13548 bound_to 9205
  106.8931  244.2086  322.2281 LP  0  0  0  0  0  0  0  0  0  0  0  0  # atno 13553 bound_to 5551
  107.7646  244.1313  320.8493 LP  0  0  0  0  0  0  0  0  0  0  0  0  # atno 13554 bound_to 5551
  108.4148  245.3142  318.3932 LP  0  0  0  0  0  0  0  0  0  0  0  0  # atno 13555 bound_to 5571
  111.4142  240.7861  318.5462 LP  0  0  0  0  0  0  0  0  0  0  0  0  # atno 13556 bound_to 5645
  111.7945  239.1553  318.9886 LP  0  0  0  0  0  0  0  0  0  0  0  0  # atno 13557 bound_to 5645
  112.5239  238.3483  329.9255 LP  0  0  0  0  0  0  0  0  0  0  0  0  # atno 13560 bound_to 9363
  117.5385  237.5374  328.3751 LP  0  0  0  0  0  0  0  0  0  0  0  0  # atno 13561 bound_to 9231
  110.1013  236.5141  331.6021 LP  0  0  0  0  0  0  0  0  0  0  0  0  # atno 13562 bound_to 9321
  109.7678  238.1756  331.9604 LP  0  0  0  0  0  0  0  0  0  0  0  0  # atno 13563 bound_to 9321
  106.7118  245.7173  317.6556 LP  0  0  0  0  0  0  0  0  0  0  0  0  # atno 13566 bound_to 5546
  109.1195  242.2624  316.3541 LP  0  0  0  0  0  0  0  0  0  0  0  0  # atno 13567 bound_to 5574
  108.2323  243.6578  316.8694 LP  0  0  0  0  0  0  0  0  0  0  0  0  # atno 13568 bound_to 5574
  111.5047  243.2568  317.0810 LP  0  0  0  0  0  0  0  0  0  0  0  0  # atno 13569 bound_to 5604
  109.9861  250.3147  317.8409 LP  0  0  0  0  0  0  0  0  0  0  0  0  # atno 13570 bound_to 8525
  107.3352  247.7756  317.8783 LP  0  0  0  0  0  0  0  0  0  0  0  0  # atno 13571 bound_to 5523
  106.9401  247.5666  316.2049 LP  0  0  0  0  0  0  0  0  0  0  0  0  # atno 13572 bound_to 5523
  102.8195  242.4672  325.4094 LP  0  0  0  0  0  0  0  0  0  0  0  0  # atno 13573 bound_to 6144
  101.6762  242.0701  324.1704 LP  0  0  0  0  0  0  0  0  0  0  0  0  # atno 13574 bound_to 6144
  110.1301  246.5030  317.3315 LP  0  0  0  0  0  0  0  0  0  0  0  0  # atno 13575 bound_to 8506
  109.5883  246.1925  315.8227 LP  0  0  0  0  0  0  0  0  0  0  0  0  # atno 13576 bound_to 8506
  115.9364  238.5521  331.3352 LP  0  0  0  0  0  0  0  0  0  0  0  0  # atno 13577 bound_to 9175
  116.7269  237.6930  332.6147 LP  0  0  0  0  0  0  0  0  0  0  0  0  # atno 13578 bound_to 9175
  119.4097  240.7319  332.8112 LP  0  0  0  0  0  0  0  0  0  0  0  0  # atno 13579 bound_to 9178
  120.0896  239.9660  331.5393 LP  0  0  0  0  0  0  0  0  0  0  0  0  # atno 13580 bound_to 9178
  113.7876  235.5917  329.9780 LP  0  0  0  0  0  0  0  0  0  0  0  0  # atno 13581 bound_to 9234
  114.1674  234.0320  329.3276 LP  0  0  0  0  0  0  0  0  0  0  0  0  # atno 13582 bound_to 9234
  116.6903  235.9976  330.2220 LP  0  0  0  0  0  0  0  0  0  0  0  0  # atno 13583 bound_to 9265
  116.1500  234.7695  332.5754 LP  0  0  0  0  0  0  0  0  0  0  0  0  # atno 13584 bound_to 9282
  111.9693  236.0130  333.4164 LP  0  0  0  0  0  0  0  0  0  0  0  0  # atno 13585 bound_to 9285
  112.6349  236.3223  334.9852 LP  0  0  0  0  0  0  0  0  0  0  0  0  # atno 13586 bound_to 9285
  113.9872  237.0070  332.0482 LP  0  0  0  0  0  0  0  0  0  0  0  0  # atno 13587 bound_to 9318
  111.1563  235.0618  329.4376 LP  0  0  0  0  0  0  0  0  0  0  0  0  # atno 13588 bound_to 9391
  109.3865  234.0885  329.3032 LP  0  0  0  0  0  0  0  0  0  0  0  0  # atno 13592 bound_to 9366
  108.9246  235.7511  329.1539 LP  0  0  0  0  0  0  0  0  0  0  0  0  # atno 13593 bound_to 9366
  111.3497  251.8376  328.7543 LP  0  0  0  0  0  0  0  0  0  0  0  0  # atno 13594 bound_to 12888
  111.0337  252.8181  330.0213 LP  0  0  0  0  0  0  0  0  0  0  0  0  # atno 13595 bound_to 12888
  109.6713  246.9505  338.1449 LP  0  0  0  0  0  0  0  0  0  0  0  0  # atno 13596 bound_to 13450
  110.1990  246.3638  336.7152 LP  0  0  0  0  0  0  0  0  0  0  0  0  # atno 13597 bound_to 13450

> <Gold.Score>
     Fitness  S(hb_ext) S(vdw_ext)  S(hb_int)    S(int)      intcor
     38.73       8.06      22.95       0.00      -0.89      -0.77

> <Gold.Goldscore.Fitness>
38.7261

> <Gold.Goldscore.Internal.Vdw>
-1.2783

> <Gold.Goldscore.Internal.Torsion>
-0.3778

> <Gold.Goldscore.External.Vdw>
22.9489

> <Gold.Goldscore.Internal.HBond>
0.0000

> <Gold.Goldscore.External.HBond>
8.0622

> <Gold.Goldscore.Internal.Correction>
-0.7653

> <Gold.Goldscore.Hbonds>
donor molecule, donor type, donor heavy atom, donor atom, acceptor molecule, acceptor atom, score
      P1  H  5693  5706       L1    17  0.12
      P1  H  9538  9550       L1    17  1.00
      L1  H    10    23       P1  9098  0.67

> <Gold.Goldscore.Internal.Vdw.Weighted>
-1.2783

> <Gold.Goldscore.Internal.Torsion.Weighted>
-0.3778

> <Gold.Goldscore.External.Vdw.Weighted>
31.5547

> <Gold.Goldscore.Internal.HBond.Weighted>
0.0000

> <Gold.Goldscore.External.HBond.Weighted>
8.0622

> <Gold.Goldscore.Internal.Correction.Weighted>
-0.7653

> <Gold.Rescore>
     Score     S(PLP)   S(hbond)     S(cho)   S(metal)  DE(clash)   DE(tors)     intcor
     25.61     -20.12       1.96       0.00       0.00       0.00       0.20       ----

> <Gold.PLP.Fitness>
25.6051

> <Gold.PLP.PLP>
-20.1235

> <Gold.PLP.part.hbond>
-6.2124

> <Gold.PLP.part.metal>
0.0000

> <Gold.PLP.part.buried>
2.1445

> <Gold.PLP.part.nonpolar>
-22.4059

> <Gold.PLP.part.repulsive>
5.5443

> <Gold.PLP.ligand.clash>
0.0000

> <Gold.PLP.ligand.torsion>
0.1973

> <Gold.PLP.Chemscore.Hbond>
1.9588

> <Gold.PLP.Chemscore.CHOScore>
0.0000

> <Gold.PLP.Chemscore.Metal>
0.0000

> <Gold.Chemscore.Hbonds>
donor molecule, donor type, donor heavy atom, donor atom, acceptor molecule, acceptor atom, score
      L1  H    10    23       P1  9098  0.73
      P1  H  9538  9550       L1    17  0.78

> <Gold.PLP.Chemscore.Internal.Correction>
   9.000000E+99

