#       Name:                CT1002167954
#       Creating user name   hitesit
#       Creation time:       Sun Apr 16 20:17:46 2023


#       File generated by GOLD software.
#

@<TRIPOS>MOLECULE
CT1002167954|ligand_prepared|mol2|1|dock7
    29    30     1
SMALL
NO_CHARGES


@<TRIPOS>ATOM
      1 C1         112.0084 243.7009 325.7939 C.3            1 RES1               0.0000
      2 C2         111.2212 244.7285 324.9554 C.ar           1 RES1               0.0000
      3 C3         110.9736 242.9279 326.6061 C.2            1 RES1               0.0000
      4 C4         112.7852 242.8446 324.7998 C.2            1 RES1               0.0000
      5 C5         113.0237 244.3381 326.7710 C.3            1 RES1               0.0000
      6 C6         110.0102 244.3817 324.3638 C.ar           1 RES1               0.0000
      7 C7         111.6910 246.0256 324.7671 C.ar           1 RES1               0.0000
      8 N8         110.6960 241.6490 326.2222 N.am           1 RES1               0.0000
      9 O9         110.3813 243.4458 327.5449 O.2            1 RES1               0.0000
     10 N10        112.4531 241.5191 324.6973 N.am           1 RES1               0.0000
     11 O11        113.6705 243.3095 324.0925 O.2            1 RES1               0.0000
     12 C12        113.6565 243.3441 327.7321 C.3            1 RES1               0.0000
     13 C13        109.2934 245.2991 323.6137 C.ar           1 RES1               0.0000
     14 C14        110.9727 246.9415 324.0164 C.ar           1 RES1               0.0000
     15 C15        111.4231 240.8894 325.3413 C.2            1 RES1               0.0000
     16 C16        109.7738 246.5796 323.4398 C.ar           1 RES1               0.0000
     17 O17        111.1524 239.7064 325.1560 O.2            1 RES1               0.0000
     18 H18        113.8181 244.8215 326.1892 H              1 RES1               0.0000
     19 H19        112.5135 245.1158 327.3527 H              1 RES1               0.0000
     20 H20        109.6176 243.3779 324.4876 H              1 RES1               0.0000
     21 H21        112.6323 246.3322 325.2105 H              1 RES1               0.0000
     22 H22        109.8714 241.2176 326.6275 H              1 RES1               0.0000
     23 H23        113.0270 240.9489 324.0842 H              1 RES1               0.0000
     24 H24        114.3602 243.8431 328.3950 H              1 RES1               0.0000
     25 H25        112.8970 242.8627 328.3446 H              1 RES1               0.0000
     26 H26        114.1938 242.5701 327.1880 H              1 RES1               0.0000
     27 H27        108.3510 245.0089 323.1608 H              1 RES1               0.0000
     28 H28        111.3549 247.9479 323.8816 H              1 RES1               0.0000
     29 H29        109.2118 247.2982 322.8524 H              1 RES1               0.0000
@<TRIPOS>BOND
    1    1    2 1     
    2    1    3 1     
    3    1    4 1     
    4    1    5 1     
    5    2    6 ar    
    6    2    7 ar    
    7    3    8 1     
    8    3    9 2     
    9    4   10 1     
   10    4   11 2     
   11    5   12 1     
   12    5   18 1     
   13    5   19 1     
   14    6   13 ar    
   15    6   20 1     
   16    7   14 ar    
   17    7   21 1     
   18    8   15 1     
   19    8   22 1     
   20   10   15 1     
   21   10   23 1     
   22   12   24 1     
   23   12   25 1     
   24   12   26 1     
   25   13   16 ar    
   26   13   27 1     
   27   14   16 ar    
   28   14   28 1     
   29   15   17 2     
   30   16   29 1     
@<TRIPOS>SUBSTRUCTURE
      1 RES1           1
@<TRIPOS>SET
DONOR_HYDROGENS      STATIC     ATOMS    <user>   **** ""
2 22 23
ATOM$RED        STATIC     ATOMS    COLORGROUP SYSTEM
2 22 23
@<TRIPOS>COMMENT
> <Gold.Version>
2022.3.0

> <Gold.Id.Protein>
unknown|4uh6_clean|pdb

> <Gold.Protein.RotatedTorsions>
[ 8453 8448 8449 8450 ] final   82.78 input   43.75 | X-H torsion
[ 8477 8470 8471 8472 ] final   21.75 input  101.27 | X-H torsion
[ 9021 9017 9018 9019 ] final  106.77 input   41.82 | X-H torsion
[ 9055 9041 9042 9043 ] final  -26.86 input   38.00 | X-H torsion
[ 9104 9087 9088 9089 ] final   53.44 input   99.63 | X-H torsion
[ 9112 9098 9097 9095 ] final  159.13 input   60.00 | X-H torsion
[ 9142 9125 9126 9127 ] final  -90.07 input   87.39 | X-H torsion
[ 9217 9202 9203 9204 ] final   35.64 input  119.00 | X-H torsion
[ 3599 3592 3593 3594 ] final -112.42 input   87.50 | X-H torsion
[ 9003 8997 8998 8999 ] final  167.95 input   29.71 | X-H torsion
[ 9162 9155 9156 9157 ] final  -15.74 input  127.29 | X-H torsion
[ 11075 11068 11069 11070 ] final    5.35 input   56.03 | X-H torsion
[ 4901 4888 4887 4884 ] final  147.46 input   60.01 | X-H torsion
[ 9007 9002 9001 8998 ] final  -88.90 input   59.98 | X-H torsion
[ 8973 8962 8963 8964 ] final  134.80 input   50.05 | X-H torsion
[ 8510 8501 8502 8503 ] final  -61.69 input   53.62 | X-H torsion
[ 4917 4907 4908 4909 ] final  -46.89 input   25.27 | X-H torsion
[ 8353 8344 8343 8341 ] final  147.14 input   59.99 | X-H torsion
[ 5556 5551 5550 5547 ] final  -33.20 input   59.99 | X-H torsion
[ 5580 5571 5572 5573 ] final  121.05 input   51.16 | X-H torsion
[ 9375 9363 9364 9365 ] final -162.29 input  121.73 | X-H torsion
[ 9250 9231 9232 9233 ] final  130.90 input   97.49 | X-H torsion
[ 5552 5546 5547 5548 ] final  -66.54 input   98.49 | X-H torsion
[ 5612 5604 5605 5606 ] final  -12.22 input  122.00 | X-H torsion
[ 8539 8525 8526 8527 ] final  141.31 input   68.51 | X-H torsion
[ 8514 8506 8505 8502 ] final  -71.97 input   59.98 | X-H torsion
[ 9192 9178 9176 9173 ] final   30.19 input   60.02 | X-H torsion
[ 9272 9265 9266 9267 ] final -139.89 input  106.17 | X-H torsion
[ 9298 9282 9283 9284 ] final -100.07 input   76.97 | X-H torsion
[ 9342 9318 9319 9320 ] final  169.00 input  100.94 | X-H torsion
[ 9411 9391 9392 9393 ] final   91.60 input   95.23 | X-H torsion
[ 12906 12888 12887 12885 ] final  -83.06 input   60.01 | X-H torsion
[ 13471 13450 13449 13445 ] final -170.58 input   59.98 | X-H torsion
[ 3579 3563 3564 3565 ] final  -91.86 input   99.66 | X-H torsion
[ 13485 8425 8424 8423 ] final -148.74 input    0.00 | X-H torsion
[ 13489 8965 8964 8963 ] final  139.69 input    0.00 | X-H torsion
[ 13492 9020 9019 9018 ] final   26.84 input   -0.00 | X-H torsion
[ 13495 9044 9043 9042 ] final  -69.46 input    0.00 | X-H torsion
[ 13498 9090 9089 9088 ] final  -62.68 input    0.00 | X-H torsion
[ 13503 9128 9127 9126 ] final   99.66 input    0.00 | X-H torsion
[ 13516 9000 8999 8998 ] final -111.18 input    0.00 | X-H torsion
[ 13518 8370 8369 8368 ] final  -14.65 input    0.00 | X-H torsion
[ 13522 11071 11070 11069 ] final -127.29 input   -0.00 | X-H torsion
[ 13526 8388 8387 8386 ] final -179.21 input    0.00 | X-H torsion
[ 13530 8451 8450 8449 ] final -147.14 input    0.00 | X-H torsion
[ 13532 8473 8472 8471 ] final -161.09 input    0.00 | X-H torsion
[ 13539 4910 4909 4908 ] final  -33.32 input   -0.00 | X-H torsion
[ 13543 5549 5548 5547 ] final    1.99 input    0.00 | X-H torsion
[ 13547 9205 9204 9203 ] final  -12.77 input   -0.00 | X-H torsion
[ 13556 5645 5644 5643 ] final -177.58 input   -0.00 | X-H torsion
[ 13562 9321 9320 9319 ] final    2.71 input    0.00 | X-H torsion
[ 13567 5574 5573 5572 ] final  153.61 input    0.00 | X-H torsion
[ 13571 5523 5522 5521 ] final  168.22 input    0.00 | X-H torsion
[ 13573 6144 6143 6142 ] final   41.21 input    0.00 | X-H torsion
[ 13577 9175 9174 9173 ] final  -32.04 input    0.00 | X-H torsion
[ 13581 9234 9233 9232 ] final -120.70 input    0.00 | X-H torsion
[ 13585 9285 9284 9283 ] final -104.91 input    0.00 | X-H torsion
[ 13592 9366 9365 9364 ] final  150.38 input   -0.00 | X-H torsion

> <Gold.Protein.ActiveResidues>
 TRP311  MET341  HIS342  TRP414  ARG419  CYS420  VAL421  GLY422  LEU429  LEU460 
 SER462  ALA463  ILE464  ASN481  SER482  GLN483  LEU484  ILE485  ARG486  ASP500 
 ALA502  ASN503  TRP566  TYR567  GLY568  LEU569  PRO570  ALA571  VAL572  SER573 
 ASN574  MET575  PRO588  PHE589  SER590  GLY591  TRP592  TYR593  MET594  GLY595 
 THR596  GLU597  ILE598  GLY599  VAL600  ARG601  ASP602  TYR603  ASP605  ARG608 
 ILE653  VAL654  TRP683  PRO687  SER691  PHE696  HIS697  TYR711  HEM750  H4B760 

> <Gold.Protein.RotatedAtoms>
  122.2992  250.5101  329.5370 H   0  0  0  0  0  0  0  0  0  0  0  0  # atno 3579 bound_to 3563
  124.5241  248.4907  328.8333 H   0  0  0  0  0  0  0  0  0  0  0  0  # atno 3599 bound_to 3592
  126.0295  247.7164  318.9719 H   0  0  0  0  0  0  0  0  0  0  0  0  # atno 4901 bound_to 4888
  122.7695  248.5859  315.8145 H   0  0  0  0  0  0  0  0  0  0  0  0  # atno 4917 bound_to 4907
  106.5591  245.9074  317.6501 H   0  0  0  0  0  0  0  0  0  0  0  0  # atno 5552 bound_to 5546
  106.7855  243.9408  320.3812 H   0  0  0  0  0  0  0  0  0  0  0  0  # atno 5556 bound_to 5551
  108.5370  244.2558  319.7819 H   0  0  0  0  0  0  0  0  0  0  0  0  # atno 5580 bound_to 5571
  110.8607  243.2543  317.0760 H   0  0  0  0  0  0  0  0  0  0  0  0  # atno 5612 bound_to 5604
  112.2833  239.3104  322.2218 H   0  0  0  0  0  0  0  0  0  0  0  0  # atno 8353 bound_to 8344
  115.1274  242.7669  318.7571 H   0  0  0  0  0  0  0  0  0  0  0  0  # atno 8453 bound_to 8448
  114.9672  246.9888  318.2849 H   0  0  0  0  0  0  0  0  0  0  0  0  # atno 8477 bound_to 8470
  111.9122  248.8632  318.9900 H   0  0  0  0  0  0  0  0  0  0  0  0  # atno 8510 bound_to 8501
  110.2382  246.3092  317.1133 H   0  0  0  0  0  0  0  0  0  0  0  0  # atno 8514 bound_to 8506
  109.3807  249.1102  318.7767 H   0  0  0  0  0  0  0  0  0  0  0  0  # atno 8539 bound_to 8525
  115.4368  250.5572  316.3804 H   0  0  0  0  0  0  0  0  0  0  0  0  # atno 8973 bound_to 8962
  117.9500  247.9064  316.5537 H   0  0  0  0  0  0  0  0  0  0  0  0  # atno 9003 bound_to 8997
  119.3203  246.0043  314.7075 H   0  0  0  0  0  0  0  0  0  0  0  0  # atno 9007 bound_to 9002
  120.1230  245.7120  319.5582 H   0  0  0  0  0  0  0  0  0  0  0  0  # atno 9021 bound_to 9017
  122.0896  243.7718  321.1817 H   0  0  0  0  0  0  0  0  0  0  0  0  # atno 9055 bound_to 9041
  122.6458  239.8225  322.6379 H   0  0  0  0  0  0  0  0  0  0  0  0  # atno 9104 bound_to 9087
  114.8528  239.2460  322.0143 H   0  0  0  0  0  0  0  0  0  0  0  0  # atno 9112 bound_to 9098
  122.1106  240.2735  325.6877 H   0  0  0  0  0  0  0  0  0  0  0  0  # atno 9142 bound_to 9125
  121.6282  238.9187  328.9575 H   0  0  0  0  0  0  0  0  0  0  0  0  # atno 9162 bound_to 9155
  119.5898  240.2148  331.6736 H   0  0  0  0  0  0  0  0  0  0  0  0  # atno 9192 bound_to 9178
  118.4074  238.2333  329.7838 H   0  0  0  0  0  0  0  0  0  0  0  0  # atno 9217 bound_to 9202
  117.3675  237.7517  327.9665 H   0  0  0  0  0  0  0  0  0  0  0  0  # atno 9250 bound_to 9231
  116.4994  234.7272  329.0432 H   0  0  0  0  0  0  0  0  0  0  0  0  # atno 9272 bound_to 9265
  115.8730  234.7370  332.4069 H   0  0  0  0  0  0  0  0  0  0  0  0  # atno 9298 bound_to 9282
  114.4729  238.2717  333.0947 H   0  0  0  0  0  0  0  0  0  0  0  0  # atno 9342 bound_to 9318
  112.2284  238.4754  330.0346 H   0  0  0  0  0  0  0  0  0  0  0  0  # atno 9375 bound_to 9363
  112.5794  234.9762  330.4076 H   0  0  0  0  0  0  0  0  0  0  0  0  # atno 9411 bound_to 9391
  125.0790  238.1789  326.1738 H   0  0  0  0  0  0  0  0  0  0  0  0  # atno 11075 bound_to 11068
  110.8296  252.0985  329.5756 H   0  0  0  0  0  0  0  0  0  0  0  0  # atno 12906 bound_to 12888
  108.6070  246.8971  337.4565 H   0  0  0  0  0  0  0  0  0  0  0  0  # atno 13471 bound_to 13450
  117.7058  245.0426  319.2642 LP  0  0  0  0  0  0  0  0  0  0  0  0  # atno 13485 bound_to 8425
  118.7412  243.6555  319.2005 LP  0  0  0  0  0  0  0  0  0  0  0  0  # atno 13486 bound_to 8425
  116.2761  243.6734  319.7108 LP  0  0  0  0  0  0  0  0  0  0  0  0  # atno 13487 bound_to 8448
  114.7138  245.8755  319.6098 LP  0  0  0  0  0  0  0  0  0  0  0  0  # atno 13488 bound_to 8470
  116.6215  246.6183  317.7107 LP  0  0  0  0  0  0  0  0  0  0  0  0  # atno 13489 bound_to 8965
  116.0415  248.1233  318.3421 LP  0  0  0  0  0  0  0  0  0  0  0  0  # atno 13490 bound_to 8965
  120.5443  245.1478  317.9570 LP  0  0  0  0  0  0  0  0  0  0  0  0  # atno 13491 bound_to 9017
  122.3083  243.1641  317.6042 LP  0  0  0  0  0  0  0  0  0  0  0  0  # atno 13492 bound_to 9020
  121.9430  241.8697  318.6956 LP  0  0  0  0  0  0  0  0  0  0  0  0  # atno 13493 bound_to 9020
  123.3574  243.5393  319.9969 LP  0  0  0  0  0  0  0  0  0  0  0  0  # atno 13494 bound_to 9041
  123.1733  243.0617  323.5550 LP  0  0  0  0  0  0  0  0  0  0  0  0  # atno 13495 bound_to 9044
  121.4414  243.0499  323.5380 LP  0  0  0  0  0  0  0  0  0  0  0  0  # atno 13496 bound_to 9044
  121.6391  241.2157  322.3176 LP  0  0  0  0  0  0  0  0  0  0  0  0  # atno 13497 bound_to 9087
  123.4266  238.7471  324.9997 LP  0  0  0  0  0  0  0  0  0  0  0  0  # atno 13498 bound_to 9090
  124.1532  240.2706  325.3883 LP  0  0  0  0  0  0  0  0  0  0  0  0  # atno 13499 bound_to 9090
  114.6834  240.3664  323.1819 LP  0  0  0  0  0  0  0  0  0  0  0  0  # atno 13500 bound_to 9098
  114.4741  238.7843  323.5279 LP  0  0  0  0  0  0  0  0  0  0  0  0  # atno 13501 bound_to 9098
  121.0306  241.3801  326.5044 LP  0  0  0  0  0  0  0  0  0  0  0  0  # atno 13502 bound_to 9125
  119.7883  238.7034  327.4335 LP  0  0  0  0  0  0  0  0  0  0  0  0  # atno 13503 bound_to 9128
  119.7114  239.6578  328.8768 LP  0  0  0  0  0  0  0  0  0  0  0  0  # atno 13504 bound_to 9128
  118.4350  239.6087  330.8574 LP  0  0  0  0  0  0  0  0  0  0  0  0  # atno 13505 bound_to 9202
  123.5104  249.3150  327.6755 LP  0  0  0  0  0  0  0  0  0  0  0  0  # atno 13514 bound_to 3592
  119.4841  248.4350  317.1882 LP  0  0  0  0  0  0  0  0  0  0  0  0  # atno 13515 bound_to 8997
  122.0938  246.6214  316.8822 LP  0  0  0  0  0  0  0  0  0  0  0  0  # atno 13516 bound_to 9000
  121.3964  247.9757  317.7064 LP  0  0  0  0  0  0  0  0  0  0  0  0  # atno 13517 bound_to 9000
  120.6049  237.5223  319.9215 LP  0  0  0  0  0  0  0  0  0  0  0  0  # atno 13518 bound_to 8370
  120.2519  238.9746  319.0464 LP  0  0  0  0  0  0  0  0  0  0  0  0  # atno 13519 bound_to 8370
  123.0603  238.0723  328.4146 LP  0  0  0  0  0  0  0  0  0  0  0  0  # atno 13520 bound_to 9155
  126.3264  238.6282  325.0415 LP  0  0  0  0  0  0  0  0  0  0  0  0  # atno 13521 bound_to 11068
  124.6239  239.3203  329.3373 LP  0  0  0  0  0  0  0  0  0  0  0  0  # atno 13522 bound_to 11071
  124.3314  238.3854  327.9088 LP  0  0  0  0  0  0  0  0  0  0  0  0  # atno 13523 bound_to 11071
  125.5691  246.3298  318.2545 LP  0  0  0  0  0  0  0  0  0  0  0  0  # atno 13524 bound_to 4888
  124.4936  247.1993  319.1228 LP  0  0  0  0  0  0  0  0  0  0  0  0  # atno 13525 bound_to 4888
  115.5159  240.8044  318.5826 LP  0  0  0  0  0  0  0  0  0  0  0  0  # atno 13526 bound_to 8388
  115.8645  239.6803  317.3118 LP  0  0  0  0  0  0  0  0  0  0  0  0  # atno 13527 bound_to 8388
  119.7157  244.4501  314.9820 LP  0  0  0  0  0  0  0  0  0  0  0  0  # atno 13528 bound_to 9002
  120.5491  245.6491  315.7131 LP  0  0  0  0  0  0  0  0  0  0  0  0  # atno 13529 bound_to 9002
  112.4485  245.9550  317.8080 LP  0  0  0  0  0  0  0  0  0  0  0  0  # atno 13530 bound_to 8451
  112.9165  244.2905  317.9109 LP  0  0  0  0  0  0  0  0  0  0  0  0  # atno 13531 bound_to 8451
  113.1684  249.9252  317.3248 LP  0  0  0  0  0  0  0  0  0  0  0  0  # atno 13532 bound_to 8473
  114.5416  249.0141  317.8578 LP  0  0  0  0  0  0  0  0  0  0  0  0  # atno 13533 bound_to 8473
  115.4069  248.9182  315.7734 LP  0  0  0  0  0  0  0  0  0  0  0  0  # atno 13534 bound_to 8962
  111.4804  247.3144  318.3139 LP  0  0  0  0  0  0  0  0  0  0  0  0  # atno 13535 bound_to 8501
  123.0356  247.1988  314.7880 LP  0  0  0  0  0  0  0  0  0  0  0  0  # atno 13538 bound_to 4907
  120.1715  248.2408  315.1915 LP  0  0  0  0  0  0  0  0  0  0  0  0  # atno 13539 bound_to 4910
  119.7103  249.8740  315.5378 LP  0  0  0  0  0  0  0  0  0  0  0  0  # atno 13540 bound_to 4910
  109.3172  247.5881  320.1846 LP  0  0  0  0  0  0  0  0  0  0  0  0  # atno 13543 bound_to 5549
  110.5328  246.4865  319.6291 LP  0  0  0  0  0  0  0  0  0  0  0  0  # atno 13544 bound_to 5549
  111.1391  238.1543  322.2741 LP  0  0  0  0  0  0  0  0  0  0  0  0  # atno 13545 bound_to 8344
  111.0569  239.3381  321.1523 LP  0  0  0  0  0  0  0  0  0  0  0  0  # atno 13546 bound_to 8344
  114.3345  239.3042  329.7782 LP  0  0  0  0  0  0  0  0  0  0  0  0  # atno 13547 bound_to 9205
  114.1151  237.9211  328.7590 LP  0  0  0  0  0  0  0  0  0  0  0  0  # atno 13548 bound_to 9205
  106.2106  244.0735  321.8980 LP  0  0  0  0  0  0  0  0  0  0  0  0  # atno 13553 bound_to 5551
  107.8091  244.2427  321.6100 LP  0  0  0  0  0  0  0  0  0  0  0  0  # atno 13554 bound_to 5551
  108.4610  245.3971  318.4521 LP  0  0  0  0  0  0  0  0  0  0  0  0  # atno 13555 bound_to 5571
  110.9937  239.6087  319.2635 LP  0  0  0  0  0  0  0  0  0  0  0  0  # atno 13556 bound_to 5645
  112.2150  240.3327  318.2713 LP  0  0  0  0  0  0  0  0  0  0  0  0  # atno 13557 bound_to 5645
  112.4477  236.9761  330.9092 LP  0  0  0  0  0  0  0  0  0  0  0  0  # atno 13560 bound_to 9363
  116.2389  238.0064  329.2804 LP  0  0  0  0  0  0  0  0  0  0  0  0  # atno 13561 bound_to 9231
  110.0443  237.7473  332.5402 LP  0  0  0  0  0  0  0  0  0  0  0  0  # atno 13562 bound_to 9321
  109.8248  236.9423  331.0223 LP  0  0  0  0  0  0  0  0  0  0  0  0  # atno 13563 bound_to 9321
  105.7927  244.8714  318.8284 LP  0  0  0  0  0  0  0  0  0  0  0  0  # atno 13566 bound_to 5546
  108.8431  243.1841  315.7921 LP  0  0  0  0  0  0  0  0  0  0  0  0  # atno 13567 bound_to 5574
  108.5086  242.7361  317.4314 LP  0  0  0  0  0  0  0  0  0  0  0  0  # atno 13568 bound_to 5574
  111.5564  244.7489  316.4939 LP  0  0  0  0  0  0  0  0  0  0  0  0  # atno 13569 bound_to 5604
  110.2745  250.5301  318.3031 LP  0  0  0  0  0  0  0  0  0  0  0  0  # atno 13570 bound_to 8525
  107.2860  247.8028  317.8846 LP  0  0  0  0  0  0  0  0  0  0  0  0  # atno 13571 bound_to 5523
  106.9893  247.5394  316.1986 LP  0  0  0  0  0  0  0  0  0  0  0  0  # atno 13572 bound_to 5523
  102.9722  242.4617  325.2237 LP  0  0  0  0  0  0  0  0  0  0  0  0  # atno 13573 bound_to 6144
  101.5236  242.0757  324.3561 LP  0  0  0  0  0  0  0  0  0  0  0  0  # atno 13574 bound_to 6144
  109.3369  246.3662  315.7591 LP  0  0  0  0  0  0  0  0  0  0  0  0  # atno 13575 bound_to 8506
  108.9585  247.3121  317.0353 LP  0  0  0  0  0  0  0  0  0  0  0  0  # atno 13576 bound_to 8506
  116.6141  237.3543  332.2578 LP  0  0  0  0  0  0  0  0  0  0  0  0  # atno 13577 bound_to 9175
  116.0491  238.8908  331.6922 LP  0  0  0  0  0  0  0  0  0  0  0  0  # atno 13578 bound_to 9175
  121.0185  239.9321  332.4001 LP  0  0  0  0  0  0  0  0  0  0  0  0  # atno 13579 bound_to 9178
  119.8322  240.7165  333.2027 LP  0  0  0  0  0  0  0  0  0  0  0  0  # atno 13580 bound_to 9178
  114.0314  235.1835  330.4331 LP  0  0  0  0  0  0  0  0  0  0  0  0  # atno 13581 bound_to 9234
  113.9236  234.4402  328.8724 LP  0  0  0  0  0  0  0  0  0  0  0  0  # atno 13582 bound_to 9234
  116.8366  235.9829  330.2145 LP  0  0  0  0  0  0  0  0  0  0  0  0  # atno 13583 bound_to 9265
  116.3555  236.3799  332.0677 LP  0  0  0  0  0  0  0  0  0  0  0  0  # atno 13584 bound_to 9282
  112.0985  235.7661  333.4610 LP  0  0  0  0  0  0  0  0  0  0  0  0  # atno 13585 bound_to 9285
  112.5057  236.5692  334.9406 LP  0  0  0  0  0  0  0  0  0  0  0  0  # atno 13586 bound_to 9285
  113.8306  236.8467  332.3132 LP  0  0  0  0  0  0  0  0  0  0  0  0  # atno 13587 bound_to 9318
  111.0129  235.1739  329.6569 LP  0  0  0  0  0  0  0  0  0  0  0  0  # atno 13588 bound_to 9391
  109.4062  234.0914  329.1976 LP  0  0  0  0  0  0  0  0  0  0  0  0  # atno 13592 bound_to 9366
  108.9049  235.7482  329.2595 LP  0  0  0  0  0  0  0  0  0  0  0  0  # atno 13593 bound_to 9366
  111.7983  253.3993  329.7079 LP  0  0  0  0  0  0  0  0  0  0  0  0  # atno 13594 bound_to 12888
  112.0111  252.3404  328.4832 LP  0  0  0  0  0  0  0  0  0  0  0  0  # atno 13595 bound_to 12888
  110.1647  246.7859  337.9154 LP  0  0  0  0  0  0  0  0  0  0  0  0  # atno 13596 bound_to 13450
  109.7209  246.3399  336.4085 LP  0  0  0  0  0  0  0  0  0  0  0  0  # atno 13597 bound_to 13450

> <Gold.Score>
     Fitness  S(hb_ext) S(vdw_ext)  S(hb_int)    S(int)      intcor
     33.24       7.62      18.83       0.00      -0.28      -0.77

> <Gold.Goldscore.Fitness>
33.2401

> <Gold.Goldscore.Internal.Vdw>
-0.5681

> <Gold.Goldscore.Internal.Torsion>
-0.4749

> <Gold.Goldscore.External.Vdw>
18.8326

> <Gold.Goldscore.Internal.HBond>
0.0000

> <Gold.Goldscore.External.HBond>
7.6230

> <Gold.Goldscore.Internal.Correction>
-0.7653

> <Gold.Goldscore.Hbonds>
donor molecule, donor type, donor heavy atom, donor atom, acceptor molecule, acceptor atom, score
      P1  H  5693  5706       L1    17  0.21
      P1  H  9538  9550       L1    17  0.92
      L1  H    10    23       P1  9098  0.43

> <Gold.Goldscore.Internal.Vdw.Weighted>
-0.5681

> <Gold.Goldscore.Internal.Torsion.Weighted>
-0.4749

> <Gold.Goldscore.External.Vdw.Weighted>
25.8948

> <Gold.Goldscore.Internal.HBond.Weighted>
0.0000

> <Gold.Goldscore.External.HBond.Weighted>
7.6230

> <Gold.Goldscore.Internal.Correction.Weighted>
-0.7653

> <Gold.Rescore>
     Score     S(PLP)   S(hbond)     S(cho)   S(metal)  DE(clash)   DE(tors)     intcor
     15.09     -11.76       1.50       0.00       0.00       0.00       0.59       ----

> <Gold.PLP.Fitness>
15.0941

> <Gold.PLP.PLP>
-11.7572

> <Gold.PLP.part.hbond>
-5.5455

> <Gold.PLP.part.metal>
0.0000

> <Gold.PLP.part.buried>
3.9914

> <Gold.PLP.part.nonpolar>
-19.5371

> <Gold.PLP.part.repulsive>
8.3593

> <Gold.PLP.ligand.clash>
0.0000

> <Gold.PLP.ligand.torsion>
0.5891

> <Gold.PLP.Chemscore.Hbond>
1.5050

> <Gold.PLP.Chemscore.CHOScore>
0.0000

> <Gold.PLP.Chemscore.Metal>
0.0000

> <Gold.Chemscore.Hbonds>
donor molecule, donor type, donor heavy atom, donor atom, acceptor molecule, acceptor atom, score
      P1  H  9538  9550       L1    17  1.00

> <Gold.PLP.Chemscore.Internal.Correction>
   9.000000E+99

