#       Name:                CT1002167954
#       Creating user name   hitesit
#       Creation time:       Sun Apr 16 20:17:47 2023


#       File generated by GOLD software.
#

@<TRIPOS>MOLECULE
CT1002167954|ligand_prepared|mol2|1|dock8
    29    30     1
SMALL
NO_CHARGES


@<TRIPOS>ATOM
      1 C1         113.3700 243.3468 325.3652 C.3            1 RES1               0.0000
      2 C2         111.9001 243.8034 325.2664 C.ar           1 RES1               0.0000
      3 C3         113.9320 243.9832 326.6330 C.2            1 RES1               0.0000
      4 C4         113.3423 241.8227 325.3937 C.2            1 RES1               0.0000
      5 C5         114.2427 243.7864 324.1665 C.3            1 RES1               0.0000
      6 C6         111.4476 244.4985 324.1489 C.ar           1 RES1               0.0000
      7 C7         110.9859 243.5349 326.2817 C.ar           1 RES1               0.0000
      8 N8         114.1342 243.1724 327.7108 N.am           1 RES1               0.0000
      9 O9         114.1572 245.1854 326.6988 O.2            1 RES1               0.0000
     10 N10        113.7607 241.1942 326.5373 N.am           1 RES1               0.0000
     11 O11        112.9463 241.1607 324.4423 O.2            1 RES1               0.0000
     12 C12        115.6947 243.3475 324.2717 C.3            1 RES1               0.0000
     13 C13        110.1282 244.9078 324.0486 C.ar           1 RES1               0.0000
     14 C14        109.6670 243.9454 326.1795 C.ar           1 RES1               0.0000
     15 C15        114.1263 241.8007 327.7081 C.2            1 RES1               0.0000
     16 C16        109.2370 244.6313 325.0634 C.ar           1 RES1               0.0000
     17 O17        114.4382 241.1663 328.7118 O.2            1 RES1               0.0000
     18 H18        113.8139 243.3707 323.2463 H              1 RES1               0.0000
     19 H19        114.2093 244.8801 324.0877 H              1 RES1               0.0000
     20 H20        112.1350 244.7273 323.3414 H              1 RES1               0.0000
     21 H21        111.3021 242.9977 327.1694 H              1 RES1               0.0000
     22 H22        114.3071 243.6281 328.6011 H              1 RES1               0.0000
     23 H23        113.8037 240.1804 326.5136 H              1 RES1               0.0000
     24 H24        116.2623 243.6816 323.4057 H              1 RES1               0.0000
     25 H25        116.1599 243.7637 325.1629 H              1 RES1               0.0000
     26 H26        115.7669 242.2633 324.3265 H              1 RES1               0.0000
     27 H27        109.7951 245.4485 323.1688 H              1 RES1               0.0000
     28 H28        108.9692 243.7261 326.9809 H              1 RES1               0.0000
     29 H29        108.2034 244.9517 324.9845 H              1 RES1               0.0000
@<TRIPOS>BOND
    1    1    2 1     
    2    1    3 1     
    3    1    4 1     
    4    1    5 1     
    5    2    6 ar    
    6    2    7 ar    
    7    3    8 1     
    8    3    9 2     
    9    4   10 1     
   10    4   11 2     
   11    5   12 1     
   12    5   18 1     
   13    5   19 1     
   14    6   13 ar    
   15    6   20 1     
   16    7   14 ar    
   17    7   21 1     
   18    8   15 1     
   19    8   22 1     
   20   10   15 1     
   21   10   23 1     
   22   12   24 1     
   23   12   25 1     
   24   12   26 1     
   25   13   16 ar    
   26   13   27 1     
   27   14   16 ar    
   28   14   28 1     
   29   15   17 2     
   30   16   29 1     
@<TRIPOS>SUBSTRUCTURE
      1 RES1           1
@<TRIPOS>SET
DONOR_HYDROGENS      STATIC     ATOMS    <user>   **** ""
2 22 23
ATOM$RED        STATIC     ATOMS    COLORGROUP SYSTEM
2 22 23
@<TRIPOS>COMMENT
> <Gold.Version>
2022.3.0

> <Gold.Id.Protein>
unknown|4uh6_clean|pdb

> <Gold.Protein.RotatedTorsions>
[ 8453 8448 8449 8450 ] final -107.77 input   43.75 | X-H torsion
[ 8477 8470 8471 8472 ] final -135.90 input  101.27 | X-H torsion
[ 9021 9017 9018 9019 ] final  -72.94 input   41.82 | X-H torsion
[ 9055 9041 9042 9043 ] final -161.17 input   38.00 | X-H torsion
[ 9104 9087 9088 9089 ] final -143.16 input   99.63 | X-H torsion
[ 9112 9098 9097 9095 ] final  122.32 input   60.00 | X-H torsion
[ 9142 9125 9126 9127 ] final -108.00 input   87.39 | X-H torsion
[ 9217 9202 9203 9204 ] final   62.94 input  119.00 | X-H torsion
[ 3599 3592 3593 3594 ] final  117.25 input   87.50 | X-H torsion
[ 9003 8997 8998 8999 ] final  -41.75 input   29.71 | X-H torsion
[ 9162 9155 9156 9157 ] final  128.99 input  127.29 | X-H torsion
[ 11075 11068 11069 11070 ] final  127.85 input   56.03 | X-H torsion
[ 4901 4888 4887 4884 ] final  140.40 input   60.01 | X-H torsion
[ 9007 9002 9001 8998 ] final   76.96 input   59.98 | X-H torsion
[ 8973 8962 8963 8964 ] final -101.60 input   50.05 | X-H torsion
[ 8510 8501 8502 8503 ] final   62.27 input   53.62 | X-H torsion
[ 4917 4907 4908 4909 ] final -139.05 input   25.27 | X-H torsion
[ 8353 8344 8343 8341 ] final  143.61 input   59.99 | X-H torsion
[ 5556 5551 5550 5547 ] final -167.47 input   59.99 | X-H torsion
[ 5580 5571 5572 5573 ] final  126.19 input   51.16 | X-H torsion
[ 9375 9363 9364 9365 ] final  149.04 input  121.73 | X-H torsion
[ 9250 9231 9232 9233 ] final  158.43 input   97.49 | X-H torsion
[ 5552 5546 5547 5548 ] final -154.52 input   98.49 | X-H torsion
[ 5612 5604 5605 5606 ] final   44.78 input  122.00 | X-H torsion
[ 8539 8525 8526 8527 ] final   15.00 input   68.51 | X-H torsion
[ 8514 8506 8505 8502 ] final   57.21 input   59.98 | X-H torsion
[ 9192 9178 9176 9173 ] final  -94.85 input   60.02 | X-H torsion
[ 9272 9265 9266 9267 ] final   15.94 input  106.17 | X-H torsion
[ 9298 9282 9283 9284 ] final -167.54 input   76.97 | X-H torsion
[ 9342 9318 9319 9320 ] final -142.70 input  100.94 | X-H torsion
[ 9411 9391 9392 9393 ] final -158.30 input   95.23 | X-H torsion
[ 12906 12888 12887 12885 ] final   72.19 input   60.01 | X-H torsion
[ 13471 13450 13449 13445 ] final   82.06 input   59.98 | X-H torsion
[ 3579 3563 3564 3565 ] final -161.87 input   99.66 | X-H torsion
[ 13485 8425 8424 8423 ] final  -37.23 input    0.00 | X-H torsion
[ 13489 8965 8964 8963 ] final  165.37 input    0.00 | X-H torsion
[ 13492 9020 9019 9018 ] final  168.31 input   -0.00 | X-H torsion
[ 13495 9044 9043 9042 ] final  145.70 input    0.00 | X-H torsion
[ 13498 9090 9089 9088 ] final -103.24 input    0.00 | X-H torsion
[ 13503 9128 9127 9126 ] final  149.89 input    0.00 | X-H torsion
[ 13516 9000 8999 8998 ] final  -97.73 input    0.00 | X-H torsion
[ 13518 8370 8369 8368 ] final   96.29 input    0.00 | X-H torsion
[ 13522 11071 11070 11069 ] final -110.06 input   -0.00 | X-H torsion
[ 13526 8388 8387 8386 ] final -135.80 input    0.00 | X-H torsion
[ 13530 8451 8450 8449 ] final   43.93 input    0.00 | X-H torsion
[ 13532 8473 8472 8471 ] final   71.30 input    0.00 | X-H torsion
[ 13539 4910 4909 4908 ] final -162.80 input   -0.00 | X-H torsion
[ 13543 5549 5548 5547 ] final   91.78 input    0.00 | X-H torsion
[ 13547 9205 9204 9203 ] final   -6.63 input   -0.00 | X-H torsion
[ 13556 5645 5644 5643 ] final  158.01 input   -0.00 | X-H torsion
[ 13562 9321 9320 9319 ] final  171.89 input    0.00 | X-H torsion
[ 13567 5574 5573 5572 ] final -158.36 input    0.00 | X-H torsion
[ 13571 5523 5522 5521 ] final  -31.99 input    0.00 | X-H torsion
[ 13573 6144 6143 6142 ] final  -40.40 input    0.00 | X-H torsion
[ 13577 9175 9174 9173 ] final  -46.29 input    0.00 | X-H torsion
[ 13581 9234 9233 9232 ] final  150.39 input    0.00 | X-H torsion
[ 13585 9285 9284 9283 ] final  -67.07 input    0.00 | X-H torsion
[ 13592 9366 9365 9364 ] final  124.15 input   -0.00 | X-H torsion

> <Gold.Protein.ActiveResidues>
 TRP311  MET341  HIS342  TRP414  ARG419  CYS420  VAL421  GLY422  LEU429  LEU460 
 SER462  ALA463  ILE464  ASN481  SER482  GLN483  LEU484  ILE485  ARG486  ASP500 
 ALA502  ASN503  TRP566  TYR567  GLY568  LEU569  PRO570  ALA571  VAL572  SER573 
 ASN574  MET575  PRO588  PHE589  SER590  GLY591  TRP592  TYR593  MET594  GLY595 
 THR596  GLU597  ILE598  GLY599  VAL600  ARG601  ASP602  TYR603  ASP605  ARG608 
 ILE653  VAL654  TRP683  PRO687  SER691  PHE696  HIS697  TYR711  HEM750  H4B760 

> <Gold.Protein.RotatedAtoms>
  121.7769  249.9882  330.2382 H   0  0  0  0  0  0  0  0  0  0  0  0  # atno 3579 bound_to 3563
  123.3252  248.6138  327.7846 H   0  0  0  0  0  0  0  0  0  0  0  0  # atno 3599 bound_to 3592
  126.1003  247.6503  318.9092 H   0  0  0  0  0  0  0  0  0  0  0  0  # atno 4901 bound_to 4888
  123.7275  248.1379  315.1142 H   0  0  0  0  0  0  0  0  0  0  0  0  # atno 4917 bound_to 4907
  105.5482  245.9999  318.3335 H   0  0  0  0  0  0  0  0  0  0  0  0  # atno 5552 bound_to 5546
  106.3821  244.1195  322.0495 H   0  0  0  0  0  0  0  0  0  0  0  0  # atno 5556 bound_to 5551
  108.5703  244.3146  319.8256 H   0  0  0  0  0  0  0  0  0  0  0  0  # atno 5580 bound_to 5571
  111.7025  243.3217  317.0440 H   0  0  0  0  0  0  0  0  0  0  0  0  # atno 5612 bound_to 5604
  112.2847  239.2680  322.2607 H   0  0  0  0  0  0  0  0  0  0  0  0  # atno 8353 bound_to 8344
  116.3979  243.6216  319.6180 H   0  0  0  0  0  0  0  0  0  0  0  0  # atno 8453 bound_to 8448
  114.4976  245.7312  319.3906 H   0  0  0  0  0  0  0  0  0  0  0  0  # atno 8477 bound_to 8470
  110.9318  247.6784  318.8018 H   0  0  0  0  0  0  0  0  0  0  0  0  # atno 8510 bound_to 8501
  108.8878  247.3071  316.9025 H   0  0  0  0  0  0  0  0  0  0  0  0  # atno 8514 bound_to 8506
  110.3434  250.3087  319.0557 H   0  0  0  0  0  0  0  0  0  0  0  0  # atno 8539 bound_to 8525
  115.5904  249.5134  315.2305 H   0  0  0  0  0  0  0  0  0  0  0  0  # atno 8973 bound_to 8962
  119.1942  248.5215  317.5172 H   0  0  0  0  0  0  0  0  0  0  0  0  # atno 9003 bound_to 8997
  120.4991  244.9216  315.6503 H   0  0  0  0  0  0  0  0  0  0  0  0  # atno 9007 bound_to 9002
  120.5627  245.1329  317.9394 H   0  0  0  0  0  0  0  0  0  0  0  0  # atno 9021 bound_to 9017
  122.7465  243.4257  319.7193 H   0  0  0  0  0  0  0  0  0  0  0  0  # atno 9055 bound_to 9041
  121.4700  241.0536  322.2206 H   0  0  0  0  0  0  0  0  0  0  0  0  # atno 9104 bound_to 9087
  114.8887  239.8330  322.0733 H   0  0  0  0  0  0  0  0  0  0  0  0  # atno 9112 bound_to 9098
  122.2707  240.4987  325.6864 H   0  0  0  0  0  0  0  0  0  0  0  0  # atno 9142 bound_to 9125
  123.1231  238.1234  328.9394 H   0  0  0  0  0  0  0  0  0  0  0  0  # atno 9162 bound_to 9155
  121.0208  239.9593  332.4783 H   0  0  0  0  0  0  0  0  0  0  0  0  # atno 9192 bound_to 9178
  118.6487  238.5068  329.5863 H   0  0  0  0  0  0  0  0  0  0  0  0  # atno 9217 bound_to 9202
  117.0641  237.9915  327.7937 H   0  0  0  0  0  0  0  0  0  0  0  0  # atno 9250 bound_to 9231
  116.4693  235.9922  330.2363 H   0  0  0  0  0  0  0  0  0  0  0  0  # atno 9272 bound_to 9265
  116.6880  235.1466  332.7576 H   0  0  0  0  0  0  0  0  0  0  0  0  # atno 9298 bound_to 9282
  114.1093  237.8297  333.5374 H   0  0  0  0  0  0  0  0  0  0  0  0  # atno 9342 bound_to 9318
  112.8271  238.0998  329.8440 H   0  0  0  0  0  0  0  0  0  0  0  0  # atno 9375 bound_to 9363
  111.8117  234.7895  329.1905 H   0  0  0  0  0  0  0  0  0  0  0  0  # atno 9411 bound_to 9391
  125.7536  239.2043  325.2500 H   0  0  0  0  0  0  0  0  0  0  0  0  # atno 11075 bound_to 11068
  112.2435  252.8245  328.6711 H   0  0  0  0  0  0  0  0  0  0  0  0  # atno 12906 bound_to 12888
  110.0040  246.8541  338.0266 H   0  0  0  0  0  0  0  0  0  0  0  0  # atno 13471 bound_to 13450
  118.4963  244.1201  320.0217 LP  0  0  0  0  0  0  0  0  0  0  0  0  # atno 13485 bound_to 8425
  117.9507  244.5780  318.4430 LP  0  0  0  0  0  0  0  0  0  0  0  0  # atno 13486 bound_to 8425
  115.0308  242.8356  318.8669 LP  0  0  0  0  0  0  0  0  0  0  0  0  # atno 13487 bound_to 8448
  115.1708  247.0993  318.5338 LP  0  0  0  0  0  0  0  0  0  0  0  0  # atno 13488 bound_to 8470
  116.8178  246.6543  318.0397 LP  0  0  0  0  0  0  0  0  0  0  0  0  # atno 13489 bound_to 8965
  115.8452  248.0873  318.0131 LP  0  0  0  0  0  0  0  0  0  0  0  0  # atno 13490 bound_to 8965
  120.1172  245.7102  319.5293 LP  0  0  0  0  0  0  0  0  0  0  0  0  # atno 13491 bound_to 9017
  122.5045  241.8738  318.5892 LP  0  0  0  0  0  0  0  0  0  0  0  0  # atno 13492 bound_to 9020
  121.7469  243.1600  317.7107 LP  0  0  0  0  0  0  0  0  0  0  0  0  # atno 13493 bound_to 9020
  122.7220  243.8742  321.4114 LP  0  0  0  0  0  0  0  0  0  0  0  0  # atno 13494 bound_to 9041
  121.5975  242.7542  323.9404 LP  0  0  0  0  0  0  0  0  0  0  0  0  # atno 13495 bound_to 9044
  123.0172  243.3574  323.1526 LP  0  0  0  0  0  0  0  0  0  0  0  0  # atno 13496 bound_to 9044
  122.7845  240.0164  322.7241 LP  0  0  0  0  0  0  0  0  0  0  0  0  # atno 13497 bound_to 9087
  123.5182  238.7889  325.5914 LP  0  0  0  0  0  0  0  0  0  0  0  0  # atno 13498 bound_to 9090
  124.0615  240.2287  324.7965 LP  0  0  0  0  0  0  0  0  0  0  0  0  # atno 13499 bound_to 9090
  114.5501  240.0275  323.6529 LP  0  0  0  0  0  0  0  0  0  0  0  0  # atno 13500 bound_to 9098
  114.5713  238.5319  322.9974 LP  0  0  0  0  0  0  0  0  0  0  0  0  # atno 13501 bound_to 9098
  120.8748  241.1609  326.5056 LP  0  0  0  0  0  0  0  0  0  0  0  0  # atno 13502 bound_to 9125
  119.7253  238.3204  328.0578 LP  0  0  0  0  0  0  0  0  0  0  0  0  # atno 13503 bound_to 9128
  119.7744  240.0408  328.2525 LP  0  0  0  0  0  0  0  0  0  0  0  0  # atno 13504 bound_to 9128
  118.1972  239.3391  331.0520 LP  0  0  0  0  0  0  0  0  0  0  0  0  # atno 13505 bound_to 9202
  124.6893  249.1939  328.7068 LP  0  0  0  0  0  0  0  0  0  0  0  0  # atno 13514 bound_to 3592
  118.2481  247.8239  316.2311 LP  0  0  0  0  0  0  0  0  0  0  0  0  # atno 13515 bound_to 8997
  121.9646  246.6746  316.7353 LP  0  0  0  0  0  0  0  0  0  0  0  0  # atno 13516 bound_to 9000
  121.5256  247.9225  317.8533 LP  0  0  0  0  0  0  0  0  0  0  0  0  # atno 13517 bound_to 9000
  120.9405  238.3237  318.7896 LP  0  0  0  0  0  0  0  0  0  0  0  0  # atno 13518 bound_to 8370
  119.9163  238.1732  320.1783 LP  0  0  0  0  0  0  0  0  0  0  0  0  # atno 13519 bound_to 8370
  121.6110  238.8433  328.4322 LP  0  0  0  0  0  0  0  0  0  0  0  0  # atno 13520 bound_to 9155
  125.6585  237.6130  325.9561 LP  0  0  0  0  0  0  0  0  0  0  0  0  # atno 13521 bound_to 11068
  124.6280  239.5127  329.1634 LP  0  0  0  0  0  0  0  0  0  0  0  0  # atno 13522 bound_to 11071
  124.3273  238.1930  328.0827 LP  0  0  0  0  0  0  0  0  0  0  0  0  # atno 13523 bound_to 11071
  125.4582  246.2986  318.2690 LP  0  0  0  0  0  0  0  0  0  0  0  0  # atno 13524 bound_to 4888
  124.5332  247.2970  319.1714 LP  0  0  0  0  0  0  0  0  0  0  0  0  # atno 13525 bound_to 4888
  115.6467  241.1032  318.0312 LP  0  0  0  0  0  0  0  0  0  0  0  0  # atno 13526 bound_to 8388
  115.7338  239.3815  317.8632 LP  0  0  0  0  0  0  0  0  0  0  0  0  # atno 13527 bound_to 8388
  119.8277  246.3117  315.1362 LP  0  0  0  0  0  0  0  0  0  0  0  0  # atno 13528 bound_to 9002
  119.2495  244.8783  314.6091 LP  0  0  0  0  0  0  0  0  0  0  0  0  # atno 13529 bound_to 9002
  112.8575  244.3003  318.0668 LP  0  0  0  0  0  0  0  0  0  0  0  0  # atno 13530 bound_to 8451
  112.5075  245.9452  317.6522 LP  0  0  0  0  0  0  0  0  0  0  0  0  # atno 13531 bound_to 8451
  114.2185  248.7859  317.2034 LP  0  0  0  0  0  0  0  0  0  0  0  0  # atno 13532 bound_to 8473
  113.4915  250.1533  317.9792 LP  0  0  0  0  0  0  0  0  0  0  0  0  # atno 13533 bound_to 8473
  115.2573  249.9353  316.8939 LP  0  0  0  0  0  0  0  0  0  0  0  0  # atno 13534 bound_to 8962
  112.4487  248.4847  318.4998 LP  0  0  0  0  0  0  0  0  0  0  0  0  # atno 13535 bound_to 8501
  122.0939  247.6392  315.4764 LP  0  0  0  0  0  0  0  0  0  0  0  0  # atno 13538 bound_to 4907
  119.2838  249.5232  315.0464 LP  0  0  0  0  0  0  0  0  0  0  0  0  # atno 13539 bound_to 4910
  120.5980  248.5915  315.6829 LP  0  0  0  0  0  0  0  0  0  0  0  0  # atno 13540 bound_to 4910
  109.9722  246.6939  320.7005 LP  0  0  0  0  0  0  0  0  0  0  0  0  # atno 13543 bound_to 5549
  109.8779  247.3807  319.1132 LP  0  0  0  0  0  0  0  0  0  0  0  0  # atno 13544 bound_to 5549
  111.0961  238.1566  322.2353 LP  0  0  0  0  0  0  0  0  0  0  0  0  # atno 13545 bound_to 8344
  111.0985  239.3785  321.1520 LP  0  0  0  0  0  0  0  0  0  0  0  0  # atno 13546 bound_to 8344
  114.3261  239.3558  329.7015 LP  0  0  0  0  0  0  0  0  0  0  0  0  # atno 13547 bound_to 9205
  114.1236  237.8694  328.8357 LP  0  0  0  0  0  0  0  0  0  0  0  0  # atno 13548 bound_to 9205
  107.8638  244.2184  321.3837 LP  0  0  0  0  0  0  0  0  0  0  0  0  # atno 13553 bound_to 5551
  106.5621  243.9178  320.4447 LP  0  0  0  0  0  0  0  0  0  0  0  0  # atno 13554 bound_to 5551
  108.4291  245.3410  318.4103 LP  0  0  0  0  0  0  0  0  0  0  0  0  # atno 13555 bound_to 5571
  110.8578  239.9439  319.2056 LP  0  0  0  0  0  0  0  0  0  0  0  0  # atno 13556 bound_to 5645
  112.3509  239.9975  318.3292 LP  0  0  0  0  0  0  0  0  0  0  0  0  # atno 13557 bound_to 5645
  111.8671  237.3404  331.0941 LP  0  0  0  0  0  0  0  0  0  0  0  0  # atno 13560 bound_to 9363
  116.5322  237.7745  329.4474 LP  0  0  0  0  0  0  0  0  0  0  0  0  # atno 13561 bound_to 9231
  109.7719  237.0879  330.9703 LP  0  0  0  0  0  0  0  0  0  0  0  0  # atno 13562 bound_to 9321
  110.0971  237.6018  332.5921 LP  0  0  0  0  0  0  0  0  0  0  0  0  # atno 13563 bound_to 9321
  106.7855  244.7806  318.1573 LP  0  0  0  0  0  0  0  0  0  0  0  0  # atno 13566 bound_to 5546
  109.1008  242.5542  315.9756 LP  0  0  0  0  0  0  0  0  0  0  0  0  # atno 13567 bound_to 5574
  108.2510  243.3659  317.2480 LP  0  0  0  0  0  0  0  0  0  0  0  0  # atno 13568 bound_to 5574
  110.7362  244.6832  316.5251 LP  0  0  0  0  0  0  0  0  0  0  0  0  # atno 13569 bound_to 5604
  109.3204  249.3422  318.0266 LP  0  0  0  0  0  0  0  0  0  0  0  0  # atno 13570 bound_to 8525
  107.2604  247.4051  316.2267 LP  0  0  0  0  0  0  0  0  0  0  0  0  # atno 13571 bound_to 5523
  107.0149  247.9371  317.8566 LP  0  0  0  0  0  0  0  0  0  0  0  0  # atno 13572 bound_to 5523
  101.9050  242.3435  325.5816 LP  0  0  0  0  0  0  0  0  0  0  0  0  # atno 13573 bound_to 6144
  102.5908  242.1939  323.9982 LP  0  0  0  0  0  0  0  0  0  0  0  0  # atno 13574 bound_to 6144
  110.1972  246.3968  317.2286 LP  0  0  0  0  0  0  0  0  0  0  0  0  # atno 13575 bound_to 8506
  109.4572  246.2773  315.7778 LP  0  0  0  0  0  0  0  0  0  0  0  0  # atno 13576 bound_to 8506
  116.5345  237.2860  332.0703 LP  0  0  0  0  0  0  0  0  0  0  0  0  # atno 13577 bound_to 9175
  116.1288  238.9591  331.8797 LP  0  0  0  0  0  0  0  0  0  0  0  0  # atno 13578 bound_to 9175
  119.7608  240.7292  333.1626 LP  0  0  0  0  0  0  0  0  0  0  0  0  # atno 13579 bound_to 9178
  119.6490  240.1766  331.6301 LP  0  0  0  0  0  0  0  0  0  0  0  0  # atno 13580 bound_to 9178
  114.3031  234.0857  329.9944 LP  0  0  0  0  0  0  0  0  0  0  0  0  # atno 13581 bound_to 9234
  113.6519  235.5380  329.3112 LP  0  0  0  0  0  0  0  0  0  0  0  0  # atno 13582 bound_to 9234
  116.8657  234.7588  329.0598 LP  0  0  0  0  0  0  0  0  0  0  0  0  # atno 13583 bound_to 9265
  115.5537  235.9769  331.7227 LP  0  0  0  0  0  0  0  0  0  0  0  0  # atno 13584 bound_to 9282
  112.4085  235.4201  333.7767 LP  0  0  0  0  0  0  0  0  0  0  0  0  # atno 13585 bound_to 9285
  112.1957  236.9152  334.6249 LP  0  0  0  0  0  0  0  0  0  0  0  0  # atno 13586 bound_to 9285
  114.1856  237.2783  331.8809 LP  0  0  0  0  0  0  0  0  0  0  0  0  # atno 13587 bound_to 9318
  111.7614  235.3559  330.8437 LP  0  0  0  0  0  0  0  0  0  0  0  0  # atno 13588 bound_to 9391
  109.4435  234.2099  328.8247 LP  0  0  0  0  0  0  0  0  0  0  0  0  # atno 13592 bound_to 9366
  108.8676  235.6297  329.6324 LP  0  0  0  0  0  0  0  0  0  0  0  0  # atno 13593 bound_to 9366
  111.0285  251.8358  329.1118 LP  0  0  0  0  0  0  0  0  0  0  0  0  # atno 13594 bound_to 12888
  111.3568  253.1726  329.9904 LP  0  0  0  0  0  0  0  0  0  0  0  0  # atno 13595 bound_to 12888
  109.9129  246.3339  336.4869 LP  0  0  0  0  0  0  0  0  0  0  0  0  # atno 13596 bound_to 13450
  108.5665  246.8351  337.2632 LP  0  0  0  0  0  0  0  0  0  0  0  0  # atno 13597 bound_to 13450

> <Gold.Score>
     Fitness  S(hb_ext) S(vdw_ext)  S(hb_int)    S(int)      intcor
     33.67       4.69      21.68       0.00      -0.82      -0.76

> <Gold.Goldscore.Fitness>
33.6719

> <Gold.Goldscore.Internal.Vdw>
-1.2207

> <Gold.Goldscore.Internal.Torsion>
-0.3681

> <Gold.Goldscore.External.Vdw>
21.6764

> <Gold.Goldscore.Internal.HBond>
0.0000

> <Gold.Goldscore.External.HBond>
4.6908

> <Gold.Goldscore.Internal.Correction>
-0.7650

> <Gold.Goldscore.Hbonds>
donor molecule, donor type, donor heavy atom, donor atom, acceptor molecule, acceptor atom, score
      P1  H  8344  8353       L1    11  0.13
      L1  H    10    23       P1  9370  0.74

> <Gold.Goldscore.Internal.Vdw.Weighted>
-1.2207

> <Gold.Goldscore.Internal.Torsion.Weighted>
-0.3681

> <Gold.Goldscore.External.Vdw.Weighted>
29.8050

> <Gold.Goldscore.Internal.HBond.Weighted>
0.0000

> <Gold.Goldscore.External.HBond.Weighted>
4.6908

> <Gold.Goldscore.Internal.Correction.Weighted>
-0.7650

> <Gold.Rescore>
     Score     S(PLP)   S(hbond)     S(cho)   S(metal)  DE(clash)   DE(tors)     intcor
     15.15     -12.61       0.99       0.00       0.00       0.00       0.22       ----

> <Gold.PLP.Fitness>
15.1512

> <Gold.PLP.PLP>
-12.6078

> <Gold.PLP.part.hbond>
-2.0000

> <Gold.PLP.part.metal>
0.0000

> <Gold.PLP.part.buried>
1.1368

> <Gold.PLP.part.nonpolar>
-16.8225

> <Gold.PLP.part.repulsive>
4.1670

> <Gold.PLP.ligand.clash>
0.0000

> <Gold.PLP.ligand.torsion>
0.2163

> <Gold.PLP.Chemscore.Hbond>
0.9920

> <Gold.PLP.Chemscore.CHOScore>
0.0000

> <Gold.PLP.Chemscore.Metal>
0.0000

> <Gold.Chemscore.Hbonds>
donor molecule, donor type, donor heavy atom, donor atom, acceptor molecule, acceptor atom, score
      L1  H    10    23       P1  9370  0.81

> <Gold.PLP.Chemscore.Internal.Correction>
   9.000000E+99

