#       Name:                CT1002167954
#       Creating user name   hitesit
#       Creation time:       Sun Apr 16 20:17:45 2023


#       File generated by GOLD software.
#

@<TRIPOS>MOLECULE
CT1002167954|ligand_prepared|mol2|1|dock6
    29    30     1
SMALL
NO_CHARGES


@<TRIPOS>ATOM
      1 C1         112.3912 242.2896 326.4533 C.3            1 RES1               0.0000
      2 C2         112.7728 242.7956 327.8594 C.ar           1 RES1               0.0000
      3 C3         110.8997 241.9716 326.5026 C.2            1 RES1               0.0000
      4 C4         112.7572 243.4079 325.4837 C.2            1 RES1               0.0000
      5 C5         113.1513 241.0143 326.0206 C.3            1 RES1               0.0000
      6 C6         111.8264 243.4140 328.6710 C.ar           1 RES1               0.0000
      7 C7         114.0642 242.6490 328.3589 C.ar           1 RES1               0.0000
      8 N8         110.0491 242.8322 325.8735 N.am           1 RES1               0.0000
      9 O9         110.4730 241.0021 327.1176 O.2            1 RES1               0.0000
     10 N10        111.7399 244.0344 324.8126 N.am           1 RES1               0.0000
     11 O11        113.9160 243.7633 325.3072 O.2            1 RES1               0.0000
     12 C12        112.5230 240.2985 324.8353 C.3            1 RES1               0.0000
     13 C13        112.1581 243.8668 329.9372 C.ar           1 RES1               0.0000
     14 C14        114.3938 243.1027 329.6254 C.ar           1 RES1               0.0000
     15 C15        110.4001 243.8180 324.9865 C.2            1 RES1               0.0000
     16 C16        113.4417 243.7111 330.4154 C.ar           1 RES1               0.0000
     17 O17        109.5434 244.4599 324.3855 O.2            1 RES1               0.0000
     18 H18        114.1817 241.2879 325.7622 H              1 RES1               0.0000
     19 H19        113.1915 240.3217 326.8704 H              1 RES1               0.0000
     20 H20        110.8118 243.5476 328.3107 H              1 RES1               0.0000
     21 H21        114.8298 242.1743 327.7547 H              1 RES1               0.0000
     22 H22        109.0605 242.7338 326.0818 H              1 RES1               0.0000
     23 H23        112.0061 244.7261 324.1190 H              1 RES1               0.0000
     24 H24        113.0952 239.4111 324.5730 H              1 RES1               0.0000
     25 H25        111.5056 239.9896 325.0663 H              1 RES1               0.0000
     26 H26        112.4900 240.9500 323.9646 H              1 RES1               0.0000
     27 H27        111.4055 244.3462 330.5544 H              1 RES1               0.0000
     28 H28        115.4054 242.9786 329.9975 H              1 RES1               0.0000
     29 H29        113.7012 244.0655 331.4075 H              1 RES1               0.0000
@<TRIPOS>BOND
    1    1    2 1     
    2    1    3 1     
    3    1    4 1     
    4    1    5 1     
    5    2    6 ar    
    6    2    7 ar    
    7    3    8 1     
    8    3    9 2     
    9    4   10 1     
   10    4   11 2     
   11    5   12 1     
   12    5   18 1     
   13    5   19 1     
   14    6   13 ar    
   15    6   20 1     
   16    7   14 ar    
   17    7   21 1     
   18    8   15 1     
   19    8   22 1     
   20   10   15 1     
   21   10   23 1     
   22   12   24 1     
   23   12   25 1     
   24   12   26 1     
   25   13   16 ar    
   26   13   27 1     
   27   14   16 ar    
   28   14   28 1     
   29   15   17 2     
   30   16   29 1     
@<TRIPOS>SUBSTRUCTURE
      1 RES1           1
@<TRIPOS>SET
DONOR_HYDROGENS      STATIC     ATOMS    <user>   **** ""
2 22 23
ATOM$RED        STATIC     ATOMS    COLORGROUP SYSTEM
2 22 23
@<TRIPOS>COMMENT
> <Gold.Version>
2022.3.0

> <Gold.Id.Protein>
unknown|4uh6_clean|pdb

> <Gold.Protein.RotatedTorsions>
[ 8453 8448 8449 8450 ] final  -28.35 input   43.75 | X-H torsion
[ 8477 8470 8471 8472 ] final  -79.05 input  101.27 | X-H torsion
[ 9021 9017 9018 9019 ] final   45.12 input   41.82 | X-H torsion
[ 9055 9041 9042 9043 ] final  134.55 input   38.00 | X-H torsion
[ 9104 9087 9088 9089 ] final  144.33 input   99.63 | X-H torsion
[ 9112 9098 9097 9095 ] final   34.59 input   60.00 | X-H torsion
[ 9142 9125 9126 9127 ] final  -31.42 input   87.39 | X-H torsion
[ 9217 9202 9203 9204 ] final  -77.02 input  119.00 | X-H torsion
[ 3599 3592 3593 3594 ] final  -73.48 input   87.50 | X-H torsion
[ 9003 8997 8998 8999 ] final   53.08 input   29.71 | X-H torsion
[ 9162 9155 9156 9157 ] final   95.65 input  127.29 | X-H torsion
[ 11075 11068 11069 11070 ] final  161.67 input   56.03 | X-H torsion
[ 4901 4888 4887 4884 ] final -154.23 input   60.01 | X-H torsion
[ 9007 9002 9001 8998 ] final  -36.03 input   59.98 | X-H torsion
[ 8973 8962 8963 8964 ] final  -27.63 input   50.05 | X-H torsion
[ 8510 8501 8502 8503 ] final   17.41 input   53.62 | X-H torsion
[ 4917 4907 4908 4909 ] final   97.92 input   25.27 | X-H torsion
[ 8353 8344 8343 8341 ] final  177.66 input   59.99 | X-H torsion
[ 5556 5551 5550 5547 ] final  151.65 input   59.99 | X-H torsion
[ 5580 5571 5572 5573 ] final   84.69 input   51.16 | X-H torsion
[ 9375 9363 9364 9365 ] final -148.80 input  121.73 | X-H torsion
[ 9250 9231 9232 9233 ] final -109.43 input   97.49 | X-H torsion
[ 5552 5546 5547 5548 ] final   85.27 input   98.49 | X-H torsion
[ 5612 5604 5605 5606 ] final -178.04 input  122.00 | X-H torsion
[ 8539 8525 8526 8527 ] final  -41.67 input   68.51 | X-H torsion
[ 8514 8506 8505 8502 ] final  -20.75 input   59.98 | X-H torsion
[ 9192 9178 9176 9173 ] final  -82.20 input   60.02 | X-H torsion
[ 9272 9265 9266 9267 ] final  103.16 input  106.17 | X-H torsion
[ 9298 9282 9283 9284 ] final  -27.58 input   76.97 | X-H torsion
[ 9342 9318 9319 9320 ] final   47.25 input  100.94 | X-H torsion
[ 9411 9391 9392 9393 ] final  105.90 input   95.23 | X-H torsion
[ 12906 12888 12887 12885 ] final  -34.81 input   60.01 | X-H torsion
[ 13471 13450 13449 13445 ] final   93.32 input   59.98 | X-H torsion
[ 3579 3563 3564 3565 ] final   -6.72 input   99.66 | X-H torsion
[ 13485 8425 8424 8423 ] final  158.19 input    0.00 | X-H torsion
[ 13489 8965 8964 8963 ] final   65.13 input    0.00 | X-H torsion
[ 13492 9020 9019 9018 ] final   -6.35 input   -0.00 | X-H torsion
[ 13495 9044 9043 9042 ] final  -85.20 input    0.00 | X-H torsion
[ 13498 9090 9089 9088 ] final  141.27 input    0.00 | X-H torsion
[ 13503 9128 9127 9126 ] final  162.38 input    0.00 | X-H torsion
[ 13516 9000 8999 8998 ] final   39.97 input    0.00 | X-H torsion
[ 13518 8370 8369 8368 ] final  124.45 input    0.00 | X-H torsion
[ 13522 11071 11070 11069 ] final   38.63 input   -0.00 | X-H torsion
[ 13526 8388 8387 8386 ] final  172.27 input    0.00 | X-H torsion
[ 13530 8451 8450 8449 ] final  -94.99 input    0.00 | X-H torsion
[ 13532 8473 8472 8471 ] final  -57.17 input    0.00 | X-H torsion
[ 13539 4910 4909 4908 ] final -110.67 input   -0.00 | X-H torsion
[ 13543 5549 5548 5547 ] final  -42.90 input    0.00 | X-H torsion
[ 13547 9205 9204 9203 ] final  176.20 input   -0.00 | X-H torsion
[ 13556 5645 5644 5643 ] final  -19.20 input   -0.00 | X-H torsion
[ 13562 9321 9320 9319 ] final  118.63 input    0.00 | X-H torsion
[ 13567 5574 5573 5572 ] final -170.83 input    0.00 | X-H torsion
[ 13571 5523 5522 5521 ] final -169.39 input    0.00 | X-H torsion
[ 13573 6144 6143 6142 ] final -168.06 input    0.00 | X-H torsion
[ 13577 9175 9174 9173 ] final -111.76 input    0.00 | X-H torsion
[ 13581 9234 9233 9232 ] final  -83.59 input    0.00 | X-H torsion
[ 13585 9285 9284 9283 ] final  -32.95 input    0.00 | X-H torsion
[ 13592 9366 9365 9364 ] final -102.52 input   -0.00 | X-H torsion

> <Gold.Protein.ActiveResidues>
 TRP311  MET341  HIS342  TRP414  ARG419  CYS420  VAL421  GLY422  LEU429  LEU460 
 SER462  ALA463  ILE464  ASN481  SER482  GLN483  LEU484  ILE485  ARG486  ASP500 
 ALA502  ASN503  TRP566  TYR567  GLY568  LEU569  PRO570  ALA571  VAL572  SER573 
 ASN574  MET575  PRO588  PHE589  SER590  GLY591  TRP592  TYR593  MET594  GLY595 
 THR596  GLU597  ILE598  GLY599  VAL600  ARG601  ASP602  TYR603  ASP605  ARG608 
 ILE653  VAL654  TRP683  PRO687  SER691  PHE696  HIS697  TYR711  HEM750  H4B760 

> <Gold.Protein.RotatedAtoms>
  122.4127  249.7089  328.6499 H   0  0  0  0  0  0  0  0  0  0  0  0  # atno 3579 bound_to 3563
  124.7024  249.0470  328.7785 H   0  0  0  0  0  0  0  0  0  0  0  0  # atno 3599 bound_to 3592
  125.1892  247.8407  319.3056 H   0  0  0  0  0  0  0  0  0  0  0  0  # atno 4901 bound_to 4888
  122.5431  247.1516  314.9724 H   0  0  0  0  0  0  0  0  0  0  0  0  # atno 4917 bound_to 4907
  106.1313  244.6403  318.7140 H   0  0  0  0  0  0  0  0  0  0  0  0  # atno 5552 bound_to 5546
  107.0054  244.2244  322.2176 H   0  0  0  0  0  0  0  0  0  0  0  0  # atno 5556 bound_to 5551
  108.3117  243.9953  319.3410 H   0  0  0  0  0  0  0  0  0  0  0  0  # atno 5580 bound_to 5571
  111.3555  244.8226  316.4559 H   0  0  0  0  0  0  0  0  0  0  0  0  # atno 5612 bound_to 5604
  112.1502  239.6031  321.8481 H   0  0  0  0  0  0  0  0  0  0  0  0  # atno 8353 bound_to 8344
  115.3050  243.6607  319.8913 H   0  0  0  0  0  0  0  0  0  0  0  0  # atno 8453 bound_to 8448
  114.2554  245.8646  318.5933 H   0  0  0  0  0  0  0  0  0  0  0  0  # atno 8477 bound_to 8470
  110.9740  248.2691  319.1145 H   0  0  0  0  0  0  0  0  0  0  0  0  # atno 8510 bound_to 8501
  109.7983  246.8643  317.5058 H   0  0  0  0  0  0  0  0  0  0  0  0  # atno 8514 bound_to 8506
  110.2758  250.5211  318.2550 H   0  0  0  0  0  0  0  0  0  0  0  0  # atno 8539 bound_to 8525
  115.3555  248.8454  316.0263 H   0  0  0  0  0  0  0  0  0  0  0  0  # atno 8973 bound_to 8962
  119.3900  248.1055  316.3150 H   0  0  0  0  0  0  0  0  0  0  0  0  # atno 9003 bound_to 8997
  119.9148  246.3006  315.2107 H   0  0  0  0  0  0  0  0  0  0  0  0  # atno 9007 bound_to 9002
  120.0337  244.8351  319.3347 H   0  0  0  0  0  0  0  0  0  0  0  0  # atno 9021 bound_to 9017
  123.5408  243.5798  320.2111 H   0  0  0  0  0  0  0  0  0  0  0  0  # atno 9055 bound_to 9041
  121.5200  240.0142  322.1002 H   0  0  0  0  0  0  0  0  0  0  0  0  # atno 9104 bound_to 9087
  114.6686  240.3360  323.2486 H   0  0  0  0  0  0  0  0  0  0  0  0  # atno 9112 bound_to 9098
  121.3318  239.9926  325.9485 H   0  0  0  0  0  0  0  0  0  0  0  0  # atno 9142 bound_to 9125
  122.9076  238.3203  329.3571 H   0  0  0  0  0  0  0  0  0  0  0  0  # atno 9162 bound_to 9155
  120.9856  239.8979  332.2846 H   0  0  0  0  0  0  0  0  0  0  0  0  # atno 9192 bound_to 9178
  117.9498  238.7952  331.0544 H   0  0  0  0  0  0  0  0  0  0  0  0  # atno 9217 bound_to 9202
  116.0544  238.3569  328.4943 H   0  0  0  0  0  0  0  0  0  0  0  0  # atno 9250 bound_to 9231
  117.5254  235.5162  329.8328 H   0  0  0  0  0  0  0  0  0  0  0  0  # atno 9272 bound_to 9265
  115.3584  235.4193  331.8132 H   0  0  0  0  0  0  0  0  0  0  0  0  # atno 9298 bound_to 9282
  114.2619  237.4028  331.8350 H   0  0  0  0  0  0  0  0  0  0  0  0  # atno 9342 bound_to 9318
  112.0567  238.4903  330.1520 H   0  0  0  0  0  0  0  0  0  0  0  0  # atno 9375 bound_to 9363
  112.6335  234.8959  330.2096 H   0  0  0  0  0  0  0  0  0  0  0  0  # atno 9411 bound_to 9391
  126.1372  238.9320  325.0540 H   0  0  0  0  0  0  0  0  0  0  0  0  # atno 11075 bound_to 11068
  111.1593  251.8173  328.9449 H   0  0  0  0  0  0  0  0  0  0  0  0  # atno 12906 bound_to 12888
  109.8434  246.9068  338.0988 H   0  0  0  0  0  0  0  0  0  0  0  0  # atno 13471 bound_to 13450
  117.8411  244.7440  318.5632 LP  0  0  0  0  0  0  0  0  0  0  0  0  # atno 13485 bound_to 8425
  118.6059  243.9541  319.9015 LP  0  0  0  0  0  0  0  0  0  0  0  0  # atno 13486 bound_to 8425
  116.1020  242.7973  318.5990 LP  0  0  0  0  0  0  0  0  0  0  0  0  # atno 13487 bound_to 8448
  115.4065  246.9695  319.3097 LP  0  0  0  0  0  0  0  0  0  0  0  0  # atno 13488 bound_to 8470
  115.9083  247.2556  317.2797 LP  0  0  0  0  0  0  0  0  0  0  0  0  # atno 13489 bound_to 8965
  116.7548  247.4860  318.7731 LP  0  0  0  0  0  0  0  0  0  0  0  0  # atno 13490 bound_to 8965
  120.6310  245.9995  318.1741 LP  0  0  0  0  0  0  0  0  0  0  0  0  # atno 13491 bound_to 9017
  121.8201  243.1788  317.6824 LP  0  0  0  0  0  0  0  0  0  0  0  0  # atno 13492 bound_to 9020
  122.4312  241.8551  318.6175 LP  0  0  0  0  0  0  0  0  0  0  0  0  # atno 13493 bound_to 9020
  121.9537  243.7251  320.9358 LP  0  0  0  0  0  0  0  0  0  0  0  0  # atno 13494 bound_to 9041
  123.1399  242.9216  323.7436 LP  0  0  0  0  0  0  0  0  0  0  0  0  # atno 13495 bound_to 9044
  121.4748  243.1900  323.3495 LP  0  0  0  0  0  0  0  0  0  0  0  0  # atno 13496 bound_to 9044
  122.7358  241.0289  322.8415 LP  0  0  0  0  0  0  0  0  0  0  0  0  # atno 13497 bound_to 9087
  124.1246  240.1169  325.7119 LP  0  0  0  0  0  0  0  0  0  0  0  0  # atno 13498 bound_to 9090
  123.4551  238.9008  324.6761 LP  0  0  0  0  0  0  0  0  0  0  0  0  # atno 13499 bound_to 9090
  114.4824  238.7351  323.4722 LP  0  0  0  0  0  0  0  0  0  0  0  0  # atno 13500 bound_to 9098
  114.8606  239.3176  321.9943 LP  0  0  0  0  0  0  0  0  0  0  0  0  # atno 13501 bound_to 9098
  121.7885  241.6534  326.2505 LP  0  0  0  0  0  0  0  0  0  0  0  0  # atno 13502 bound_to 9125
  119.7106  238.3202  328.2457 LP  0  0  0  0  0  0  0  0  0  0  0  0  # atno 13503 bound_to 9128
  119.7891  240.0410  328.0646 LP  0  0  0  0  0  0  0  0  0  0  0  0  # atno 13504 bound_to 9128
  118.8860  239.0548  329.6049 LP  0  0  0  0  0  0  0  0  0  0  0  0  # atno 13505 bound_to 9202
  123.3351  248.7680  327.7295 LP  0  0  0  0  0  0  0  0  0  0  0  0  # atno 13514 bound_to 3592
  118.0537  248.2372  317.4253 LP  0  0  0  0  0  0  0  0  0  0  0  0  # atno 13515 bound_to 8997
  121.1913  247.9636  317.3269 LP  0  0  0  0  0  0  0  0  0  0  0  0  # atno 13516 bound_to 9000
  122.2989  246.6336  317.2617 LP  0  0  0  0  0  0  0  0  0  0  0  0  # atno 13517 bound_to 9000
  120.6982  238.6681  318.7761 LP  0  0  0  0  0  0  0  0  0  0  0  0  # atno 13518 bound_to 8370
  120.1586  237.8288  320.1918 LP  0  0  0  0  0  0  0  0  0  0  0  0  # atno 13519 bound_to 8370
  121.8200  238.6525  328.0272 LP  0  0  0  0  0  0  0  0  0  0  0  0  # atno 13520 bound_to 9155
  125.2787  237.8826  326.1502 LP  0  0  0  0  0  0  0  0  0  0  0  0  # atno 13521 bound_to 11068
  124.3445  238.5749  327.8137 LP  0  0  0  0  0  0  0  0  0  0  0  0  # atno 13522 bound_to 11071
  124.6107  239.1308  329.4324 LP  0  0  0  0  0  0  0  0  0  0  0  0  # atno 13523 bound_to 11071
  126.2295  246.9426  318.4334 LP  0  0  0  0  0  0  0  0  0  0  0  0  # atno 13524 bound_to 4888
  124.6789  246.4614  318.6081 LP  0  0  0  0  0  0  0  0  0  0  0  0  # atno 13525 bound_to 4888
  115.5000  240.7008  318.6569 LP  0  0  0  0  0  0  0  0  0  0  0  0  # atno 13526 bound_to 8388
  115.8805  239.7840  317.2375 LP  0  0  0  0  0  0  0  0  0  0  0  0  # atno 13527 bound_to 8388
  119.2064  244.9801  314.5767 LP  0  0  0  0  0  0  0  0  0  0  0  0  # atno 13528 bound_to 9002
  120.4595  244.8206  315.6115 LP  0  0  0  0  0  0  0  0  0  0  0  0  # atno 13529 bound_to 9002
  112.7637  245.6567  317.1825 LP  0  0  0  0  0  0  0  0  0  0  0  0  # atno 13530 bound_to 8451
  112.6014  244.5888  318.5365 LP  0  0  0  0  0  0  0  0  0  0  0  0  # atno 13531 bound_to 8451
  114.0883  249.8571  318.3299 LP  0  0  0  0  0  0  0  0  0  0  0  0  # atno 13532 bound_to 8473
  113.6218  249.0822  316.8527 LP  0  0  0  0  0  0  0  0  0  0  0  0  # atno 13533 bound_to 8473
  115.4862  250.5862  316.1185 LP  0  0  0  0  0  0  0  0  0  0  0  0  # atno 13534 bound_to 8962
  112.4071  247.9012  318.1909 LP  0  0  0  0  0  0  0  0  0  0  0  0  # atno 13535 bound_to 8501
  123.2582  248.6087  315.6157 LP  0  0  0  0  0  0  0  0  0  0  0  0  # atno 13538 bound_to 4907
  119.3461  248.8111  314.7853 LP  0  0  0  0  0  0  0  0  0  0  0  0  # atno 13539 bound_to 4910
  120.5357  249.3036  315.9440 LP  0  0  0  0  0  0  0  0  0  0  0  0  # atno 13540 bound_to 4910
  109.4596  247.6713  319.5443 LP  0  0  0  0  0  0  0  0  0  0  0  0  # atno 13543 bound_to 5549
  110.3905  246.4033  320.2694 LP  0  0  0  0  0  0  0  0  0  0  0  0  # atno 13544 bound_to 5549
  111.5492  238.2555  322.5348 LP  0  0  0  0  0  0  0  0  0  0  0  0  # atno 13545 bound_to 8344
  110.7808  238.9421  321.2680 LP  0  0  0  0  0  0  0  0  0  0  0  0  # atno 13546 bound_to 8344
  114.1279  237.8485  328.8728 LP  0  0  0  0  0  0  0  0  0  0  0  0  # atno 13547 bound_to 9205
  114.3218  239.3768  329.6644 LP  0  0  0  0  0  0  0  0  0  0  0  0  # atno 13548 bound_to 9205
  107.7065  244.1104  320.7534 LP  0  0  0  0  0  0  0  0  0  0  0  0  # atno 13553 bound_to 5551
  106.0918  243.9203  320.9057 LP  0  0  0  0  0  0  0  0  0  0  0  0  # atno 13554 bound_to 5551
  108.6763  245.6461  318.8734 LP  0  0  0  0  0  0  0  0  0  0  0  0  # atno 13555 bound_to 5571
  112.3418  240.0373  318.3183 LP  0  0  0  0  0  0  0  0  0  0  0  0  # atno 13556 bound_to 5645
  110.8669  239.9041  319.2165 LP  0  0  0  0  0  0  0  0  0  0  0  0  # atno 13557 bound_to 5645
  112.6142  236.9617  330.7953 LP  0  0  0  0  0  0  0  0  0  0  0  0  # atno 13560 bound_to 9363
  117.5082  237.4214  328.7702 LP  0  0  0  0  0  0  0  0  0  0  0  0  # atno 13561 bound_to 9231
  109.6241  237.8318  331.1359 LP  0  0  0  0  0  0  0  0  0  0  0  0  # atno 13562 bound_to 9321
  110.2450  236.8579  332.4266 LP  0  0  0  0  0  0  0  0  0  0  0  0  # atno 13563 bound_to 9321
  106.2129  246.1157  317.7837 LP  0  0  0  0  0  0  0  0  0  0  0  0  # atno 13566 bound_to 5546
  109.0568  242.7077  315.8761 LP  0  0  0  0  0  0  0  0  0  0  0  0  # atno 13567 bound_to 5574
  108.2949  243.2125  317.3474 LP  0  0  0  0  0  0  0  0  0  0  0  0  # atno 13568 bound_to 5574
  111.0742  243.2209  317.0980 LP  0  0  0  0  0  0  0  0  0  0  0  0  # atno 13569 bound_to 5604
  109.3873  249.1316  318.8202 LP  0  0  0  0  0  0  0  0  0  0  0  0  # atno 13570 bound_to 8525
  107.5637  247.6358  317.7948 LP  0  0  0  0  0  0  0  0  0  0  0  0  # atno 13571 bound_to 5523
  106.7116  247.7064  316.2885 LP  0  0  0  0  0  0  0  0  0  0  0  0  # atno 13572 bound_to 5523
  101.8378  242.0773  324.0515 LP  0  0  0  0  0  0  0  0  0  0  0  0  # atno 13573 bound_to 6144
  102.6580  242.4601  325.5282 LP  0  0  0  0  0  0  0  0  0  0  0  0  # atno 13574 bound_to 6144
  109.9798  246.0232  316.1240 LP  0  0  0  0  0  0  0  0  0  0  0  0  # atno 13575 bound_to 8506
  108.7583  247.0964  316.2753 LP  0  0  0  0  0  0  0  0  0  0  0  0  # atno 13576 bound_to 8506
  116.0984  237.6181  331.3108 LP  0  0  0  0  0  0  0  0  0  0  0  0  # atno 13577 bound_to 9175
  116.5649  238.6271  332.6391 LP  0  0  0  0  0  0  0  0  0  0  0  0  # atno 13578 bound_to 9175
  119.9444  240.6910  333.2518 LP  0  0  0  0  0  0  0  0  0  0  0  0  # atno 13579 bound_to 9178
  119.5009  240.2766  331.7358 LP  0  0  0  0  0  0  0  0  0  0  0  0  # atno 13580 bound_to 9178
  113.8246  235.5507  330.0779 LP  0  0  0  0  0  0  0  0  0  0  0  0  # atno 13581 bound_to 9234
  114.1304  234.0730  329.2277 LP  0  0  0  0  0  0  0  0  0  0  0  0  # atno 13582 bound_to 9234
  115.8437  235.2194  329.4503 LP  0  0  0  0  0  0  0  0  0  0  0  0  # atno 13583 bound_to 9265
  116.8618  235.7087  332.6518 LP  0  0  0  0  0  0  0  0  0  0  0  0  # atno 13584 bound_to 9282
  112.6531  235.3762  334.2198 LP  0  0  0  0  0  0  0  0  0  0  0  0  # atno 13585 bound_to 9285
  111.9511  236.9591  334.1818 LP  0  0  0  0  0  0  0  0  0  0  0  0  # atno 13586 bound_to 9285
  114.0366  237.6951  333.5432 LP  0  0  0  0  0  0  0  0  0  0  0  0  # atno 13587 bound_to 9318
  110.9601  235.2521  329.8500 LP  0  0  0  0  0  0  0  0  0  0  0  0  # atno 13588 bound_to 9391
  108.9453  235.0917  330.0509 LP  0  0  0  0  0  0  0  0  0  0  0  0  # atno 13592 bound_to 9366
  109.3658  234.7479  328.4062 LP  0  0  0  0  0  0  0  0  0  0  0  0  # atno 13593 bound_to 9366
  111.2031  253.0299  330.0292 LP  0  0  0  0  0  0  0  0  0  0  0  0  # atno 13594 bound_to 12888
  112.2743  252.9932  328.7972 LP  0  0  0  0  0  0  0  0  0  0  0  0  # atno 13595 bound_to 12888
  110.0672  246.3426  336.5884 LP  0  0  0  0  0  0  0  0  0  0  0  0  # atno 13596 bound_to 13450
  108.5737  246.7734  337.0890 LP  0  0  0  0  0  0  0  0  0  0  0  0  # atno 13597 bound_to 13450

> <Gold.Score>
     Fitness  S(hb_ext) S(vdw_ext)  S(hb_int)    S(int)      intcor
     32.88       0.34      24.42       0.00      -1.04      -0.77

> <Gold.Goldscore.Fitness>
32.8806

> <Gold.Goldscore.Internal.Vdw>
-1.0368

> <Gold.Goldscore.Internal.Torsion>
-0.7649

> <Gold.Goldscore.External.Vdw>
24.4205

> <Gold.Goldscore.Internal.HBond>
0.0000

> <Gold.Goldscore.External.HBond>
0.3388

> <Gold.Goldscore.Internal.Correction>
-0.7653

> <Gold.Goldscore.Hbonds>
donor molecule, donor type, donor heavy atom, donor atom, acceptor molecule, acceptor atom, score
      P1  H  9537  9548       L1     9  0.06

> <Gold.Goldscore.Internal.Vdw.Weighted>
-1.0368

> <Gold.Goldscore.Internal.Torsion.Weighted>
-0.7649

> <Gold.Goldscore.External.Vdw.Weighted>
33.5782

> <Gold.Goldscore.Internal.HBond.Weighted>
0.0000

> <Gold.Goldscore.External.HBond.Weighted>
0.3388

> <Gold.Goldscore.Internal.Correction.Weighted>
-0.7653

> <Gold.Rescore>
     Score     S(PLP)   S(hbond)     S(cho)   S(metal)  DE(clash)   DE(tors)     intcor
     17.94     -18.34       0.75       0.00       0.00       0.74       0.96       ----

> <Gold.PLP.Fitness>
17.9409

> <Gold.PLP.PLP>
-18.3378

> <Gold.PLP.part.hbond>
-1.7873

> <Gold.PLP.part.metal>
0.0000

> <Gold.PLP.part.buried>
3.1129

> <Gold.PLP.part.nonpolar>
-23.0012

> <Gold.PLP.part.repulsive>
3.8755

> <Gold.PLP.ligand.clash>
0.7362

> <Gold.PLP.ligand.torsion>
0.9582

> <Gold.PLP.Chemscore.Hbond>
0.7519

> <Gold.PLP.Chemscore.CHOScore>
0.0000

> <Gold.PLP.Chemscore.Metal>
0.0000

> <Gold.Chemscore.Hbonds>
donor molecule, donor type, donor heavy atom, donor atom, acceptor molecule, acceptor atom, score
      P1  H  9537  9548       L1     9  0.47

> <Gold.PLP.Chemscore.Internal.Correction>
   9.000000E+99

