#       Name:                CT1002167954
#       Creating user name   hitesit
#       Creation time:       Sun Apr 16 20:17:44 2023


#       File generated by GOLD software.
#

@<TRIPOS>MOLECULE
CT1002167954|ligand_prepared|mol2|1|dock5
    29    30     1
SMALL
NO_CHARGES


@<TRIPOS>ATOM
      1 C1         113.0976 242.9835 326.2105 C.3            1 RES1               0.0000
      2 C2         114.1632 243.7084 325.3634 C.ar           1 RES1               0.0000
      3 C3         111.7633 243.2096 325.5056 C.2            1 RES1               0.0000
      4 C4         113.5266 241.5219 326.2761 C.2            1 RES1               0.0000
      5 C5         112.9839 243.5135 327.6588 C.3            1 RES1               0.0000
      6 C6         114.8238 244.8274 325.8619 C.ar           1 RES1               0.0000
      7 C7         114.4978 243.2693 324.0852 C.ar           1 RES1               0.0000
      8 N8         111.2182 242.1566 324.8319 N.am           1 RES1               0.0000
      9 O9         111.2174 244.3060 325.5076 O.2            1 RES1               0.0000
     10 N10        112.7261 240.5898 325.6693 N.am           1 RES1               0.0000
     11 O11        114.5593 241.1708 326.8335 O.2            1 RES1               0.0000
     12 C12        112.0249 242.7172 328.5297 C.3            1 RES1               0.0000
     13 C13        115.7861 245.4818 325.1110 C.ar           1 RES1               0.0000
     14 C14        115.4603 243.9255 323.3359 C.ar           1 RES1               0.0000
     15 C15        111.6073 240.8444 324.9238 C.2            1 RES1               0.0000
     16 C16        116.1053 245.0312 323.8478 C.ar           1 RES1               0.0000
     17 O17        110.9705 239.9570 324.3633 O.2            1 RES1               0.0000
     18 H18        113.9788 243.4949 328.1207 H              1 RES1               0.0000
     19 H19        112.6484 244.5575 327.6275 H              1 RES1               0.0000
     20 H20        114.5841 245.1980 326.8529 H              1 RES1               0.0000
     21 H21        114.0026 242.4022 323.6617 H              1 RES1               0.0000
     22 H22        110.4502 242.3639 324.2014 H              1 RES1               0.0000
     23 H23        112.9884 239.6160 325.7841 H              1 RES1               0.0000
     24 H24        111.9827 243.1310 329.5350 H              1 RES1               0.0000
     25 H25        111.0200 242.7355 328.1132 H              1 RES1               0.0000
     26 H26        112.3424 241.6791 328.6036 H              1 RES1               0.0000
     27 H27        116.2899 246.3524 325.5179 H              1 RES1               0.0000
     28 H28        115.7080 243.5676 322.3419 H              1 RES1               0.0000
     29 H29        116.8595 245.5438 323.2599 H              1 RES1               0.0000
@<TRIPOS>BOND
    1    1    2 1     
    2    1    3 1     
    3    1    4 1     
    4    1    5 1     
    5    2    6 ar    
    6    2    7 ar    
    7    3    8 1     
    8    3    9 2     
    9    4   10 1     
   10    4   11 2     
   11    5   12 1     
   12    5   18 1     
   13    5   19 1     
   14    6   13 ar    
   15    6   20 1     
   16    7   14 ar    
   17    7   21 1     
   18    8   15 1     
   19    8   22 1     
   20   10   15 1     
   21   10   23 1     
   22   12   24 1     
   23   12   25 1     
   24   12   26 1     
   25   13   16 ar    
   26   13   27 1     
   27   14   16 ar    
   28   14   28 1     
   29   15   17 2     
   30   16   29 1     
@<TRIPOS>SUBSTRUCTURE
      1 RES1           1
@<TRIPOS>SET
DONOR_HYDROGENS      STATIC     ATOMS    <user>   **** ""
2 22 23
ATOM$RED        STATIC     ATOMS    COLORGROUP SYSTEM
2 22 23
@<TRIPOS>COMMENT
> <Gold.Version>
2022.3.0

> <Gold.Id.Protein>
unknown|4uh6_clean|pdb

> <Gold.Protein.RotatedTorsions>
[ 8453 8448 8449 8450 ] final   41.74 input   43.75 | X-H torsion
[ 8477 8470 8471 8472 ] final  -25.84 input  101.27 | X-H torsion
[ 9021 9017 9018 9019 ] final  136.68 input   41.82 | X-H torsion
[ 9055 9041 9042 9043 ] final  103.35 input   38.00 | X-H torsion
[ 9104 9087 9088 9089 ] final   91.82 input   99.63 | X-H torsion
[ 9112 9098 9097 9095 ] final   90.89 input   60.00 | X-H torsion
[ 9142 9125 9126 9127 ] final  117.42 input   87.39 | X-H torsion
[ 9217 9202 9203 9204 ] final   22.36 input  119.00 | X-H torsion
[ 3599 3592 3593 3594 ] final   35.88 input   87.50 | X-H torsion
[ 9003 8997 8998 8999 ] final   39.85 input   29.71 | X-H torsion
[ 9162 9155 9156 9157 ] final  -38.48 input  127.29 | X-H torsion
[ 11075 11068 11069 11070 ] final -150.53 input   56.03 | X-H torsion
[ 4901 4888 4887 4884 ] final  -84.72 input   60.01 | X-H torsion
[ 9007 9002 9001 8998 ] final   19.39 input   59.98 | X-H torsion
[ 8973 8962 8963 8964 ] final  -13.24 input   50.05 | X-H torsion
[ 8510 8501 8502 8503 ] final -115.06 input   53.62 | X-H torsion
[ 4917 4907 4908 4909 ] final  -87.24 input   25.27 | X-H torsion
[ 8353 8344 8343 8341 ] final -163.76 input   59.99 | X-H torsion
[ 5556 5551 5550 5547 ] final  -11.72 input   59.99 | X-H torsion
[ 5580 5571 5572 5573 ] final  142.54 input   51.16 | X-H torsion
[ 9375 9363 9364 9365 ] final   17.52 input  121.73 | X-H torsion
[ 9250 9231 9232 9233 ] final  166.10 input   97.49 | X-H torsion
[ 5552 5546 5547 5548 ] final  148.92 input   98.49 | X-H torsion
[ 5612 5604 5605 5606 ] final -134.11 input  122.00 | X-H torsion
[ 8539 8525 8526 8527 ] final  128.72 input   68.51 | X-H torsion
[ 8514 8506 8505 8502 ] final  -78.35 input   59.98 | X-H torsion
[ 9192 9178 9176 9173 ] final  -54.28 input   60.02 | X-H torsion
[ 9272 9265 9266 9267 ] final  111.39 input  106.17 | X-H torsion
[ 9298 9282 9283 9284 ] final  -67.01 input   76.97 | X-H torsion
[ 9342 9318 9319 9320 ] final  135.72 input  100.94 | X-H torsion
[ 9411 9391 9392 9393 ] final -148.53 input   95.23 | X-H torsion
[ 12906 12888 12887 12885 ] final  -76.89 input   60.01 | X-H torsion
[ 13471 13450 13449 13445 ] final  -67.09 input   59.98 | X-H torsion
[ 3579 3563 3564 3565 ] final -144.19 input   99.66 | X-H torsion
[ 13485 8425 8424 8423 ] final -119.60 input    0.00 | X-H torsion
[ 13489 8965 8964 8963 ] final  -56.69 input    0.00 | X-H torsion
[ 13492 9020 9019 9018 ] final   15.09 input   -0.00 | X-H torsion
[ 13495 9044 9043 9042 ] final    6.38 input    0.00 | X-H torsion
[ 13498 9090 9089 9088 ] final  -65.07 input    0.00 | X-H torsion
[ 13503 9128 9127 9126 ] final -166.77 input    0.00 | X-H torsion
[ 13516 9000 8999 8998 ] final  152.47 input    0.00 | X-H torsion
[ 13518 8370 8369 8368 ] final -117.33 input    0.00 | X-H torsion
[ 13522 11071 11070 11069 ] final  -99.16 input   -0.00 | X-H torsion
[ 13526 8388 8387 8386 ] final    1.82 input    0.00 | X-H torsion
[ 13530 8451 8450 8449 ] final   91.87 input    0.00 | X-H torsion
[ 13532 8473 8472 8471 ] final -144.33 input    0.00 | X-H torsion
[ 13539 4910 4909 4908 ] final -157.66 input   -0.00 | X-H torsion
[ 13543 5549 5548 5547 ] final   91.20 input    0.00 | X-H torsion
[ 13547 9205 9204 9203 ] final    4.48 input   -0.00 | X-H torsion
[ 13556 5645 5644 5643 ] final   -7.38 input   -0.00 | X-H torsion
[ 13562 9321 9320 9319 ] final -177.57 input    0.00 | X-H torsion
[ 13567 5574 5573 5572 ] final   50.20 input    0.00 | X-H torsion
[ 13571 5523 5522 5521 ] final  -38.46 input    0.00 | X-H torsion
[ 13573 6144 6143 6142 ] final  -11.80 input    0.00 | X-H torsion
[ 13577 9175 9174 9173 ] final   14.91 input    0.00 | X-H torsion
[ 13581 9234 9233 9232 ] final -160.84 input    0.00 | X-H torsion
[ 13585 9285 9284 9283 ] final  172.56 input    0.00 | X-H torsion
[ 13592 9366 9365 9364 ] final  156.21 input   -0.00 | X-H torsion

> <Gold.Protein.ActiveResidues>
 TRP311  MET341  HIS342  TRP414  ARG419  CYS420  VAL421  GLY422  LEU429  LEU460 
 SER462  ALA463  ILE464  ASN481  SER482  GLN483  LEU484  ILE485  ARG486  ASP500 
 ALA502  ASN503  TRP566  TYR567  GLY568  LEU569  PRO570  ALA571  VAL572  SER573 
 ASN574  MET575  PRO588  PHE589  SER590  GLY591  TRP592  TYR593  MET594  GLY595 
 THR596  GLU597  ILE598  GLY599  VAL600  ARG601  ASP602  TYR603  ASP605  ARG608 
 ILE653  VAL654  TRP683  PRO687  SER691  PHE696  HIS697  TYR711  HEM750  H4B760 

> <Gold.Protein.RotatedAtoms>
  121.9044  250.2094  330.1423 H   0  0  0  0  0  0  0  0  0  0  0  0  # atno 3579 bound_to 3563
  123.8194  249.6490  327.8185 H   0  0  0  0  0  0  0  0  0  0  0  0  # atno 3599 bound_to 3592
  124.4703  247.0902  319.0591 H   0  0  0  0  0  0  0  0  0  0  0  0  # atno 4901 bound_to 4888
  123.3316  248.6000  315.5848 H   0  0  0  0  0  0  0  0  0  0  0  0  # atno 4917 bound_to 4907
  105.4862  245.3045  318.7912 H   0  0  0  0  0  0  0  0  0  0  0  0  # atno 5552 bound_to 5546
  107.1315  243.9865  320.3842 H   0  0  0  0  0  0  0  0  0  0  0  0  # atno 5556 bound_to 5551
  108.6723  244.5265  319.9242 H   0  0  0  0  0  0  0  0  0  0  0  0  # atno 5580 bound_to 5571
  110.7094  244.6885  316.5129 H   0  0  0  0  0  0  0  0  0  0  0  0  # atno 5612 bound_to 5604
  111.9757  239.6937  321.6184 H   0  0  0  0  0  0  0  0  0  0  0  0  # atno 8353 bound_to 8344
  114.8395  243.0702  319.2127 H   0  0  0  0  0  0  0  0  0  0  0  0  # atno 8453 bound_to 8448
  114.5073  246.4620  318.1351 H   0  0  0  0  0  0  0  0  0  0  0  0  # atno 8477 bound_to 8470
  112.4496  248.5155  318.5303 H   0  0  0  0  0  0  0  0  0  0  0  0  # atno 8510 bound_to 8501
  110.2578  246.2511  317.0290 H   0  0  0  0  0  0  0  0  0  0  0  0  # atno 8514 bound_to 8506
  109.4559  249.1463  318.9496 H   0  0  0  0  0  0  0  0  0  0  0  0  # atno 8539 bound_to 8525
  115.3103  248.8653  316.2426 H   0  0  0  0  0  0  0  0  0  0  0  0  # atno 8973 bound_to 8962
  119.4945  248.1844  316.4679 H   0  0  0  0  0  0  0  0  0  0  0  0  # atno 9003 bound_to 8997
  120.4822  245.8227  315.6659 H   0  0  0  0  0  0  0  0  0  0  0  0  # atno 9007 bound_to 9002
  120.2686  246.0851  319.3359 H   0  0  0  0  0  0  0  0  0  0  0  0  # atno 9021 bound_to 9017
  123.6184  243.6985  320.6682 H   0  0  0  0  0  0  0  0  0  0  0  0  # atno 9055 bound_to 9041
  122.1591  239.6492  322.3696 H   0  0  0  0  0  0  0  0  0  0  0  0  # atno 9104 bound_to 9087
  114.8506  240.2260  322.3915 H   0  0  0  0  0  0  0  0  0  0  0  0  # atno 9112 bound_to 9098
  121.3614  241.6257  326.4456 H   0  0  0  0  0  0  0  0  0  0  0  0  # atno 9142 bound_to 9125
  121.5630  238.8854  328.6150 H   0  0  0  0  0  0  0  0  0  0  0  0  # atno 9162 bound_to 9155
  120.7686  239.8318  331.8937 H   0  0  0  0  0  0  0  0  0  0  0  0  # atno 9192 bound_to 9178
  118.2880  238.1533  329.9275 H   0  0  0  0  0  0  0  0  0  0  0  0  # atno 9217 bound_to 9202
  116.9650  238.0558  327.7787 H   0  0  0  0  0  0  0  0  0  0  0  0  # atno 9250 bound_to 9231
  117.5514  235.4247  329.7476 H   0  0  0  0  0  0  0  0  0  0  0  0  # atno 9272 bound_to 9265
  115.5204  234.9303  332.1085 H   0  0  0  0  0  0  0  0  0  0  0  0  # atno 9298 bound_to 9282
  114.6057  238.3015  332.6070 H   0  0  0  0  0  0  0  0  0  0  0  0  # atno 9342 bound_to 9318
  112.4394  236.9453  330.9119 H   0  0  0  0  0  0  0  0  0  0  0  0  # atno 9375 bound_to 9363
  111.6660  234.8287  329.1862 H   0  0  0  0  0  0  0  0  0  0  0  0  # atno 9411 bound_to 9391
  126.4066  238.2765  325.0950 H   0  0  0  0  0  0  0  0  0  0  0  0  # atno 11075 bound_to 11068
  110.8469  252.0362  329.4983 H   0  0  0  0  0  0  0  0  0  0  0  0  # atno 12906 bound_to 12888
  109.4555  246.3755  336.3739 H   0  0  0  0  0  0  0  0  0  0  0  0  # atno 13471 bound_to 13450
  117.8148  244.9680  319.6794 LP  0  0  0  0  0  0  0  0  0  0  0  0  # atno 13485 bound_to 8425
  118.6322  243.7301  318.7853 LP  0  0  0  0  0  0  0  0  0  0  0  0  # atno 13486 bound_to 8425
  116.5583  243.3761  319.2642 LP  0  0  0  0  0  0  0  0  0  0  0  0  # atno 13487 bound_to 8448
  115.1614  246.3881  319.7555 LP  0  0  0  0  0  0  0  0  0  0  0  0  # atno 13488 bound_to 8470
  116.1997  248.0679  318.5231 LP  0  0  0  0  0  0  0  0  0  0  0  0  # atno 13489 bound_to 8965
  116.4633  246.6738  317.5296 LP  0  0  0  0  0  0  0  0  0  0  0  0  # atno 13490 bound_to 8965
  120.4029  244.7854  318.1729 LP  0  0  0  0  0  0  0  0  0  0  0  0  # atno 13491 bound_to 9017
  122.1340  243.1953  317.6116 LP  0  0  0  0  0  0  0  0  0  0  0  0  # atno 13492 bound_to 9020
  122.1173  241.8386  318.6882 LP  0  0  0  0  0  0  0  0  0  0  0  0  # atno 13493 bound_to 9020
  121.8787  243.6103  320.4936 LP  0  0  0  0  0  0  0  0  0  0  0  0  # atno 13494 bound_to 9041
  122.5224  243.5570  322.8738 LP  0  0  0  0  0  0  0  0  0  0  0  0  # atno 13495 bound_to 9044
  122.0923  242.5546  324.2193 LP  0  0  0  0  0  0  0  0  0  0  0  0  # atno 13496 bound_to 9044
  122.1132  241.3845  322.5790 LP  0  0  0  0  0  0  0  0  0  0  0  0  # atno 13497 bound_to 9087
  123.4272  238.7387  325.0347 LP  0  0  0  0  0  0  0  0  0  0  0  0  # atno 13498 bound_to 9090
  124.1526  240.2790  325.3532 LP  0  0  0  0  0  0  0  0  0  0  0  0  # atno 13499 bound_to 9090
  114.4723  239.5524  323.8235 LP  0  0  0  0  0  0  0  0  0  0  0  0  # atno 13500 bound_to 9098
  114.6874  238.6112  322.5064 LP  0  0  0  0  0  0  0  0  0  0  0  0  # atno 13501 bound_to 9098
  121.7597  240.0641  325.7667 LP  0  0  0  0  0  0  0  0  0  0  0  0  # atno 13502 bound_to 9125
  119.6836  238.4898  328.6732 LP  0  0  0  0  0  0  0  0  0  0  0  0  # atno 13503 bound_to 9128
  119.8161  239.8715  327.6371 LP  0  0  0  0  0  0  0  0  0  0  0  0  # atno 13504 bound_to 9128
  118.5527  239.6875  330.7157 LP  0  0  0  0  0  0  0  0  0  0  0  0  # atno 13505 bound_to 9202
  124.2033  248.1760  328.6734 LP  0  0  0  0  0  0  0  0  0  0  0  0  # atno 13514 bound_to 3592
  117.9498  248.1588  317.2734 LP  0  0  0  0  0  0  0  0  0  0  0  0  # atno 13515 bound_to 8997
  122.2180  247.2255  318.0161 LP  0  0  0  0  0  0  0  0  0  0  0  0  # atno 13516 bound_to 9000
  121.2722  247.3717  316.5725 LP  0  0  0  0  0  0  0  0  0  0  0  0  # atno 13517 bound_to 9000
  119.7888  238.6004  319.9498 LP  0  0  0  0  0  0  0  0  0  0  0  0  # atno 13518 bound_to 8370
  121.0680  237.8965  319.0181 LP  0  0  0  0  0  0  0  0  0  0  0  0  # atno 13519 bound_to 8370
  123.1235  238.1046  328.7466 LP  0  0  0  0  0  0  0  0  0  0  0  0  # atno 13520 bound_to 9155
  125.0120  238.5316  326.1097 LP  0  0  0  0  0  0  0  0  0  0  0  0  # atno 13521 bound_to 11068
  124.6236  239.6048  329.0271 LP  0  0  0  0  0  0  0  0  0  0  0  0  # atno 13522 bound_to 11071
  124.3317  238.1009  328.2190 LP  0  0  0  0  0  0  0  0  0  0  0  0  # atno 13523 bound_to 11071
  125.9437  247.7817  319.0417 LP  0  0  0  0  0  0  0  0  0  0  0  0  # atno 13524 bound_to 4888
  125.6883  246.3777  318.2479 LP  0  0  0  0  0  0  0  0  0  0  0  0  # atno 13525 bound_to 4888
  115.8623  239.6685  317.3219 LP  0  0  0  0  0  0  0  0  0  0  0  0  # atno 13526 bound_to 8388
  115.5182  240.8163  318.5725 LP  0  0  0  0  0  0  0  0  0  0  0  0  # atno 13527 bound_to 8388
  119.2311  245.8551  314.6261 LP  0  0  0  0  0  0  0  0  0  0  0  0  # atno 13528 bound_to 9002
  119.8630  244.4271  315.1035 LP  0  0  0  0  0  0  0  0  0  0  0  0  # atno 13529 bound_to 9002
  112.5590  244.6689  318.5867 LP  0  0  0  0  0  0  0  0  0  0  0  0  # atno 13530 bound_to 8451
  112.8060  245.5765  317.1323 LP  0  0  0  0  0  0  0  0  0  0  0  0  # atno 13531 bound_to 8451
  113.2178  250.0535  317.5366 LP  0  0  0  0  0  0  0  0  0  0  0  0  # atno 13532 bound_to 8473
  114.4922  248.8857  317.6460 LP  0  0  0  0  0  0  0  0  0  0  0  0  # atno 13533 bound_to 8473
  115.5302  250.5668  315.9077 LP  0  0  0  0  0  0  0  0  0  0  0  0  # atno 13534 bound_to 8962
  110.9496  247.6579  318.7680 LP  0  0  0  0  0  0  0  0  0  0  0  0  # atno 13535 bound_to 8501
  122.4831  247.1850  315.0138 LP  0  0  0  0  0  0  0  0  0  0  0  0  # atno 13538 bound_to 4907
  119.2648  249.4610  315.0042 LP  0  0  0  0  0  0  0  0  0  0  0  0  # atno 13539 bound_to 4910
  120.6170  248.6537  315.7251 LP  0  0  0  0  0  0  0  0  0  0  0  0  # atno 13540 bound_to 4910
  109.9660  246.6996  320.7032 LP  0  0  0  0  0  0  0  0  0  0  0  0  # atno 13543 bound_to 5549
  109.8841  247.3751  319.1105 LP  0  0  0  0  0  0  0  0  0  0  0  0  # atno 13544 bound_to 5549
  111.7988  238.4136  322.6078 LP  0  0  0  0  0  0  0  0  0  0  0  0  # atno 13545 bound_to 8344
  110.7068  238.6929  321.4262 LP  0  0  0  0  0  0  0  0  0  0  0  0  # atno 13546 bound_to 8344
  114.3079  239.4271  329.5509 LP  0  0  0  0  0  0  0  0  0  0  0  0  # atno 13547 bound_to 9205
  114.1417  237.7981  328.9863 LP  0  0  0  0  0  0  0  0  0  0  0  0  # atno 13548 bound_to 9205
  106.0444  244.0097  321.5950 LP  0  0  0  0  0  0  0  0  0  0  0  0  # atno 13553 bound_to 5551
  107.6270  244.2605  321.9099 LP  0  0  0  0  0  0  0  0  0  0  0  0  # atno 13554 bound_to 5551
  108.3317  245.1385  318.3161 LP  0  0  0  0  0  0  0  0  0  0  0  0  # atno 13555 bound_to 5571
  112.2845  240.2027  318.2842 LP  0  0  0  0  0  0  0  0  0  0  0  0  # atno 13556 bound_to 5645
  110.9242  239.7387  319.2507 LP  0  0  0  0  0  0  0  0  0  0  0  0  # atno 13557 bound_to 5645
  112.2431  238.4600  330.0585 LP  0  0  0  0  0  0  0  0  0  0  0  0  # atno 13560 bound_to 9363
  116.6279  237.7124  329.4619 LP  0  0  0  0  0  0  0  0  0  0  0  0  # atno 13561 bound_to 9231
  109.8234  236.9459  331.0206 LP  0  0  0  0  0  0  0  0  0  0  0  0  # atno 13562 bound_to 9321
  110.0457  237.7437  332.5418 LP  0  0  0  0  0  0  0  0  0  0  0  0  # atno 13563 bound_to 9321
  106.8464  245.4635  317.7079 LP  0  0  0  0  0  0  0  0  0  0  0  0  # atno 13566 bound_to 5546
  108.2275  243.6352  316.9170 LP  0  0  0  0  0  0  0  0  0  0  0  0  # atno 13567 bound_to 5574
  109.1243  242.2850  316.3065 LP  0  0  0  0  0  0  0  0  0  0  0  0  # atno 13568 bound_to 5574
  111.7038  243.3516  317.0425 LP  0  0  0  0  0  0  0  0  0  0  0  0  # atno 13569 bound_to 5604
  110.2000  250.4942  318.1317 LP  0  0  0  0  0  0  0  0  0  0  0  0  # atno 13570 bound_to 8525
  107.3456  247.3683  316.2574 LP  0  0  0  0  0  0  0  0  0  0  0  0  # atno 13571 bound_to 5523
  106.9297  247.9738  317.8259 LP  0  0  0  0  0  0  0  0  0  0  0  0  # atno 13572 bound_to 5523
  102.3215  242.4225  325.6390 LP  0  0  0  0  0  0  0  0  0  0  0  0  # atno 13573 bound_to 6144
  102.1742  242.1149  323.9408 LP  0  0  0  0  0  0  0  0  0  0  0  0  # atno 13574 bound_to 6144
  109.2557  246.4326  315.7592 LP  0  0  0  0  0  0  0  0  0  0  0  0  # atno 13575 bound_to 8506
  109.0200  247.3042  317.1199 LP  0  0  0  0  0  0  0  0  0  0  0  0  # atno 13576 bound_to 8506
  116.7351  237.8710  332.6988 LP  0  0  0  0  0  0  0  0  0  0  0  0  # atno 13577 bound_to 9175
  115.9281  238.3741  331.2512 LP  0  0  0  0  0  0  0  0  0  0  0  0  # atno 13578 bound_to 9175
  120.3710  240.5415  333.3033 LP  0  0  0  0  0  0  0  0  0  0  0  0  # atno 13579 bound_to 9178
  119.2928  240.4927  332.0779 LP  0  0  0  0  0  0  0  0  0  0  0  0  # atno 13580 bound_to 9178
  114.2280  234.6232  330.4600 LP  0  0  0  0  0  0  0  0  0  0  0  0  # atno 13581 bound_to 9234
  113.7270  235.0005  328.8455 LP  0  0  0  0  0  0  0  0  0  0  0  0  # atno 13582 bound_to 9234
  115.8186  235.3079  329.5328 LP  0  0  0  0  0  0  0  0  0  0  0  0  # atno 13583 bound_to 9265
  116.7024  236.1897  332.3612 LP  0  0  0  0  0  0  0  0  0  0  0  0  # atno 13584 bound_to 9282
  111.8439  236.8111  333.8459 LP  0  0  0  0  0  0  0  0  0  0  0  0  # atno 13585 bound_to 9285
  112.7603  235.5242  334.5557 LP  0  0  0  0  0  0  0  0  0  0  0  0  # atno 13586 bound_to 9285
  113.7009  236.8176  332.7893 LP  0  0  0  0  0  0  0  0  0  0  0  0  # atno 13587 bound_to 9318
  111.9034  235.3177  330.8478 LP  0  0  0  0  0  0  0  0  0  0  0  0  # atno 13588 bound_to 9391
  109.3904  234.0881  329.2841 LP  0  0  0  0  0  0  0  0  0  0  0  0  # atno 13592 bound_to 9366
  108.9207  235.7515  329.1730 LP  0  0  0  0  0  0  0  0  0  0  0  0  # atno 13593 bound_to 9366
  111.7233  253.3794  329.7733 LP  0  0  0  0  0  0  0  0  0  0  0  0  # atno 13594 bound_to 12888
  112.0688  252.4230  328.4956 LP  0  0  0  0  0  0  0  0  0  0  0  0  # atno 13595 bound_to 12888
  108.7106  246.9609  337.6976 LP  0  0  0  0  0  0  0  0  0  0  0  0  # atno 13596 bound_to 13450
  110.3209  246.6899  337.7162 LP  0  0  0  0  0  0  0  0  0  0  0  0  # atno 13597 bound_to 13450

> <Gold.Score>
     Fitness  S(hb_ext) S(vdw_ext)  S(hb_int)    S(int)      intcor
     37.31       7.60      22.14       0.00      -0.74      -0.77

> <Gold.Goldscore.Fitness>
37.3103

> <Gold.Goldscore.Internal.Vdw>
-1.0951

> <Gold.Goldscore.Internal.Torsion>
-0.4090

> <Gold.Goldscore.External.Vdw>
22.1445

> <Gold.Goldscore.Internal.HBond>
0.0000

> <Gold.Goldscore.External.HBond>
7.6004

> <Gold.Goldscore.Internal.Correction>
-0.7653

> <Gold.Goldscore.Hbonds>
donor molecule, donor type, donor heavy atom, donor atom, acceptor molecule, acceptor atom, score
      P1  H  5690  5702       L1    17  0.21
      P1  H  5693  5706       L1    17  0.30
      P1  H  9538  9550       L1    17  0.06
      L1  H    10    23       P1  9370  0.70

> <Gold.Goldscore.Internal.Vdw.Weighted>
-1.0951

> <Gold.Goldscore.Internal.Torsion.Weighted>
-0.4090

> <Gold.Goldscore.External.Vdw.Weighted>
30.4487

> <Gold.Goldscore.Internal.HBond.Weighted>
0.0000

> <Gold.Goldscore.External.HBond.Weighted>
7.6004

> <Gold.Goldscore.Internal.Correction.Weighted>
-0.7653

> <Gold.Rescore>
     Score     S(PLP)   S(hbond)     S(cho)   S(metal)  DE(clash)   DE(tors)     intcor
     23.57     -19.81       1.89       0.00       0.00       0.00       0.96       ----

> <Gold.PLP.Fitness>
23.5728

> <Gold.PLP.PLP>
-19.8099

> <Gold.PLP.part.hbond>
-5.9167

> <Gold.PLP.part.metal>
0.0000

> <Gold.PLP.part.buried>
7.0524

> <Gold.PLP.part.nonpolar>
-26.7473

> <Gold.PLP.part.repulsive>
5.3373

> <Gold.PLP.ligand.clash>
0.0000

> <Gold.PLP.ligand.torsion>
0.9566

> <Gold.PLP.Chemscore.Hbond>
1.8920

> <Gold.PLP.Chemscore.CHOScore>
0.0000

> <Gold.PLP.Chemscore.Metal>
0.0000

> <Gold.Chemscore.Hbonds>
donor molecule, donor type, donor heavy atom, donor atom, acceptor molecule, acceptor atom, score
      L1  H    10    23       P1  9370  0.55
      P1  H  5690  5702       L1    17  0.23
      P1  H  5693  5706       L1    17  0.23
      P1  H  9538  9550       L1    17  0.10

> <Gold.PLP.Chemscore.Internal.Correction>
   9.000000E+99

