#       Name:                CT1002167954
#       Creating user name   hitesit
#       Creation time:       Sun Apr 16 20:17:43 2023


#       File generated by GOLD software.
#

@<TRIPOS>MOLECULE
CT1002167954|ligand_prepared|mol2|1|dock4
    29    30     1
SMALL
NO_CHARGES


@<TRIPOS>ATOM
      1 C1         112.7493 242.6915 326.2665 C.3            1 RES1               0.0000
      2 C2         112.2092 242.8128 327.7060 C.ar           1 RES1               0.0000
      3 C3         113.3356 241.2880 326.1457 C.2            1 RES1               0.0000
      4 C4         111.5646 242.9525 325.3429 C.2            1 RES1               0.0000
      5 C5         113.8556 243.7170 325.9257 C.3            1 RES1               0.0000
      6 C6         113.0766 243.0313 328.7722 C.ar           1 RES1               0.0000
      7 C7         110.8485 242.7112 327.9827 C.ar           1 RES1               0.0000
      8 N8         112.6332 240.3700 325.4220 N.am           1 RES1               0.0000
      9 O9         114.3785 240.9804 326.7097 O.2            1 RES1               0.0000
     10 N10        111.1219 241.9195 324.5589 N.am           1 RES1               0.0000
     11 O11        110.9999 244.0385 325.2993 O.2            1 RES1               0.0000
     12 C12        114.2639 243.7145 324.4610 C.3            1 RES1               0.0000
     13 C13        112.6006 243.1470 330.0677 C.ar           1 RES1               0.0000
     14 C14        110.3746 242.8270 329.2791 C.ar           1 RES1               0.0000
     15 C15        111.5830 240.6314 324.5791 C.2            1 RES1               0.0000
     16 C16        111.2494 243.0454 330.3220 C.ar           1 RES1               0.0000
     17 O17        111.0972 239.7444 323.8831 O.2            1 RES1               0.0000
     18 H18        113.5011 244.7204 326.1918 H              1 RES1               0.0000
     19 H19        114.7391 243.5001 326.5388 H              1 RES1               0.0000
     20 H20        114.1434 243.1115 328.5918 H              1 RES1               0.0000
     21 H21        110.1419 242.5385 327.1781 H              1 RES1               0.0000
     22 H22        112.9147 239.3993 325.5163 H              1 RES1               0.0000
     23 H23        110.3800 242.1303 323.8991 H              1 RES1               0.0000
     24 H24        115.0424 244.4518 324.2763 H              1 RES1               0.0000
     25 H25        114.6453 242.7384 324.1685 H              1 RES1               0.0000
     26 H26        113.4146 243.9515 323.8235 H              1 RES1               0.0000
     27 H27        113.2934 243.3175 330.8852 H              1 RES1               0.0000
     28 H28        109.3104 242.7458 329.4746 H              1 RES1               0.0000
     29 H29        110.8767 243.1365 331.3369 H              1 RES1               0.0000
@<TRIPOS>BOND
    1    1    2 1     
    2    1    3 1     
    3    1    4 1     
    4    1    5 1     
    5    2    6 ar    
    6    2    7 ar    
    7    3    8 1     
    8    3    9 2     
    9    4   10 1     
   10    4   11 2     
   11    5   12 1     
   12    5   18 1     
   13    5   19 1     
   14    6   13 ar    
   15    6   20 1     
   16    7   14 ar    
   17    7   21 1     
   18    8   15 1     
   19    8   22 1     
   20   10   15 1     
   21   10   23 1     
   22   12   24 1     
   23   12   25 1     
   24   12   26 1     
   25   13   16 ar    
   26   13   27 1     
   27   14   16 ar    
   28   14   28 1     
   29   15   17 2     
   30   16   29 1     
@<TRIPOS>SUBSTRUCTURE
      1 RES1           1
@<TRIPOS>SET
DONOR_HYDROGENS      STATIC     ATOMS    <user>   **** ""
2 22 23
ATOM$RED        STATIC     ATOMS    COLORGROUP SYSTEM
2 22 23
@<TRIPOS>COMMENT
> <Gold.Version>
2022.3.0

> <Gold.Id.Protein>
unknown|4uh6_clean|pdb

> <Gold.Protein.RotatedTorsions>
[ 8453 8448 8449 8450 ] final  -14.22 input   43.75 | X-H torsion
[ 8477 8470 8471 8472 ] final   84.61 input  101.27 | X-H torsion
[ 9021 9017 9018 9019 ] final   19.21 input   41.82 | X-H torsion
[ 9055 9041 9042 9043 ] final  -43.65 input   38.00 | X-H torsion
[ 9104 9087 9088 9089 ] final  -94.56 input   99.63 | X-H torsion
[ 9112 9098 9097 9095 ] final   21.80 input   60.00 | X-H torsion
[ 9142 9125 9126 9127 ] final  136.20 input   87.39 | X-H torsion
[ 9217 9202 9203 9204 ] final   91.40 input  119.00 | X-H torsion
[ 3599 3592 3593 3594 ] final  164.17 input   87.50 | X-H torsion
[ 9003 8997 8998 8999 ] final -107.07 input   29.71 | X-H torsion
[ 9162 9155 9156 9157 ] final  -98.77 input  127.29 | X-H torsion
[ 11075 11068 11069 11070 ] final  -67.27 input   56.03 | X-H torsion
[ 4901 4888 4887 4884 ] final   71.90 input   60.01 | X-H torsion
[ 9007 9002 9001 8998 ] final   83.77 input   59.98 | X-H torsion
[ 8973 8962 8963 8964 ] final  109.83 input   50.05 | X-H torsion
[ 8510 8501 8502 8503 ] final  -57.02 input   53.62 | X-H torsion
[ 4917 4907 4908 4909 ] final  -89.67 input   25.27 | X-H torsion
[ 8353 8344 8343 8341 ] final   -5.15 input   59.99 | X-H torsion
[ 5556 5551 5550 5547 ] final -152.31 input   59.99 | X-H torsion
[ 5580 5571 5572 5573 ] final    0.58 input   51.16 | X-H torsion
[ 9375 9363 9364 9365 ] final -153.07 input  121.73 | X-H torsion
[ 9250 9231 9232 9233 ] final  -19.18 input   97.49 | X-H torsion
[ 5552 5546 5547 5548 ] final  -50.44 input   98.49 | X-H torsion
[ 5612 5604 5605 5606 ] final -177.74 input  122.00 | X-H torsion
[ 8539 8525 8526 8527 ] final   85.39 input   68.51 | X-H torsion
[ 8514 8506 8505 8502 ] final -166.43 input   59.98 | X-H torsion
[ 9192 9178 9176 9173 ] final   24.65 input   60.02 | X-H torsion
[ 9272 9265 9266 9267 ] final   66.56 input  106.17 | X-H torsion
[ 9298 9282 9283 9284 ] final   48.80 input   76.97 | X-H torsion
[ 9342 9318 9319 9320 ] final  172.58 input  100.94 | X-H torsion
[ 9411 9391 9392 9393 ] final  166.91 input   95.23 | X-H torsion
[ 12906 12888 12887 12885 ] final    2.32 input   60.01 | X-H torsion
[ 13471 13450 13449 13445 ] final   58.43 input   59.98 | X-H torsion
[ 3579 3563 3564 3565 ] final  160.11 input   99.66 | X-H torsion
[ 13485 8425 8424 8423 ] final -167.51 input    0.00 | X-H torsion
[ 13489 8965 8964 8963 ] final  -26.81 input    0.00 | X-H torsion
[ 13492 9020 9019 9018 ] final -166.29 input   -0.00 | X-H torsion
[ 13495 9044 9043 9042 ] final  -43.69 input    0.00 | X-H torsion
[ 13498 9090 9089 9088 ] final  -29.75 input    0.00 | X-H torsion
[ 13503 9128 9127 9126 ] final  147.15 input    0.00 | X-H torsion
[ 13516 9000 8999 8998 ] final  -94.56 input    0.00 | X-H torsion
[ 13518 8370 8369 8368 ] final  -12.01 input    0.00 | X-H torsion
[ 13522 11071 11070 11069 ] final   82.29 input   -0.00 | X-H torsion
[ 13526 8388 8387 8386 ] final  104.78 input    0.00 | X-H torsion
[ 13530 8451 8450 8449 ] final  -18.75 input    0.00 | X-H torsion
[ 13532 8473 8472 8471 ] final -167.88 input    0.00 | X-H torsion
[ 13539 4910 4909 4908 ] final -162.61 input   -0.00 | X-H torsion
[ 13543 5549 5548 5547 ] final -137.05 input    0.00 | X-H torsion
[ 13547 9205 9204 9203 ] final -114.45 input   -0.00 | X-H torsion
[ 13556 5645 5644 5643 ] final  -91.88 input   -0.00 | X-H torsion
[ 13562 9321 9320 9319 ] final   42.75 input    0.00 | X-H torsion
[ 13567 5574 5573 5572 ] final -103.37 input    0.00 | X-H torsion
[ 13571 5523 5522 5521 ] final  152.38 input    0.00 | X-H torsion
[ 13573 6144 6143 6142 ] final  -33.08 input    0.00 | X-H torsion
[ 13577 9175 9174 9173 ] final -169.23 input    0.00 | X-H torsion
[ 13581 9234 9233 9232 ] final -138.60 input    0.00 | X-H torsion
[ 13585 9285 9284 9283 ] final   39.78 input    0.00 | X-H torsion
[ 13592 9366 9365 9364 ] final -163.81 input   -0.00 | X-H torsion

> <Gold.Protein.ActiveResidues>
 TRP311  MET341  HIS342  TRP414  ARG419  CYS420  VAL421  GLY422  LEU429  LEU460 
 SER462  ALA463  ILE464  ASN481  SER482  GLN483  LEU484  ILE485  ARG486  ASP500 
 ALA502  ASN503  TRP566  TYR567  GLY568  LEU569  PRO570  ALA571  VAL572  SER573 
 ASN574  MET575  PRO588  PHE589  SER590  GLY591  TRP592  TYR593  MET594  GLY595 
 THR596  GLU597  ILE598  GLY599  VAL600  ARG601  ASP602  TYR603  ASP605  ARG608 
 ILE653  VAL654  TRP683  PRO687  SER691  PHE696  HIS697  TYR711  HEM750  H4B760 

> <Gold.Protein.RotatedAtoms>
  121.5951  249.4415  330.1891 H   0  0  0  0  0  0  0  0  0  0  0  0  # atno 3579 bound_to 3563
  123.6085  248.1261  328.2006 H   0  0  0  0  0  0  0  0  0  0  0  0  # atno 3599 bound_to 3592
  126.1282  246.7587  318.3471 H   0  0  0  0  0  0  0  0  0  0  0  0  # atno 4901 bound_to 4888
  123.3614  248.5891  315.5650 H   0  0  0  0  0  0  0  0  0  0  0  0  # atno 4917 bound_to 4907
  106.7207  245.7211  317.6426 H   0  0  0  0  0  0  0  0  0  0  0  0  # atno 5552 bound_to 5546
  106.2061  244.0733  321.8824 H   0  0  0  0  0  0  0  0  0  0  0  0  # atno 5556 bound_to 5551
  108.1844  244.5837  318.3015 H   0  0  0  0  0  0  0  0  0  0  0  0  # atno 5580 bound_to 5571
  111.3511  244.8233  316.4557 H   0  0  0  0  0  0  0  0  0  0  0  0  # atno 5612 bound_to 5604
  110.8203  238.2856  321.8814 H   0  0  0  0  0  0  0  0  0  0  0  0  # atno 8353 bound_to 8344
  115.1274  243.5688  319.8071 H   0  0  0  0  0  0  0  0  0  0  0  0  # atno 8453 bound_to 8448
  115.3976  247.0984  319.0957 H   0  0  0  0  0  0  0  0  0  0  0  0  # atno 8477 bound_to 8470
  111.8482  248.8639  319.0218 H   0  0  0  0  0  0  0  0  0  0  0  0  # atno 8510 bound_to 8501
  109.6737  246.1495  315.8693 H   0  0  0  0  0  0  0  0  0  0  0  0  # atno 8514 bound_to 8506
  109.8250  249.4944  319.3503 H   0  0  0  0  0  0  0  0  0  0  0  0  # atno 8539 bound_to 8525
  115.3500  250.3547  316.6933 H   0  0  0  0  0  0  0  0  0  0  0  0  # atno 8973 bound_to 8962
  118.2674  248.3645  317.5946 H   0  0  0  0  0  0  0  0  0  0  0  0  # atno 9003 bound_to 8997
  120.4553  244.8274  315.6108 H   0  0  0  0  0  0  0  0  0  0  0  0  # atno 9007 bound_to 9002
  120.1013  244.6126  319.0118 H   0  0  0  0  0  0  0  0  0  0  0  0  # atno 9021 bound_to 9017
  121.9402  243.7145  320.9771 H   0  0  0  0  0  0  0  0  0  0  0  0  # atno 9055 bound_to 9041
  122.0205  241.4035  322.5457 H   0  0  0  0  0  0  0  0  0  0  0  0  # atno 9104 bound_to 9087
  114.6207  240.2405  323.4276 H   0  0  0  0  0  0  0  0  0  0  0  0  # atno 9112 bound_to 9098
  121.6263  241.6841  326.3453 H   0  0  0  0  0  0  0  0  0  0  0  0  # atno 9142 bound_to 9125
  121.9518  238.5362  327.8917 H   0  0  0  0  0  0  0  0  0  0  0  0  # atno 9162 bound_to 9155
  119.6581  240.1716  331.6327 H   0  0  0  0  0  0  0  0  0  0  0  0  # atno 9192 bound_to 9178
  118.8463  238.8897  329.5562 H   0  0  0  0  0  0  0  0  0  0  0  0  # atno 9217 bound_to 9202
  116.5426  237.7322  329.4755 H   0  0  0  0  0  0  0  0  0  0  0  0  # atno 9250 bound_to 9231
  117.2121  235.8589  330.1428 H   0  0  0  0  0  0  0  0  0  0  0  0  # atno 9272 bound_to 9265
  115.9555  236.3287  331.8292 H   0  0  0  0  0  0  0  0  0  0  0  0  # atno 9298 bound_to 9282
  114.4509  238.2535  333.1421 H   0  0  0  0  0  0  0  0  0  0  0  0  # atno 9342 bound_to 9318
  112.1098  238.4902  330.1127 H   0  0  0  0  0  0  0  0  0  0  0  0  # atno 9375 bound_to 9363
  112.2949  234.7223  329.3955 H   0  0  0  0  0  0  0  0  0  0  0  0  # atno 9411 bound_to 9391
  125.8352  237.5646  325.8171 H   0  0  0  0  0  0  0  0  0  0  0  0  # atno 11075 bound_to 11068
  111.6079  251.9658  328.5816 H   0  0  0  0  0  0  0  0  0  0  0  0  # atno 12906 bound_to 12888
  110.2710  246.7239  337.7838 H   0  0  0  0  0  0  0  0  0  0  0  0  # atno 13471 bound_to 13450
  117.7046  244.9969  318.9853 LP  0  0  0  0  0  0  0  0  0  0  0  0  # atno 13485 bound_to 8425
  118.7424  243.7012  319.4794 LP  0  0  0  0  0  0  0  0  0  0  0  0  # atno 13486 bound_to 8425
  116.2761  242.8874  318.6816 LP  0  0  0  0  0  0  0  0  0  0  0  0  # atno 13487 bound_to 8448
  114.2950  245.7689  318.8208 LP  0  0  0  0  0  0  0  0  0  0  0  0  # atno 13488 bound_to 8470
  115.9283  248.1231  318.1729 LP  0  0  0  0  0  0  0  0  0  0  0  0  # atno 13489 bound_to 8965
  116.7347  246.6185  317.8799 LP  0  0  0  0  0  0  0  0  0  0  0  0  # atno 13490 bound_to 8965
  120.5654  246.2156  318.4877 LP  0  0  0  0  0  0  0  0  0  0  0  0  # atno 13491 bound_to 9017
  122.1380  241.8368  318.6858 LP  0  0  0  0  0  0  0  0  0  0  0  0  # atno 13492 bound_to 9020
  122.1134  243.1971  317.6140 LP  0  0  0  0  0  0  0  0  0  0  0  0  # atno 13493 bound_to 9020
  123.5019  243.5948  320.1948 LP  0  0  0  0  0  0  0  0  0  0  0  0  # atno 13494 bound_to 9041
  123.0886  243.2852  323.2516 LP  0  0  0  0  0  0  0  0  0  0  0  0  # atno 13495 bound_to 9044
  121.5261  242.8264  323.8415 LP  0  0  0  0  0  0  0  0  0  0  0  0  # atno 13496 bound_to 9044
  122.2482  239.6755  322.4075 LP  0  0  0  0  0  0  0  0  0  0  0  0  # atno 13497 bound_to 9087
  123.4813  238.9875  324.5751 LP  0  0  0  0  0  0  0  0  0  0  0  0  # atno 13498 bound_to 9090
  124.0985  240.0301  325.8129 LP  0  0  0  0  0  0  0  0  0  0  0  0  # atno 13499 bound_to 9090
  114.5119  238.6223  323.2977 LP  0  0  0  0  0  0  0  0  0  0  0  0  # atno 13500 bound_to 9098
  114.8793  239.5266  321.9886 LP  0  0  0  0  0  0  0  0  0  0  0  0  # atno 13501 bound_to 9098
  121.5019  240.0074  325.8644 LP  0  0  0  0  0  0  0  0  0  0  0  0  # atno 13502 bound_to 9125
  119.7287  238.3259  328.0169 LP  0  0  0  0  0  0  0  0  0  0  0  0  # atno 13503 bound_to 9128
  119.7710  240.0353  328.2934 LP  0  0  0  0  0  0  0  0  0  0  0  0  # atno 13504 bound_to 9128
  118.0023  238.9616  331.0818 LP  0  0  0  0  0  0  0  0  0  0  0  0  # atno 13505 bound_to 9202
  124.4107  249.6735  328.2977 LP  0  0  0  0  0  0  0  0  0  0  0  0  # atno 13514 bound_to 3592
  119.1688  247.9799  316.1542 LP  0  0  0  0  0  0  0  0  0  0  0  0  # atno 13515 bound_to 8997
  121.9321  246.6923  316.7049 LP  0  0  0  0  0  0  0  0  0  0  0  0  # atno 13516 bound_to 9000
  121.5580  247.9049  317.8837 LP  0  0  0  0  0  0  0  0  0  0  0  0  # atno 13517 bound_to 9000
  120.6331  237.5139  319.8945 LP  0  0  0  0  0  0  0  0  0  0  0  0  # atno 13518 bound_to 8370
  120.2237  238.9830  319.0734 LP  0  0  0  0  0  0  0  0  0  0  0  0  # atno 13519 bound_to 8370
  122.7466  238.4432  329.4478 LP  0  0  0  0  0  0  0  0  0  0  0  0  # atno 13520 bound_to 9155
  125.5777  239.2364  325.3947 LP  0  0  0  0  0  0  0  0  0  0  0  0  # atno 13521 bound_to 11068
  124.3326  238.0907  328.2382 LP  0  0  0  0  0  0  0  0  0  0  0  0  # atno 13522 bound_to 11071
  124.6226  239.6150  329.0078 LP  0  0  0  0  0  0  0  0  0  0  0  0  # atno 13523 bound_to 11071
  124.5549  246.6043  318.7346 LP  0  0  0  0  0  0  0  0  0  0  0  0  # atno 13524 bound_to 4888
  125.4085  247.8887  319.2715 LP  0  0  0  0  0  0  0  0  0  0  0  0  # atno 13525 bound_to 4888
  115.5308  239.7394  318.6339 LP  0  0  0  0  0  0  0  0  0  0  0  0  # atno 13526 bound_to 8388
  115.8497  240.7454  317.2605 LP  0  0  0  0  0  0  0  0  0  0  0  0  # atno 13527 bound_to 8388
  119.9138  246.3078  315.2076 LP  0  0  0  0  0  0  0  0  0  0  0  0  # atno 13528 bound_to 9002
  119.2074  244.9771  314.5775 LP  0  0  0  0  0  0  0  0  0  0  0  0  # atno 13529 bound_to 9002
  113.0509  244.6290  317.2508 LP  0  0  0  0  0  0  0  0  0  0  0  0  # atno 13530 bound_to 8451
  112.3141  245.6164  318.4682 LP  0  0  0  0  0  0  0  0  0  0  0  0  # atno 13531 bound_to 8451
  113.1649  249.8615  317.2446 LP  0  0  0  0  0  0  0  0  0  0  0  0  # atno 13532 bound_to 8473
  114.5451  249.0778  317.9380 LP  0  0  0  0  0  0  0  0  0  0  0  0  # atno 13533 bound_to 8473
  115.4915  249.1155  315.4685 LP  0  0  0  0  0  0  0  0  0  0  0  0  # atno 13534 bound_to 8962
  111.5436  247.3138  318.2825 LP  0  0  0  0  0  0  0  0  0  0  0  0  # atno 13535 bound_to 8501
  122.4538  247.1956  315.0332 LP  0  0  0  0  0  0  0  0  0  0  0  0  # atno 13538 bound_to 4907
  119.2831  249.5210  315.0449 LP  0  0  0  0  0  0  0  0  0  0  0  0  # atno 13539 bound_to 4910
  120.5988  248.5937  315.6844 LP  0  0  0  0  0  0  0  0  0  0  0  0  # atno 13540 bound_to 4910
  110.3516  246.8479  319.1774 LP  0  0  0  0  0  0  0  0  0  0  0  0  # atno 13543 bound_to 5549
  109.4984  247.2268  320.6363 LP  0  0  0  0  0  0  0  0  0  0  0  0  # atno 13544 bound_to 5549
  111.4788  239.6336  321.2505 LP  0  0  0  0  0  0  0  0  0  0  0  0  # atno 13545 bound_to 8344
  112.1902  238.8905  322.5187 LP  0  0  0  0  0  0  0  0  0  0  0  0  # atno 13546 bound_to 8344
  114.2740  237.9640  329.8403 LP  0  0  0  0  0  0  0  0  0  0  0  0  # atno 13547 bound_to 9205
  114.1756  239.2613  328.6969 LP  0  0  0  0  0  0  0  0  0  0  0  0  # atno 13548 bound_to 9205
  107.8038  244.2439  321.6237 LP  0  0  0  0  0  0  0  0  0  0  0  0  # atno 13553 bound_to 5551
  106.7993  243.9389  320.3729 LP  0  0  0  0  0  0  0  0  0  0  0  0  # atno 13554 bound_to 5551
  108.7980  245.0838  319.8668 LP  0  0  0  0  0  0  0  0  0  0  0  0  # atno 13555 bound_to 5571
  112.0180  239.2131  318.8373 LP  0  0  0  0  0  0  0  0  0  0  0  0  # atno 13556 bound_to 5645
  111.1907  240.7283  318.6976 LP  0  0  0  0  0  0  0  0  0  0  0  0  # atno 13557 bound_to 5645
  112.5628  236.9618  330.8335 LP  0  0  0  0  0  0  0  0  0  0  0  0  # atno 13560 bound_to 9363
  117.0362  238.0252  327.8217 LP  0  0  0  0  0  0  0  0  0  0  0  0  # atno 13561 bound_to 9231
  109.8308  238.1271  332.1380 LP  0  0  0  0  0  0  0  0  0  0  0  0  # atno 13562 bound_to 9321
  110.0383  236.5625  331.4245 LP  0  0  0  0  0  0  0  0  0  0  0  0  # atno 13563 bound_to 9321
  105.6340  245.0544  318.8358 LP  0  0  0  0  0  0  0  0  0  0  0  0  # atno 13566 bound_to 5546
  109.0485  242.1814  316.6811 LP  0  0  0  0  0  0  0  0  0  0  0  0  # atno 13567 bound_to 5574
  108.3033  243.7388  316.5425 LP  0  0  0  0  0  0  0  0  0  0  0  0  # atno 13568 bound_to 5574
  111.0786  243.2203  317.0982 LP  0  0  0  0  0  0  0  0  0  0  0  0  # atno 13569 bound_to 5604
  109.8342  250.1493  317.7346 LP  0  0  0  0  0  0  0  0  0  0  0  0  # atno 13570 bound_to 8525
  107.0734  247.9103  317.8715 LP  0  0  0  0  0  0  0  0  0  0  0  0  # atno 13571 bound_to 5523
  107.2019  247.4319  316.2118 LP  0  0  0  0  0  0  0  0  0  0  0  0  # atno 13572 bound_to 5523
  102.0074  242.3663  325.6161 LP  0  0  0  0  0  0  0  0  0  0  0  0  # atno 13573 bound_to 6144
  102.4884  242.1710  323.9637 LP  0  0  0  0  0  0  0  0  0  0  0  0  # atno 13574 bound_to 6144
  108.7875  247.2637  316.6583 LP  0  0  0  0  0  0  0  0  0  0  0  0  # atno 13575 bound_to 8506
  110.0760  246.5753  317.3880 LP  0  0  0  0  0  0  0  0  0  0  0  0  # atno 13576 bound_to 8506
  115.9285  238.4324  331.2739 LP  0  0  0  0  0  0  0  0  0  0  0  0  # atno 13577 bound_to 9175
  116.7348  237.8127  332.6760 LP  0  0  0  0  0  0  0  0  0  0  0  0  # atno 13578 bound_to 9175
  121.0281  239.9617  332.4858 LP  0  0  0  0  0  0  0  0  0  0  0  0  # atno 13579 bound_to 9178
  119.7539  240.7303  333.1583 LP  0  0  0  0  0  0  0  0  0  0  0  0  # atno 13580 bound_to 9178
  114.1286  234.9402  330.4958 LP  0  0  0  0  0  0  0  0  0  0  0  0  # atno 13581 bound_to 9234
  113.8264  234.6835  328.8098 LP  0  0  0  0  0  0  0  0  0  0  0  0  # atno 13582 bound_to 9234
  116.1469  234.8878  329.1504 LP  0  0  0  0  0  0  0  0  0  0  0  0  # atno 13583 bound_to 9265
  116.2744  234.8140  332.6361 LP  0  0  0  0  0  0  0  0  0  0  0  0  # atno 13584 bound_to 9282
  112.7200  236.0897  334.9553 LP  0  0  0  0  0  0  0  0  0  0  0  0  # atno 13585 bound_to 9285
  111.8842  236.2456  333.4463 LP  0  0  0  0  0  0  0  0  0  0  0  0  # atno 13586 bound_to 9285
  113.8520  236.8645  332.2668 LP  0  0  0  0  0  0  0  0  0  0  0  0  # atno 13587 bound_to 9318
  111.2902  235.4214  330.6438 LP  0  0  0  0  0  0  0  0  0  0  0  0  # atno 13588 bound_to 9391
  109.2278  234.2885  329.8170 LP  0  0  0  0  0  0  0  0  0  0  0  0  # atno 13592 bound_to 9366
  109.0833  235.5511  328.6401 LP  0  0  0  0  0  0  0  0  0  0  0  0  # atno 13593 bound_to 9366
  110.8833  252.5328  329.9237 LP  0  0  0  0  0  0  0  0  0  0  0  0  # atno 13594 bound_to 12888
  112.1422  253.3407  329.2687 LP  0  0  0  0  0  0  0  0  0  0  0  0  # atno 13595 bound_to 12888
  109.5445  246.3582  336.3738 LP  0  0  0  0  0  0  0  0  0  0  0  0  # atno 13596 bound_to 13450
  108.6661  246.9419  337.6206 LP  0  0  0  0  0  0  0  0  0  0  0  0  # atno 13597 bound_to 13450

> <Gold.Score>
     Fitness  S(hb_ext) S(vdw_ext)  S(hb_int)    S(int)      intcor
     40.05       5.70      25.81       0.00      -1.14      -0.77

> <Gold.Goldscore.Fitness>
40.0550

> <Gold.Goldscore.Internal.Vdw>
-1.4574

> <Gold.Goldscore.Internal.Torsion>
-0.4477

> <Gold.Goldscore.External.Vdw>
25.8109

> <Gold.Goldscore.Internal.HBond>
0.0000

> <Gold.Goldscore.External.HBond>
5.7049

> <Gold.Goldscore.Internal.Correction>
-0.7653

> <Gold.Goldscore.Hbonds>
donor molecule, donor type, donor heavy atom, donor atom, acceptor molecule, acceptor atom, score
      P1  H  5690  5702       L1    17  0.51
      P1  H  5693  5706       L1    17  0.05
      P1  H  9538  9550       L1    17  0.01
      L1  H     8    22       P1  9370  0.37

> <Gold.Goldscore.Internal.Vdw.Weighted>
-1.4574

> <Gold.Goldscore.Internal.Torsion.Weighted>
-0.4477

> <Gold.Goldscore.External.Vdw.Weighted>
35.4899

> <Gold.Goldscore.Internal.HBond.Weighted>
0.0000

> <Gold.Goldscore.External.HBond.Weighted>
5.7049

> <Gold.Goldscore.Internal.Correction.Weighted>
-0.7653

> <Gold.Rescore>
     Score     S(PLP)   S(hbond)     S(cho)   S(metal)  DE(clash)   DE(tors)     intcor
     19.01     -18.03       0.82       0.00       0.00       1.42       0.03       ----

> <Gold.PLP.Fitness>
19.0127

> <Gold.PLP.PLP>
-18.0283

> <Gold.PLP.part.hbond>
-5.0111

> <Gold.PLP.part.metal>
0.0000

> <Gold.PLP.part.buried>
2.1658

> <Gold.PLP.part.nonpolar>
-20.1691

> <Gold.PLP.part.repulsive>
4.1696

> <Gold.PLP.ligand.clash>
1.4196

> <Gold.PLP.ligand.torsion>
0.0340

> <Gold.PLP.Chemscore.Hbond>
0.8240

> <Gold.PLP.Chemscore.CHOScore>
0.0000

> <Gold.PLP.Chemscore.Metal>
0.0000

> <Gold.Chemscore.Hbonds>
donor molecule, donor type, donor heavy atom, donor atom, acceptor molecule, acceptor atom, score
      L1  H     8    22       P1  9370  0.65
      P1  H  5690  5702       L1    17  0.49

> <Gold.PLP.Chemscore.Internal.Correction>
   9.000000E+99

