#       Name:                CT1002167954
#       Creating user name   hitesit
#       Creation time:       Sun Apr 16 20:16:47 2023


#       File generated by GOLD software.
#

@<TRIPOS>MOLECULE
CT1002167954|ligand_prepared|mol2|1|dock5
    29    30     1
SMALL
NO_CHARGES


@<TRIPOS>ATOM
      1 C1          16.6595   2.1906  -5.3225 C.3            1 RES1               0.0000
      2 C2          17.2461   0.7648  -5.3651 C.ar           1 RES1               0.0000
      3 C3          17.3441   2.9010  -4.1585 C.2            1 RES1               0.0000
      4 C4          16.9465   2.8109  -6.6854 C.2            1 RES1               0.0000
      5 C5          15.1308   2.2307  -5.0918 C.3            1 RES1               0.0000
      6 C6          16.7533  -0.1776  -6.2627 C.ar           1 RES1               0.0000
      7 C7          18.2800   0.3787  -4.5163 C.ar           1 RES1               0.0000
      8 N8          18.2864   3.8403  -4.4578 N.am           1 RES1               0.0000
      9 O9          17.0894   2.6133  -2.9955 O.2            1 RES1               0.0000
     10 N10         17.8052   3.8775  -6.7375 N.am           1 RES1               0.0000
     11 O11         16.4498   2.3750  -7.7168 O.2            1 RES1               0.0000
     12 C12         14.5666   3.6370  -4.9650 C.3            1 RES1               0.0000
     13 C13         17.2773  -1.4588  -6.3121 C.ar           1 RES1               0.0000
     14 C14         18.8024  -0.9031  -4.5672 C.ar           1 RES1               0.0000
     15 C15         18.5121   4.4009  -5.6893 C.2            1 RES1               0.0000
     16 C16         18.3023  -1.8223  -5.4649 C.ar           1 RES1               0.0000
     17 O17         19.3073   5.3263  -5.8248 O.2            1 RES1               0.0000
     18 H18         14.6340   1.7250  -5.9289 H              1 RES1               0.0000
     19 H19         14.8971   1.6727  -4.1767 H              1 RES1               0.0000
     20 H20         15.9452   0.0894  -6.9355 H              1 RES1               0.0000
     21 H21         18.6884   1.0849  -3.8013 H              1 RES1               0.0000
     22 H22         18.8781   4.1551  -3.6955 H              1 RES1               0.0000
     23 H23         17.9289   4.3226  -7.6413 H              1 RES1               0.0000
     24 H24         13.4909   3.6080  -4.8043 H              1 RES1               0.0000
     25 H25         15.0205   4.1606  -4.1262 H              1 RES1               0.0000
     26 H26         14.7589   4.2126  -5.8681 H              1 RES1               0.0000
     27 H27         16.8792  -2.1789  -7.0194 H              1 RES1               0.0000
     28 H28         19.6087  -1.1850  -3.8981 H              1 RES1               0.0000
     29 H29         18.7128  -2.8258  -5.5041 H              1 RES1               0.0000
@<TRIPOS>BOND
    1    1    2 1     
    2    1    3 1     
    3    1    4 1     
    4    1    5 1     
    5    2    6 ar    
    6    2    7 ar    
    7    3    8 1     
    8    3    9 2     
    9    4   10 1     
   10    4   11 2     
   11    5   12 1     
   12    5   18 1     
   13    5   19 1     
   14    6   13 ar    
   15    6   20 1     
   16    7   14 ar    
   17    7   21 1     
   18    8   15 1     
   19    8   22 1     
   20   10   15 1     
   21   10   23 1     
   22   12   24 1     
   23   12   25 1     
   24   12   26 1     
   25   13   16 ar    
   26   13   27 1     
   27   14   16 ar    
   28   14   28 1     
   29   15   17 2     
   30   16   29 1     
@<TRIPOS>SUBSTRUCTURE
      1 RES1           1
@<TRIPOS>SET
DONOR_HYDROGENS      STATIC     ATOMS    <user>   **** ""
2 22 23
ATOM$RED        STATIC     ATOMS    COLORGROUP SYSTEM
2 22 23
@<TRIPOS>COMMENT
> <Gold.Version>
2022.3.0

> <Gold.Id.Protein>
unknown|3nx8_clean|pdb

> <Gold.Protein.RotatedTorsions>
[ 3590 3581 3580 3578 ] final  144.44 input   60.00 | X-H torsion
[ 3510 3501 3500 3498 ] final   55.00 input   59.99 | X-H torsion
[ 3778 3769 3768 3766 ] final  119.67 input   60.02 | X-H torsion
[ 2535 2524 2523 2522 ] final   69.94 input   60.02 | X-H torsion
[ 3063 3056 3054 3051 ] final  131.96 input   59.97 | X-H torsion
[ 5056 5047 5046 5044 ] final   59.62 input   59.99 | X-H torsion
[  550  544  542  539 ] final   91.51 input   60.01 | X-H torsion
[ 1860 1855 1854 1851 ] final  114.50 input   60.02 | X-H torsion
[ 3111 3104 3103 3101 ] final   89.65 input   60.01 | X-H torsion
[  567  564  563  560 ] final  -61.63 input   60.03 | X-H torsion

> <Gold.Protein.ActiveResidues>
 LEU49   GLY50   THR51   GLY52   SER53   PHE54   VAL57   LEU82   GLN84   HIS87  
 GLU127  MET128  PHE129  SER130  LEU132  ARG133  ARG134  ILE135  GLY136  ARG137 
 ARG165  ASP166  LEU167  LYS168  PRO169  GLU170  ASN171  LEU172  LEU173  THR183 
 ASP184  GLY186  PHE187  TPO197  LEU198  CYS199  GLY200  THR201  PRO202  GLU203 
 TYR204  LEU205  ILE209  ILE210  VAL226  LEU227  TYR229  GLU230  ALA233  GLY234 
 TYR235  PRO236  PRO237  PHE238  PHE239  ALA240  ASP241  GLN242  PRO243  ILE244 
 GLN245  ILE246  TYR247  ARG256  PHE257  PRO258  SER259  PHE327  ASP328  TYR330 

> <Gold.Protein.RotatedAtoms>
   19.6680   11.0719   -4.7260 H   0  0  0  0  0  0  0  0  0  0  0  0  # atno 550  bound_to 544 
   22.3959    8.9890    2.7848 H   0  0  0  0  0  0  0  0  0  0  0  0  # atno 567  bound_to 564 
   26.8655    4.7639  -11.6347 H   0  0  0  0  0  0  0  0  0  0  0  0  # atno 1860 bound_to 1855
   18.9364    3.7806   -0.1796 H   0  0  0  0  0  0  0  0  0  0  0  0  # atno 2535 bound_to 2524
   19.3355    5.0049   -1.2233 H   0  0  0  0  0  0  0  0  0  0  0  0  # atno 2536 bound_to 2524
   18.6132    3.6277   -1.7981 H   0  0  0  0  0  0  0  0  0  0  0  0  # atno 2537 bound_to 2524
   18.6847    1.9892    0.2818 H   0  0  0  0  0  0  0  0  0  0  0  0  # atno 3063 bound_to 3056
   21.7398   -3.8955   -3.8038 H   0  0  0  0  0  0  0  0  0  0  0  0  # atno 3111 bound_to 3104
   16.2885  -14.2263   -8.3181 H   0  0  0  0  0  0  0  0  0  0  0  0  # atno 3510 bound_to 3501
   15.6858  -13.7396  -13.0895 H   0  0  0  0  0  0  0  0  0  0  0  0  # atno 3590 bound_to 3581
    8.8722    0.8116    2.1232 H   0  0  0  0  0  0  0  0  0  0  0  0  # atno 3778 bound_to 3769
   23.6366   10.1144   -8.8649 H   0  0  0  0  0  0  0  0  0  0  0  0  # atno 5056 bound_to 5047
   15.2162  -14.0574  -11.5643 LP  0  0  0  0  0  0  0  0  0  0  0  0  # atno 5350 bound_to 3581
   16.7964  -14.1370  -11.9686 LP  0  0  0  0  0  0  0  0  0  0  0  0  # atno 5351 bound_to 3581
   15.2335  -13.6628   -7.2144 LP  0  0  0  0  0  0  0  0  0  0  0  0  # atno 5358 bound_to 3501
   15.8421  -15.1713   -7.0705 LP  0  0  0  0  0  0  0  0  0  0  0  0  # atno 5359 bound_to 3501
   10.3304    0.1693    2.4549 LP  0  0  0  0  0  0  0  0  0  0  0  0  # atno 5412 bound_to 3769
    9.3549    0.6580    3.6699 LP  0  0  0  0  0  0  0  0  0  0  0  0  # atno 5413 bound_to 3769
   17.4736    2.6193    1.1675 LP  0  0  0  0  0  0  0  0  0  0  0  0  # atno 5416 bound_to 3056
   17.4569    2.7582   -0.4595 LP  0  0  0  0  0  0  0  0  0  0  0  0  # atno 5417 bound_to 3056
   22.9835    9.7828  -10.3181 LP  0  0  0  0  0  0  0  0  0  0  0  0  # atno 5426 bound_to 5047
   22.0234    9.9558   -9.0085 LP  0  0  0  0  0  0  0  0  0  0  0  0  # atno 5427 bound_to 5047
   20.8664   11.1311   -5.8255 LP  0  0  0  0  0  0  0  0  0  0  0  0  # atno 5430 bound_to 544 
   19.5914   12.1441   -5.9478 LP  0  0  0  0  0  0  0  0  0  0  0  0  # atno 5431 bound_to 544 
   25.3044    4.3116  -11.7186 LP  0  0  0  0  0  0  0  0  0  0  0  0  # atno 5436 bound_to 1855
   25.9236    5.3298  -12.8352 LP  0  0  0  0  0  0  0  0  0  0  0  0  # atno 5437 bound_to 1855
   20.3719   -4.5606   -4.3835 LP  0  0  0  0  0  0  0  0  0  0  0  0  # atno 5458 bound_to 3104
   21.4361   -5.4739   -3.5469 LP  0  0  0  0  0  0  0  0  0  0  0  0  # atno 5459 bound_to 3104
   22.0594    9.0245    4.3769 LP  0  0  0  0  0  0  0  0  0  0  0  0  # atno 5468 bound_to 564 
   21.7374   10.3243    3.4424 LP  0  0  0  0  0  0  0  0  0  0  0  0  # atno 5469 bound_to 564 

> <Gold.Score>
     Fitness  S(hb_ext) S(vdw_ext)  S(hb_int)    S(int)      intcor
     28.32       6.00      17.82       0.00      -2.18      -0.76

> <Gold.Goldscore.Fitness>
28.3198

> <Gold.Goldscore.Internal.Vdw>
-2.5601

> <Gold.Goldscore.Internal.Torsion>
-0.3892

> <Gold.Goldscore.External.Vdw>
17.8212

> <Gold.Goldscore.Internal.HBond>
0.0000

> <Gold.Goldscore.External.HBond>
6.0000

> <Gold.Goldscore.Internal.Correction>
-0.7650

> <Gold.Goldscore.Hbonds>
donor molecule, donor type, donor heavy atom, donor atom, acceptor molecule, acceptor atom, score
      P1  H  2524  2537       L1     9  1.00

> <Gold.Goldscore.Internal.Vdw.Weighted>
-2.5601

> <Gold.Goldscore.Internal.Torsion.Weighted>
-0.3892

> <Gold.Goldscore.External.Vdw.Weighted>
24.5041

> <Gold.Goldscore.Internal.HBond.Weighted>
0.0000

> <Gold.Goldscore.External.HBond.Weighted>
6.0000

> <Gold.Goldscore.Internal.Correction.Weighted>
-0.7650

> <Gold.Rescore>
     Score     S(PLP)   S(hbond)     S(cho)   S(metal)  DE(clash)   DE(tors)     intcor
     22.70     -24.31       0.00       0.00       0.00       0.01       0.79       ----

> <Gold.PLP.Fitness>
22.7045

> <Gold.PLP.PLP>
-24.3070

> <Gold.PLP.part.hbond>
-0.8638

> <Gold.PLP.part.metal>
0.0000

> <Gold.PLP.part.buried>
-4.9347

> <Gold.PLP.part.nonpolar>
-19.3985

> <Gold.PLP.part.repulsive>
0.2991

> <Gold.PLP.ligand.clash>
0.0134

> <Gold.PLP.ligand.torsion>
0.7945

> <Gold.PLP.Chemscore.Hbond>
0.0000

> <Gold.PLP.Chemscore.CHOScore>
0.0000

> <Gold.PLP.Chemscore.Metal>
0.0000

> <Gold.Chemscore.Hbonds>
donor molecule, donor type, donor heavy atom, donor atom, acceptor molecule, acceptor atom, score
      P1  H  2524  2537       L1     9  0.78

> <Gold.PLP.Chemscore.Internal.Correction>
   9.000000E+99

