#       Name:                CT1002167954
#       Creating user name   hitesit
#       Creation time:       Sun Apr 16 20:16:45 2023


#       File generated by GOLD software.
#

@<TRIPOS>MOLECULE
CT1002167954|ligand_prepared|mol2|1|dock3
    29    30     1
SMALL
NO_CHARGES


@<TRIPOS>ATOM
      1 C1          15.1291  -2.0296  -8.2644 C.3            1 RES1               0.0000
      2 C2          15.9942  -1.7423  -7.0203 C.ar           1 RES1               0.0000
      3 C3          13.7438  -2.4041  -7.7458 C.2            1 RES1               0.0000
      4 C4          15.1557  -0.7581  -9.1054 C.2            1 RES1               0.0000
      5 C5          15.6571  -3.1914  -9.1379 C.3            1 RES1               0.0000
      6 C6          15.6489  -0.7240  -6.1369 C.ar           1 RES1               0.0000
      7 C7          17.1369  -2.4876  -6.7418 C.ar           1 RES1               0.0000
      8 N8          12.7465  -1.4845  -7.8866 N.am           1 RES1               0.0000
      9 O9          13.5387  -3.4742  -7.1862 O.2            1 RES1               0.0000
     10 N10         13.9822  -0.0686  -9.2643 N.am           1 RES1               0.0000
     11 O11         16.1858  -0.3382  -9.6182 O.2            1 RES1               0.0000
     12 C12         14.8171  -3.4575 -10.3772 C.3            1 RES1               0.0000
     13 C13         16.4164  -0.4619  -5.0141 C.ar           1 RES1               0.0000
     14 C14         17.9031  -2.2237  -5.6186 C.ar           1 RES1               0.0000
     15 C15         12.7852  -0.3575  -8.6676 C.2            1 RES1               0.0000
     16 C16         17.5436  -1.2118  -4.7540 C.ar           1 RES1               0.0000
     17 O17         11.7870   0.3416  -8.8159 O.2            1 RES1               0.0000
     18 H18         16.6832  -2.9606  -9.4497 H              1 RES1               0.0000
     19 H19         15.6886  -4.1041  -8.5301 H              1 RES1               0.0000
     20 H20         14.7667  -0.1217  -6.3265 H              1 RES1               0.0000
     21 H21         17.4394  -3.2879  -7.4086 H              1 RES1               0.0000
     22 H22         11.8931  -1.6501  -7.3626 H              1 RES1               0.0000
     23 H23         14.0029   0.7343  -9.8850 H              1 RES1               0.0000
     24 H24         15.2313  -4.2817 -10.9542 H              1 RES1               0.0000
     25 H25         13.7961  -3.7150 -10.1033 H              1 RES1               0.0000
     26 H26         14.7849  -2.5783 -11.0174 H              1 RES1               0.0000
     27 H27         16.1300   0.3364  -4.3376 H              1 RES1               0.0000
     28 H28         18.7898  -2.8160  -5.4181 H              1 RES1               0.0000
     29 H29         18.1445  -1.0066  -3.8742 H              1 RES1               0.0000
@<TRIPOS>BOND
    1    1    2 1     
    2    1    3 1     
    3    1    4 1     
    4    1    5 1     
    5    2    6 ar    
    6    2    7 ar    
    7    3    8 1     
    8    3    9 2     
    9    4   10 1     
   10    4   11 2     
   11    5   12 1     
   12    5   18 1     
   13    5   19 1     
   14    6   13 ar    
   15    6   20 1     
   16    7   14 ar    
   17    7   21 1     
   18    8   15 1     
   19    8   22 1     
   20   10   15 1     
   21   10   23 1     
   22   12   24 1     
   23   12   25 1     
   24   12   26 1     
   25   13   16 ar    
   26   13   27 1     
   27   14   16 ar    
   28   14   28 1     
   29   15   17 2     
   30   16   29 1     
@<TRIPOS>SUBSTRUCTURE
      1 RES1           1
@<TRIPOS>SET
DONOR_HYDROGENS      STATIC     ATOMS    <user>   **** ""
2 22 23
ATOM$RED        STATIC     ATOMS    COLORGROUP SYSTEM
2 22 23
@<TRIPOS>COMMENT
> <Gold.Version>
2022.3.0

> <Gold.Id.Protein>
unknown|3nx8_clean|pdb

> <Gold.Protein.RotatedTorsions>
[ 3590 3581 3580 3578 ] final  -49.64 input   60.00 | X-H torsion
[ 3510 3501 3500 3498 ] final  146.53 input   59.99 | X-H torsion
[ 3778 3769 3768 3766 ] final   28.38 input   60.02 | X-H torsion
[ 2535 2524 2523 2522 ] final  -39.92 input   60.02 | X-H torsion
[ 3063 3056 3054 3051 ] final -123.85 input   59.97 | X-H torsion
[ 5056 5047 5046 5044 ] final  136.02 input   59.99 | X-H torsion
[  550  544  542  539 ] final  165.91 input   60.01 | X-H torsion
[ 1860 1855 1854 1851 ] final  -40.87 input   60.02 | X-H torsion
[ 3111 3104 3103 3101 ] final  -38.27 input   60.01 | X-H torsion
[  567  564  563  560 ] final   12.39 input   60.03 | X-H torsion

> <Gold.Protein.ActiveResidues>
 LEU49   GLY50   THR51   GLY52   SER53   PHE54   VAL57   LEU82   GLN84   HIS87  
 GLU127  MET128  PHE129  SER130  LEU132  ARG133  ARG134  ILE135  GLY136  ARG137 
 ARG165  ASP166  LEU167  LYS168  PRO169  GLU170  ASN171  LEU172  LEU173  THR183 
 ASP184  GLY186  PHE187  TPO197  LEU198  CYS199  GLY200  THR201  PRO202  GLU203 
 TYR204  LEU205  ILE209  ILE210  VAL226  LEU227  TYR229  GLU230  ALA233  GLY234 
 TYR235  PRO236  PRO237  PHE238  PHE239  ALA240  ASP241  GLN242  PRO243  ILE244 
 GLN245  ILE246  TYR247  ARG256  PHE257  PRO258  SER259  PHE327  ASP328  TYR330 

> <Gold.Protein.RotatedAtoms>
   19.2371   11.9069   -5.3574 H   0  0  0  0  0  0  0  0  0  0  0  0  # atno 550  bound_to 544 
   21.9776   10.0357    2.8115 H   0  0  0  0  0  0  0  0  0  0  0  0  # atno 567  bound_to 564 
   25.1292    4.5901  -12.1850 H   0  0  0  0  0  0  0  0  0  0  0  0  # atno 1860 bound_to 1855
   18.5778    3.5112   -1.6809 H   0  0  0  0  0  0  0  0  0  0  0  0  # atno 2535 bound_to 2524
   19.0103    3.9255   -0.1354 H   0  0  0  0  0  0  0  0  0  0  0  0  # atno 2536 bound_to 2524
   19.2963    4.9755   -1.3861 H   0  0  0  0  0  0  0  0  0  0  0  0  # atno 2537 bound_to 2524
   17.6646    2.6441   -0.5628 H   0  0  0  0  0  0  0  0  0  0  0  0  # atno 3063 bound_to 3056
   20.3594   -4.6865   -4.3538 H   0  0  0  0  0  0  0  0  0  0  0  0  # atno 3111 bound_to 3104
   16.1263  -15.2208   -7.4317 H   0  0  0  0  0  0  0  0  0  0  0  0  # atno 3510 bound_to 3501
   16.3262  -14.2169  -11.4122 H   0  0  0  0  0  0  0  0  0  0  0  0  # atno 3590 bound_to 3581
   10.0909    0.2591    2.0655 H   0  0  0  0  0  0  0  0  0  0  0  0  # atno 3778 bound_to 3769
   22.5249   10.0874   -8.5416 H   0  0  0  0  0  0  0  0  0  0  0  0  # atno 5056 bound_to 5047
   16.4048  -13.8451  -12.9943 LP  0  0  0  0  0  0  0  0  0  0  0  0  # atno 5350 bound_to 3581
   14.9626  -13.8684  -12.2286 LP  0  0  0  0  0  0  0  0  0  0  0  0  # atno 5351 bound_to 3581
   16.0615  -13.8267   -8.2691 LP  0  0  0  0  0  0  0  0  0  0  0  0  # atno 5358 bound_to 3501
   15.1774  -14.0066   -6.9080 LP  0  0  0  0  0  0  0  0  0  0  0  0  # atno 5359 bound_to 3501
    9.7802    0.4652    3.6498 LP  0  0  0  0  0  0  0  0  0  0  0  0  # atno 5412 bound_to 3769
    8.6783    0.9183    2.5331 LP  0  0  0  0  0  0  0  0  0  0  0  0  # atno 5413 bound_to 3769
   18.6632    1.9837    0.5393 LP  0  0  0  0  0  0  0  0  0  0  0  0  # atno 5416 bound_to 3056
   17.2946    2.7342    1.0193 LP  0  0  0  0  0  0  0  0  0  0  0  0  # atno 5417 bound_to 3056
   23.8150    9.9992   -9.5296 LP  0  0  0  0  0  0  0  0  0  0  0  0  # atno 5426 bound_to 5047
   22.3114    9.7665  -10.1226 LP  0  0  0  0  0  0  0  0  0  0  0  0  # atno 5427 bound_to 5047
   20.3035   10.7642   -4.9044 LP  0  0  0  0  0  0  0  0  0  0  0  0  # atno 5430 bound_to 544 
   20.5883   11.6700   -6.2330 LP  0  0  0  0  0  0  0  0  0  0  0  0  # atno 5431 bound_to 544 
   26.4670    5.3841  -12.6629 LP  0  0  0  0  0  0  0  0  0  0  0  0  # atno 5436 bound_to 1855
   26.5091    4.4322  -11.3368 LP  0  0  0  0  0  0  0  0  0  0  0  0  # atno 5437 bound_to 1855
   21.5429   -5.4127   -3.5043 LP  0  0  0  0  0  0  0  0  0  0  0  0  # atno 5458 bound_to 3104
   21.6544   -3.8257   -3.8725 LP  0  0  0  0  0  0  0  0  0  0  0  0  # atno 5459 bound_to 3104
   22.4318    8.5869    3.3980 LP  0  0  0  0  0  0  0  0  0  0  0  0  # atno 5468 bound_to 564 
   21.7861    9.7081    4.3943 LP  0  0  0  0  0  0  0  0  0  0  0  0  # atno 5469 bound_to 564 

> <Gold.Score>
     Fitness  S(hb_ext) S(vdw_ext)  S(hb_int)    S(int)      intcor
     31.08       5.10      18.93       0.00      -0.04      -0.76

> <Gold.Goldscore.Fitness>
31.0773

> <Gold.Goldscore.Internal.Vdw>
-0.4409

> <Gold.Goldscore.Internal.Torsion>
-0.3684

> <Gold.Goldscore.External.Vdw>
18.9276

> <Gold.Goldscore.Internal.HBond>
0.0000

> <Gold.Goldscore.External.HBond>
5.0962

> <Gold.Goldscore.Internal.Correction>
-0.7650

> <Gold.Goldscore.Hbonds>
donor molecule, donor type, donor heavy atom, donor atom, acceptor molecule, acceptor atom, score
      P1  H  1922  1932       L1    11  0.85

> <Gold.Goldscore.Internal.Vdw.Weighted>
-0.4409

> <Gold.Goldscore.Internal.Torsion.Weighted>
-0.3684

> <Gold.Goldscore.External.Vdw.Weighted>
26.0255

> <Gold.Goldscore.Internal.HBond.Weighted>
0.0000

> <Gold.Goldscore.External.HBond.Weighted>
5.0962

> <Gold.Goldscore.Internal.Correction.Weighted>
-0.7650

> <Gold.Rescore>
     Score     S(PLP)   S(hbond)     S(cho)   S(metal)  DE(clash)   DE(tors)     intcor
     27.47     -23.07       1.53       0.00       0.00       0.00       0.09       ----

> <Gold.PLP.Fitness>
27.4719

> <Gold.PLP.PLP>
-23.0730

> <Gold.PLP.part.hbond>
-2.0000

> <Gold.PLP.part.metal>
0.0000

> <Gold.PLP.part.buried>
-1.8591

> <Gold.PLP.part.nonpolar>
-20.2318

> <Gold.PLP.part.repulsive>
0.3912

> <Gold.PLP.ligand.clash>
0.0000

> <Gold.PLP.ligand.torsion>
0.0904

> <Gold.PLP.Chemscore.Hbond>
1.5266

> <Gold.PLP.Chemscore.CHOScore>
0.0000

> <Gold.PLP.Chemscore.Metal>
0.0000

> <Gold.Chemscore.Hbonds>
donor molecule, donor type, donor heavy atom, donor atom, acceptor molecule, acceptor atom, score
      P1  H  1922  1932       L1    11  0.91

> <Gold.PLP.Chemscore.Internal.Correction>
   9.000000E+99

