#       Name:                CT1002167954
#       Creating user name   hitesit
#       Creation time:       Sun Apr 16 20:16:49 2023


#       File generated by GOLD software.
#

@<TRIPOS>MOLECULE
CT1002167954|ligand_prepared|mol2|1|dock8
    29    30     1
SMALL
NO_CHARGES


@<TRIPOS>ATOM
      1 C1          13.2428  -1.9922  -9.8984 C.3            1 RES1               0.0000
      2 C2          14.2115  -3.0614 -10.4435 C.ar           1 RES1               0.0000
      3 C3          11.8351  -2.5407 -10.1120 C.2            1 RES1               0.0000
      4 C4          13.6148  -1.7863  -8.4342 C.2            1 RES1               0.0000
      5 C5          13.3519  -0.6264 -10.6156 C.3            1 RES1               0.0000
      6 C6          15.5566  -2.7640 -10.6416 C.ar           1 RES1               0.0000
      7 C7          13.7762  -4.3480 -10.7498 C.ar           1 RES1               0.0000
      8 N8          11.1585  -2.9887  -9.0159 N.am           1 RES1               0.0000
      9 O9          11.3413  -2.6155 -11.2304 O.2            1 RES1               0.0000
     10 N10         12.6998  -2.1517  -7.4818 N.am           1 RES1               0.0000
     11 O11         14.6986  -1.3264  -8.0962 O.2            1 RES1               0.0000
     12 C12         12.2681   0.3632 -10.2180 C.3            1 RES1               0.0000
     13 C13         16.4353  -3.7190 -11.1255 C.ar           1 RES1               0.0000
     14 C14         14.6566  -5.3015 -11.2339 C.ar           1 RES1               0.0000
     15 C15         11.5009  -2.7720  -7.7054 C.2            1 RES1               0.0000
     16 C16         15.9861  -4.9883 -11.4215 C.ar           1 RES1               0.0000
     17 O17         10.7562  -3.1194  -6.7933 O.2            1 RES1               0.0000
     18 H18         14.3314  -0.1867 -10.3907 H              1 RES1               0.0000
     19 H19         13.2992  -0.7913 -11.6989 H              1 RES1               0.0000
     20 H20         15.9278  -1.7698 -10.4165 H              1 RES1               0.0000
     21 H21         12.7345  -4.6164 -10.6112 H              1 RES1               0.0000
     22 H22         10.3206  -3.5356  -9.1864 H              1 RES1               0.0000
     23 H23         12.9341  -1.9416  -6.5168 H              1 RES1               0.0000
     24 H24         12.3911   1.3043 -10.7499 H              1 RES1               0.0000
     25 H25         11.2813  -0.0312 -10.4509 H              1 RES1               0.0000
     26 H26         12.3073   0.5698  -9.1504 H              1 RES1               0.0000
     27 H27         17.4803  -3.4672 -11.2726 H              1 RES1               0.0000
     28 H28         14.2986  -6.2990 -11.4661 H              1 RES1               0.0000
     29 H29         16.6747  -5.7364 -11.8002 H              1 RES1               0.0000
@<TRIPOS>BOND
    1    1    2 1     
    2    1    3 1     
    3    1    4 1     
    4    1    5 1     
    5    2    6 ar    
    6    2    7 ar    
    7    3    8 1     
    8    3    9 2     
    9    4   10 1     
   10    4   11 2     
   11    5   12 1     
   12    5   18 1     
   13    5   19 1     
   14    6   13 ar    
   15    6   20 1     
   16    7   14 ar    
   17    7   21 1     
   18    8   15 1     
   19    8   22 1     
   20   10   15 1     
   21   10   23 1     
   22   12   24 1     
   23   12   25 1     
   24   12   26 1     
   25   13   16 ar    
   26   13   27 1     
   27   14   16 ar    
   28   14   28 1     
   29   15   17 2     
   30   16   29 1     
@<TRIPOS>SUBSTRUCTURE
      1 RES1           1
@<TRIPOS>SET
DONOR_HYDROGENS      STATIC     ATOMS    <user>   **** ""
2 22 23
ATOM$RED        STATIC     ATOMS    COLORGROUP SYSTEM
2 22 23
@<TRIPOS>COMMENT
> <Gold.Version>
2022.3.0

> <Gold.Id.Protein>
unknown|3nx8_clean|pdb

> <Gold.Protein.RotatedTorsions>
[ 3590 3581 3580 3578 ] final  -21.98 input   60.00 | X-H torsion
[ 3510 3501 3500 3498 ] final  142.82 input   59.99 | X-H torsion
[ 3778 3769 3768 3766 ] final -161.03 input   60.02 | X-H torsion
[ 2535 2524 2523 2522 ] final -132.62 input   60.02 | X-H torsion
[ 3063 3056 3054 3051 ] final  168.36 input   59.97 | X-H torsion
[ 5056 5047 5046 5044 ] final  -86.26 input   59.99 | X-H torsion
[  550  544  542  539 ] final  129.00 input   60.01 | X-H torsion
[ 1860 1855 1854 1851 ] final -139.52 input   60.02 | X-H torsion
[ 3111 3104 3103 3101 ] final  132.11 input   60.01 | X-H torsion
[  567  564  563  560 ] final -179.40 input   60.03 | X-H torsion

> <Gold.Protein.ActiveResidues>
 LEU49   GLY50   THR51   GLY52   SER53   PHE54   VAL57   LEU82   GLN84   HIS87  
 GLU127  MET128  PHE129  SER130  LEU132  ARG133  ARG134  ILE135  GLY136  ARG137 
 ARG165  ASP166  LEU167  LYS168  PRO169  GLU170  ASN171  LEU172  LEU173  THR183 
 ASP184  GLY186  PHE187  TPO197  LEU198  CYS199  GLY200  THR201  PRO202  GLU203 
 TYR204  LEU205  ILE209  ILE210  VAL226  LEU227  TYR229  GLU230  ALA233  GLY234 
 TYR235  PRO236  PRO237  PHE238  PHE239  ALA240  ASP241  GLN242  PRO243  ILE244 
 GLN245  ILE246  TYR247  ARG256  PHE257  PRO258  SER259  PHE327  ASP328  TYR330 

> <Gold.Protein.RotatedAtoms>
   19.3003   11.5033   -4.9280 H   0  0  0  0  0  0  0  0  0  0  0  0  # atno 550  bound_to 544 
   22.0721    8.9970    4.3556 H   0  0  0  0  0  0  0  0  0  0  0  0  # atno 567  bound_to 564 
   26.1458    5.3717  -12.7962 H   0  0  0  0  0  0  0  0  0  0  0  0  # atno 1860 bound_to 1855
   19.1445    4.7727   -1.7599 H   0  0  0  0  0  0  0  0  0  0  0  0  # atno 2535 bound_to 2524
   18.5452    3.3031   -1.2819 H   0  0  0  0  0  0  0  0  0  0  0  0  # atno 2536 bound_to 2524
   19.1952    4.3377   -0.1613 H   0  0  0  0  0  0  0  0  0  0  0  0  # atno 2537 bound_to 2524
   18.5206    2.1270   -0.2624 H   0  0  0  0  0  0  0  0  0  0  0  0  # atno 3063 bound_to 3056
   22.0059   -4.4447   -3.5077 H   0  0  0  0  0  0  0  0  0  0  0  0  # atno 3111 bound_to 3104
   16.1583  -15.2123   -7.4823 H   0  0  0  0  0  0  0  0  0  0  0  0  # atno 3510 bound_to 3501
   15.8937  -14.1956  -11.2995 H   0  0  0  0  0  0  0  0  0  0  0  0  # atno 3590 bound_to 3581
    8.8476    0.8702    3.3167 H   0  0  0  0  0  0  0  0  0  0  0  0  # atno 3778 bound_to 3769
   22.5676    9.7640  -10.2574 H   0  0  0  0  0  0  0  0  0  0  0  0  # atno 5056 bound_to 5047
   16.7132  -13.9546  -12.6844 LP  0  0  0  0  0  0  0  0  0  0  0  0  # atno 5350 bound_to 3581
   15.0899  -13.7803  -12.6519 LP  0  0  0  0  0  0  0  0  0  0  0  0  # atno 5351 bound_to 3581
   16.0255  -13.7822   -8.2480 LP  0  0  0  0  0  0  0  0  0  0  0  0  # atno 5358 bound_to 3501
   15.1811  -14.0595   -6.8781 LP  0  0  0  0  0  0  0  0  0  0  0  0  # atno 5359 bound_to 3501
    9.3932    0.5669    1.8137 LP  0  0  0  0  0  0  0  0  0  0  0  0  # atno 5412 bound_to 3769
   10.3169    0.2014    3.1097 LP  0  0  0  0  0  0  0  0  0  0  0  0  # atno 5413 bound_to 3769
   17.9748    2.3233    1.2580 LP  0  0  0  0  0  0  0  0  0  0  0  0  # atno 5416 bound_to 3056
   17.1210    2.9154   -0.0019 LP  0  0  0  0  0  0  0  0  0  0  0  0  # atno 5417 bound_to 3056
   22.2755   10.0384   -8.6802 LP  0  0  0  0  0  0  0  0  0  0  0  0  # atno 5426 bound_to 5047
   23.8079   10.0530   -9.2444 LP  0  0  0  0  0  0  0  0  0  0  0  0  # atno 5427 bound_to 5047
   20.7216   10.8183   -5.3270 LP  0  0  0  0  0  0  0  0  0  0  0  0  # atno 5430 bound_to 544 
   20.1066   12.0223   -6.2428 LP  0  0  0  0  0  0  0  0  0  0  0  0  # atno 5431 bound_to 544 
   26.7590    4.6243  -11.4871 LP  0  0  0  0  0  0  0  0  0  0  0  0  # atno 5436 bound_to 1855
   25.1937    4.4052  -11.8974 LP  0  0  0  0  0  0  0  0  0  0  0  0  # atno 5437 bound_to 1855
   20.7050   -3.9651   -4.3604 LP  0  0  0  0  0  0  0  0  0  0  0  0  # atno 5458 bound_to 3104
   20.8351   -5.5166   -3.8681 LP  0  0  0  0  0  0  0  0  0  0  0  0  # atno 5459 bound_to 3104
   21.7300   10.3245    3.4782 LP  0  0  0  0  0  0  0  0  0  0  0  0  # atno 5468 bound_to 564 
   22.3927    9.0162    2.7599 LP  0  0  0  0  0  0  0  0  0  0  0  0  # atno 5469 bound_to 564 

> <Gold.Score>
     Fitness  S(hb_ext) S(vdw_ext)  S(hb_int)    S(int)      intcor
     27.52       6.51      16.29       0.00      -1.40      -0.76

> <Gold.Goldscore.Fitness>
27.5173

> <Gold.Goldscore.Internal.Vdw>
-1.6789

> <Gold.Goldscore.Internal.Torsion>
-0.4802

> <Gold.Goldscore.External.Vdw>
16.2939

> <Gold.Goldscore.Internal.HBond>
0.0000

> <Gold.Goldscore.External.HBond>
6.5139

> <Gold.Goldscore.Internal.Correction>
-0.7585

> <Gold.Goldscore.Hbonds>
donor molecule, donor type, donor heavy atom, donor atom, acceptor molecule, acceptor atom, score
      P1  H  3659  3664       L1    17  0.84
      L1  H    10    23       P1  3086  0.80

> <Gold.Goldscore.Internal.Vdw.Weighted>
-1.6789

> <Gold.Goldscore.Internal.Torsion.Weighted>
-0.4802

> <Gold.Goldscore.External.Vdw.Weighted>
22.4041

> <Gold.Goldscore.Internal.HBond.Weighted>
0.0000

> <Gold.Goldscore.External.HBond.Weighted>
6.5139

> <Gold.Goldscore.Internal.Correction.Weighted>
-0.7585

> <Gold.Rescore>
     Score     S(PLP)   S(hbond)     S(cho)   S(metal)  DE(clash)   DE(tors)     intcor
     27.71     -23.25       2.00       0.00       0.00       0.99       0.27       ----

> <Gold.PLP.Fitness>
27.7142

> <Gold.PLP.PLP>
-23.2500

> <Gold.PLP.part.hbond>
-2.0000

> <Gold.PLP.part.metal>
0.0000

> <Gold.PLP.part.buried>
-4.4278

> <Gold.PLP.part.nonpolar>
-21.5860

> <Gold.PLP.part.repulsive>
4.1124

> <Gold.PLP.ligand.clash>
0.9931

> <Gold.PLP.ligand.torsion>
0.2714

> <Gold.PLP.Chemscore.Hbond>
2.0000

> <Gold.PLP.Chemscore.CHOScore>
0.0000

> <Gold.PLP.Chemscore.Metal>
0.0000

> <Gold.Chemscore.Hbonds>
donor molecule, donor type, donor heavy atom, donor atom, acceptor molecule, acceptor atom, score
      L1  H    10    23       P1  3086  0.52
      P1  H  3659  3664       L1    17  0.96

> <Gold.PLP.Chemscore.Internal.Correction>
   9.000000E+99

