#       Name:                CT1002167954
#       Creating user name   hitesit
#       Creation time:       Sun Apr 16 20:16:27 2023


#       File generated by GOLD software.
#

@<TRIPOS>MOLECULE
CT1002167954|ligand_prepared|mol2|1|dock10
    29    30     1
SMALL
NO_CHARGES


@<TRIPOS>ATOM
      1 C1          -9.3884  -7.2941  17.8644 C.3            1 RES1               0.0000
      2 C2          -8.1653  -6.5351  18.4182 C.ar           1 RES1               0.0000
      3 C3          -9.1219  -7.5091  16.3774 C.2            1 RES1               0.0000
      4 C4          -9.4910  -8.5840  18.6708 C.2            1 RES1               0.0000
      5 C5         -10.7222  -6.5269  18.0185 C.3            1 RES1               0.0000
      6 C6          -6.9419  -6.5836  17.7565 C.ar           1 RES1               0.0000
      7 C7          -8.2454  -5.7813  19.5861 C.ar           1 RES1               0.0000
      8 N8          -8.7893  -8.7675  15.9705 N.am           1 RES1               0.0000
      9 O9          -9.1643  -6.5804  15.5798 O.2            1 RES1               0.0000
     10 N10         -9.2877  -9.7695  18.0144 N.am           1 RES1               0.0000
     11 O11         -9.7296  -8.5835  19.8722 O.2            1 RES1               0.0000
     12 C12        -11.8640  -7.1121  17.2024 C.3            1 RES1               0.0000
     13 C13         -5.8394  -5.9010  18.2430 C.ar           1 RES1               0.0000
     14 C14         -7.1415  -5.0996  20.0710 C.ar           1 RES1               0.0000
     15 C15         -8.9112  -9.9182  16.7073 C.2            1 RES1               0.0000
     16 C16         -5.9385  -5.1582  19.4002 C.ar           1 RES1               0.0000
     17 O17         -8.6941 -11.0161  16.2028 O.2            1 RES1               0.0000
     18 H18        -11.0090  -6.5265  19.0773 H              1 RES1               0.0000
     19 H19        -10.5675  -5.4848  17.7126 H              1 RES1               0.0000
     20 H20         -6.8442  -7.1650  16.8457 H              1 RES1               0.0000
     21 H21         -9.1814  -5.7216  20.1310 H              1 RES1               0.0000
     22 H22         -8.4153  -8.8618  15.0317 H              1 RES1               0.0000
     23 H23         -9.4304 -10.6201  18.5497 H              1 RES1               0.0000
     24 H24        -12.7759  -6.5365  17.3468 H              1 RES1               0.0000
     25 H25        -11.6231  -7.1048  16.1414 H              1 RES1               0.0000
     26 H26        -12.0619  -8.1403  17.4980 H              1 RES1               0.0000
     27 H27         -4.8945  -5.9515  17.7121 H              1 RES1               0.0000
     28 H28         -7.2239  -4.5167  20.9824 H              1 RES1               0.0000
     29 H29         -5.0747  -4.6233  19.7809 H              1 RES1               0.0000
@<TRIPOS>BOND
    1    1    2 1     
    2    1    3 1     
    3    1    4 1     
    4    1    5 1     
    5    2    6 ar    
    6    2    7 ar    
    7    3    8 1     
    8    3    9 2     
    9    4   10 1     
   10    4   11 2     
   11    5   12 1     
   12    5   18 1     
   13    5   19 1     
   14    6   13 ar    
   15    6   20 1     
   16    7   14 ar    
   17    7   21 1     
   18    8   15 1     
   19    8   22 1     
   20   10   15 1     
   21   10   23 1     
   22   12   24 1     
   23   12   25 1     
   24   12   26 1     
   25   13   16 ar    
   26   13   27 1     
   27   14   16 ar    
   28   14   28 1     
   29   15   17 2     
   30   16   29 1     
@<TRIPOS>SUBSTRUCTURE
      1 RES1           1
@<TRIPOS>SET
DONOR_HYDROGENS      STATIC     ATOMS    <user>   **** ""
2 22 23
ATOM$RED        STATIC     ATOMS    COLORGROUP SYSTEM
2 22 23
@<TRIPOS>COMMENT
> <Gold.Version>
2022.3.0

> <Gold.Id.Protein>
unknown|3ovv_clean|pdb

> <Gold.Protein.RotatedTorsions>
[ 3718 3716 3715 3713 ] final    9.47 input   59.99 | X-H torsion
[ 3645 3636 3635 3633 ] final   24.29 input   60.03 | X-H torsion
[ 3915 3906 3905 3903 ] final  103.10 input   60.03 | X-H torsion
[ 3186 3179 3177 3174 ] final  101.04 input   59.97 | X-H torsion
[ 5212 5203 5202 5200 ] final   85.37 input   59.98 | X-H torsion
[ 2635 2624 2623 2622 ] final -113.72 input   60.00 | X-H torsion
[  604  597  595  592 ] final   43.52 input   59.96 | X-H torsion
[ 1944 1939 1938 1935 ] final   80.32 input   60.01 | X-H torsion
[ 3236 3227 3226 3224 ] final  -36.86 input   60.01 | X-H torsion
[  622  617  616  613 ] final   58.84 input   59.98 | X-H torsion
[ 3127 3124 3123 3122 ] final  -12.92 input   59.98 | X-H torsion
[ 3412 3403 3402 3400 ] final   34.25 input   59.99 | X-H torsion
[ 3128 3125 3123 3122 ] final -168.02 input   60.00 | X-H torsion

> <Gold.Protein.ActiveResidues>
 LEU49   GLY50   THR51   GLY52   SER53   PHE54   VAL79   LEU82   LYS83   GLN84  
 HIS87   THR88   GLY126  GLU127  MET128  PHE129  SER130  HIS131  LEU132  ARG133 
 ARG134  ILE135  GLY136  ARG137  ARG165  ASP166  LEU167  LYS168  PRO169  GLU170 
 ASN171  LEU173  ASP184  GLY186  PHE187  TRP196  TPO197  LEU198  CYS199  GLY200 
 THR201  PRO202  GLU203  TYR204  LEU205  ILE209  ILE210  TYR215  VAL226  LEU227 
 TYR229  GLU230  ALA233  GLY234  TYR235  PRO236  PRO237  PHE238  PHE239  ALA240 
 ASP241  GLN242  PRO243  ILE244  GLN245  ILE246  TYR247  ARG256  PHE257  PRO258 
 SER259  HIS260  ASN326  PHE327  ASP328  ASP329  TYR330 

> <Gold.Protein.RotatedAtoms>
   -6.0306   -2.0289   14.3106 H   0  0  0  0  0  0  0  0  0  0  0  0  # atno 604  bound_to 597 
   -7.4505    0.9301   21.0680 H   0  0  0  0  0  0  0  0  0  0  0  0  # atno 622  bound_to 617 
  -14.0925   -8.1937    8.7794 H   0  0  0  0  0  0  0  0  0  0  0  0  # atno 1944 bound_to 1939
  -14.0790   -1.1117   18.3734 H   0  0  0  0  0  0  0  0  0  0  0  0  # atno 2635 bound_to 2624
  -15.4574   -0.4724   19.0342 H   0  0  0  0  0  0  0  0  0  0  0  0  # atno 2636 bound_to 2624
  -14.3593   -1.2521   20.0004 H   0  0  0  0  0  0  0  0  0  0  0  0  # atno 2637 bound_to 2624
  -13.6801    0.5316   33.6002 H   0  0  0  0  0  0  0  0  0  0  0  0  # atno 3127 bound_to 3124
  -16.4489   -0.1812   35.8334 H   0  0  0  0  0  0  0  0  0  0  0  0  # atno 3128 bound_to 3125
  -16.7682   -0.5856   21.1201 H   0  0  0  0  0  0  0  0  0  0  0  0  # atno 3186 bound_to 3179
  -23.5168   -2.3205   15.5659 H   0  0  0  0  0  0  0  0  0  0  0  0  # atno 3236 bound_to 3227
  -18.4443    1.7407   32.8937 H   0  0  0  0  0  0  0  0  0  0  0  0  # atno 3412 bound_to 3403
  -32.2077    2.1326   11.3420 H   0  0  0  0  0  0  0  0  0  0  0  0  # atno 3645 bound_to 3636
  -32.8895    2.7078    8.6503 H   0  0  0  0  0  0  0  0  0  0  0  0  # atno 3718 bound_to 3716
  -17.8485    8.8430   21.9133 H   0  0  0  0  0  0  0  0  0  0  0  0  # atno 3915 bound_to 3906
   -8.5490   -5.2412   11.5840 H   0  0  0  0  0  0  0  0  0  0  0  0  # atno 5212 bound_to 5203
  -32.8459    1.2991    7.8373 LP  0  0  0  0  0  0  0  0  0  0  0  0  # atno 5527 bound_to 3716
  -32.5667    2.7055    7.0556 LP  0  0  0  0  0  0  0  0  0  0  0  0  # atno 5528 bound_to 3716
  -32.5626    2.9761   12.6878 LP  0  0  0  0  0  0  0  0  0  0  0  0  # atno 5529 bound_to 3636
  -33.6866    2.0052   12.0092 LP  0  0  0  0  0  0  0  0  0  0  0  0  # atno 5530 bound_to 3636
  -18.3462    7.7299   22.9912 LP  0  0  0  0  0  0  0  0  0  0  0  0  # atno 5588 bound_to 3906
  -17.6676    9.1230   23.5062 LP  0  0  0  0  0  0  0  0  0  0  0  0  # atno 5589 bound_to 3906
  -15.9034    0.7866   21.2540 LP  0  0  0  0  0  0  0  0  0  0  0  0  # atno 5590 bound_to 3179
  -16.0592    0.0549   19.8025 LP  0  0  0  0  0  0  0  0  0  0  0  0  # atno 5591 bound_to 3179
   -8.9492   -5.5087   10.0295 LP  0  0  0  0  0  0  0  0  0  0  0  0  # atno 5600 bound_to 5203
   -8.8022   -3.9807   10.5865 LP  0  0  0  0  0  0  0  0  0  0  0  0  # atno 5601 bound_to 5203
   -5.5035   -2.7500   12.9505 LP  0  0  0  0  0  0  0  0  0  0  0  0  # atno 5606 bound_to 597 
   -4.8537   -1.3307   13.4302 LP  0  0  0  0  0  0  0  0  0  0  0  0  # atno 5607 bound_to 597 
  -14.0445   -7.1034    7.5722 LP  0  0  0  0  0  0  0  0  0  0  0  0  # atno 5610 bound_to 1939
  -13.2794   -8.5372    7.4122 LP  0  0  0  0  0  0  0  0  0  0  0  0  # atno 5611 bound_to 1939
  -24.2565   -3.4549   16.4682 LP  0  0  0  0  0  0  0  0  0  0  0  0  # atno 5640 bound_to 3227
  -22.6768   -3.6136   16.0860 LP  0  0  0  0  0  0  0  0  0  0  0  0  # atno 5641 bound_to 3227
   -7.1355    2.3445   20.3275 LP  0  0  0  0  0  0  0  0  0  0  0  0  # atno 5648 bound_to 617 
   -7.5307    2.3193   21.9117 LP  0  0  0  0  0  0  0  0  0  0  0  0  # atno 5649 bound_to 617 
  -14.5104   -0.7490   34.1644 LP  0  0  0  0  0  0  0  0  0  0  0  0  # atno 5673 bound_to 3124
  -13.1641   -0.2406   34.9362 LP  0  0  0  0  0  0  0  0  0  0  0  0  # atno 5674 bound_to 3124
  -18.9346    1.4124   31.3773 LP  0  0  0  0  0  0  0  0  0  0  0  0  # atno 5675 bound_to 3403
  -18.7794    0.2065   32.4674 LP  0  0  0  0  0  0  0  0  0  0  0  0  # atno 5676 bound_to 3403

> <Gold.Score>
     Fitness  S(hb_ext) S(vdw_ext)  S(hb_int)    S(int)      intcor
     40.94       0.00      30.62       0.00      -1.15      -0.76

> <Gold.Goldscore.Fitness>
40.9439

> <Gold.Goldscore.Internal.Vdw>
-1.2627

> <Gold.Goldscore.Internal.Torsion>
-0.6455

> <Gold.Goldscore.External.Vdw>
30.6157

> <Gold.Goldscore.Internal.HBond>
0.0000

> <Gold.Goldscore.External.HBond>
0.0000

> <Gold.Goldscore.Internal.Correction>
-0.7554

> <Gold.Goldscore.Internal.Vdw.Weighted>
-1.2627

> <Gold.Goldscore.Internal.Torsion.Weighted>
-0.6455

> <Gold.Goldscore.External.Vdw.Weighted>
42.0966

> <Gold.Goldscore.Internal.HBond.Weighted>
0.0000

> <Gold.Goldscore.External.HBond.Weighted>
0.0000

> <Gold.Goldscore.Internal.Correction.Weighted>
-0.7554

> <Gold.Rescore>
     Score     S(PLP)   S(hbond)     S(cho)   S(metal)  DE(clash)   DE(tors)     intcor
     39.50     -41.54       0.00       0.00       0.00       0.02       1.01       ----

> <Gold.PLP.Fitness>
39.5037

> <Gold.PLP.PLP>
-41.5416

> <Gold.PLP.part.hbond>
0.0000

> <Gold.PLP.part.metal>
0.0000

> <Gold.PLP.part.buried>
-5.4900

> <Gold.PLP.part.nonpolar>
-37.6983

> <Gold.PLP.part.repulsive>
0.2775

> <Gold.PLP.ligand.clash>
0.0155

> <Gold.PLP.ligand.torsion>
1.0112

> <Gold.PLP.Chemscore.Hbond>
0.0000

> <Gold.PLP.Chemscore.CHOScore>
0.0000

> <Gold.PLP.Chemscore.Metal>
0.0000

> <Gold.PLP.Chemscore.Internal.Correction>
   9.000000E+99

