#       Name:                CT1002167954
#       Creating user name   hitesit
#       Creation time:       Sun Apr 16 20:16:22 2023


#       File generated by GOLD software.
#

@<TRIPOS>MOLECULE
CT1002167954|ligand_prepared|mol2|1|dock6
    29    30     1
SMALL
NO_CHARGES


@<TRIPOS>ATOM
      1 C1          -9.2778  -7.8493  17.2841 C.3            1 RES1               0.0000
      2 C2          -8.1073  -7.0621  17.9080 C.ar           1 RES1               0.0000
      3 C3          -9.0500  -7.8318  15.7755 C.2            1 RES1               0.0000
      4 C4          -9.2339  -9.2416  17.9038 C.2            1 RES1               0.0000
      5 C5         -10.6681  -7.2391  17.5780 C.3            1 RES1               0.0000
      6 C6          -8.1217  -6.7217  19.2573 C.ar           1 RES1               0.0000
      7 C7          -7.0070  -6.6725  17.1489 C.ar           1 RES1               0.0000
      8 N8          -8.6218  -8.9855  15.1877 N.am           1 RES1               0.0000
      9 O9          -9.2055  -6.8104  15.1175 O.2            1 RES1               0.0000
     10 N10         -8.9505 -10.3013  17.0825 N.am           1 RES1               0.0000
     11 O11         -9.4257  -9.4287  19.0990 O.2            1 RES1               0.0000
     12 C12        -11.8048  -7.9126  16.8254 C.3            1 RES1               0.0000
     13 C13         -7.0729  -6.0198  19.8279 C.ar           1 RES1               0.0000
     14 C14         -5.9593  -5.9704  17.7214 C.ar           1 RES1               0.0000
     15 C15         -8.6122 -10.2328  15.7585 C.2            1 RES1               0.0000
     16 C16         -5.9909  -5.6441  19.0606 C.ar           1 RES1               0.0000
     17 O17         -8.3171 -11.2257  15.0995 O.2            1 RES1               0.0000
     18 H18        -10.8653  -7.3122  18.6547 H              1 RES1               0.0000
     19 H19        -10.6501  -6.1750  17.3119 H              1 RES1               0.0000
     20 H20         -8.9659  -7.0067  19.8763 H              1 RES1               0.0000
     21 H21         -6.9612  -6.9174  16.0932 H              1 RES1               0.0000
     22 H22         -8.2768  -8.9143  14.2357 H              1 RES1               0.0000
     23 H23         -8.9961 -11.2270  17.4965 H              1 RES1               0.0000
     24 H24        -12.7574  -7.4463  17.0676 H              1 RES1               0.0000
     25 H25        -11.6540  -7.8369  15.7505 H              1 RES1               0.0000
     26 H26        -11.8679  -8.9673  17.0853 H              1 RES1               0.0000
     27 H27         -7.1032  -5.7642  20.8819 H              1 RES1               0.0000
     28 H28         -5.1100  -5.6762  17.1136 H              1 RES1               0.0000
     29 H29         -5.1692  -5.0945  19.5078 H              1 RES1               0.0000
@<TRIPOS>BOND
    1    1    2 1     
    2    1    3 1     
    3    1    4 1     
    4    1    5 1     
    5    2    6 ar    
    6    2    7 ar    
    7    3    8 1     
    8    3    9 2     
    9    4   10 1     
   10    4   11 2     
   11    5   12 1     
   12    5   18 1     
   13    5   19 1     
   14    6   13 ar    
   15    6   20 1     
   16    7   14 ar    
   17    7   21 1     
   18    8   15 1     
   19    8   22 1     
   20   10   15 1     
   21   10   23 1     
   22   12   24 1     
   23   12   25 1     
   24   12   26 1     
   25   13   16 ar    
   26   13   27 1     
   27   14   16 ar    
   28   14   28 1     
   29   15   17 2     
   30   16   29 1     
@<TRIPOS>SUBSTRUCTURE
      1 RES1           1
@<TRIPOS>SET
DONOR_HYDROGENS      STATIC     ATOMS    <user>   **** ""
2 22 23
ATOM$RED        STATIC     ATOMS    COLORGROUP SYSTEM
2 22 23
@<TRIPOS>COMMENT
> <Gold.Version>
2022.3.0

> <Gold.Id.Protein>
unknown|3ovv_clean|pdb

> <Gold.Protein.RotatedTorsions>
[ 3718 3716 3715 3713 ] final  -52.82 input   59.99 | X-H torsion
[ 3645 3636 3635 3633 ] final -116.13 input   60.03 | X-H torsion
[ 3915 3906 3905 3903 ] final   72.22 input   60.03 | X-H torsion
[ 3186 3179 3177 3174 ] final   55.98 input   59.97 | X-H torsion
[ 5212 5203 5202 5200 ] final   60.43 input   59.98 | X-H torsion
[ 2635 2624 2623 2622 ] final   32.25 input   60.00 | X-H torsion
[  604  597  595  592 ] final   28.43 input   59.96 | X-H torsion
[ 1944 1939 1938 1935 ] final   52.56 input   60.01 | X-H torsion
[ 3236 3227 3226 3224 ] final -107.95 input   60.01 | X-H torsion
[  622  617  616  613 ] final -127.70 input   59.98 | X-H torsion
[ 3127 3124 3123 3122 ] final  178.29 input   59.98 | X-H torsion
[ 3412 3403 3402 3400 ] final  -73.07 input   59.99 | X-H torsion
[ 3128 3125 3123 3122 ] final  120.30 input   60.00 | X-H torsion

> <Gold.Protein.ActiveResidues>
 LEU49   GLY50   THR51   GLY52   SER53   PHE54   VAL79   LEU82   LYS83   GLN84  
 HIS87   THR88   GLY126  GLU127  MET128  PHE129  SER130  HIS131  LEU132  ARG133 
 ARG134  ILE135  GLY136  ARG137  ARG165  ASP166  LEU167  LYS168  PRO169  GLU170 
 ASN171  LEU173  ASP184  GLY186  PHE187  TRP196  TPO197  LEU198  CYS199  GLY200 
 THR201  PRO202  GLU203  TYR204  LEU205  ILE209  ILE210  TYR215  VAL226  LEU227 
 TYR229  GLU230  ALA233  GLY234  TYR235  PRO236  PRO237  PHE238  PHE239  ALA240 
 ASP241  GLN242  PRO243  ILE244  GLN245  ILE246  TYR247  ARG256  PHE257  PRO258 
 SER259  HIS260  ASN326  PHE327  ASP328  ASP329  TYR330 

> <Gold.Protein.RotatedAtoms>
   -6.1080   -2.2410   14.2133 H   0  0  0  0  0  0  0  0  0  0  0  0  # atno 604  bound_to 597 
   -7.3176    2.7867   21.2406 H   0  0  0  0  0  0  0  0  0  0  0  0  # atno 622  bound_to 617 
  -14.2640   -7.7823    8.7235 H   0  0  0  0  0  0  0  0  0  0  0  0  # atno 1944 bound_to 1939
  -15.4450   -0.5559   19.4558 H   0  0  0  0  0  0  0  0  0  0  0  0  # atno 2635 bound_to 2624
  -14.0385   -1.3823   19.7462 H   0  0  0  0  0  0  0  0  0  0  0  0  # atno 2636 bound_to 2624
  -14.4125   -0.8978   18.2059 H   0  0  0  0  0  0  0  0  0  0  0  0  # atno 2637 bound_to 2624
  -14.0393   -0.8750   34.7681 H   0  0  0  0  0  0  0  0  0  0  0  0  # atno 3127 bound_to 3124
  -16.4780   -0.1401   34.7380 H   0  0  0  0  0  0  0  0  0  0  0  0  # atno 3128 bound_to 3125
  -16.5516   -0.0918   21.5936 H   0  0  0  0  0  0  0  0  0  0  0  0  # atno 3186 bound_to 3179
  -24.3508   -2.7796   16.0935 H   0  0  0  0  0  0  0  0  0  0  0  0  # atno 3236 bound_to 3227
  -18.8869    1.5972   31.4595 H   0  0  0  0  0  0  0  0  0  0  0  0  # atno 3412 bound_to 3403
  -32.8759    2.9067   12.7772 H   0  0  0  0  0  0  0  0  0  0  0  0  # atno 3645 bound_to 3636
  -32.9651    1.7432    8.6188 H   0  0  0  0  0  0  0  0  0  0  0  0  # atno 3718 bound_to 3716
  -18.0633    8.3939   21.8876 H   0  0  0  0  0  0  0  0  0  0  0  0  # atno 3915 bound_to 3906
   -8.6047   -5.5799   11.3701 H   0  0  0  0  0  0  0  0  0  0  0  0  # atno 5212 bound_to 5203
  -32.6378    1.7987    7.0260 LP  0  0  0  0  0  0  0  0  0  0  0  0  # atno 5527 bound_to 3716
  -32.6986    3.1776    7.8986 LP  0  0  0  0  0  0  0  0  0  0  0  0  # atno 5528 bound_to 3716
  -33.5599    1.8585   11.7371 LP  0  0  0  0  0  0  0  0  0  0  0  0  # atno 5529 bound_to 3636
  -32.0166    2.3437   11.5151 LP  0  0  0  0  0  0  0  0  0  0  0  0  # atno 5530 bound_to 3636
  -18.2377    7.9310   23.4381 LP  0  0  0  0  0  0  0  0  0  0  0  0  # atno 5588 bound_to 3906
  -17.5598    9.3741   23.0852 LP  0  0  0  0  0  0  0  0  0  0  0  0  # atno 5589 bound_to 3906
  -15.7130    0.8442   20.5594 LP  0  0  0  0  0  0  0  0  0  0  0  0  # atno 5590 bound_to 3179
  -16.4676   -0.4999   20.0203 LP  0  0  0  0  0  0  0  0  0  0  0  0  # atno 5591 bound_to 3179
   -8.9937   -5.1454    9.8509 LP  0  0  0  0  0  0  0  0  0  0  0  0  # atno 5600 bound_to 5203
   -8.7015   -4.0029   10.9805 LP  0  0  0  0  0  0  0  0  0  0  0  0  # atno 5601 bound_to 5203
   -5.3244   -2.6206   12.8387 LP  0  0  0  0  0  0  0  0  0  0  0  0  # atno 5606 bound_to 597 
   -4.9548   -1.2465   13.6399 LP  0  0  0  0  0  0  0  0  0  0  0  0  # atno 5607 bound_to 597 
  -13.7982   -7.2924    7.2432 LP  0  0  0  0  0  0  0  0  0  0  0  0  # atno 5610 bound_to 1939
  -13.3531   -8.7626    7.7974 LP  0  0  0  0  0  0  0  0  0  0  0  0  # atno 5611 bound_to 1939
  -23.2749   -3.9428   16.4644 LP  0  0  0  0  0  0  0  0  0  0  0  0  # atno 5640 bound_to 3227
  -22.8183   -2.6633   15.5584 LP  0  0  0  0  0  0  0  0  0  0  0  0  # atno 5641 bound_to 3227
   -7.6043    1.2918   21.8161 LP  0  0  0  0  0  0  0  0  0  0  0  0  # atno 5648 bound_to 617 
   -7.1958    1.5022   20.2491 LP  0  0  0  0  0  0  0  0  0  0  0  0  # atno 5649 bound_to 617 
  -13.0140    0.3472   34.4482 LP  0  0  0  0  0  0  0  0  0  0  0  0  # atno 5673 bound_to 3124
  -14.2987    0.0797   33.4763 LP  0  0  0  0  0  0  0  0  0  0  0  0  # atno 5674 bound_to 3124
  -18.8405    0.1867   32.2694 LP  0  0  0  0  0  0  0  0  0  0  0  0  # atno 5675 bound_to 3403
  -18.4275    1.5768   33.0203 LP  0  0  0  0  0  0  0  0  0  0  0  0  # atno 5676 bound_to 3403

> <Gold.Score>
     Fitness  S(hb_ext) S(vdw_ext)  S(hb_int)    S(int)      intcor
     42.51       0.12      32.02       0.00      -1.63      -0.76

> <Gold.Goldscore.Fitness>
42.5100

> <Gold.Goldscore.Internal.Vdw>
-1.9323

> <Gold.Goldscore.Internal.Torsion>
-0.4514

> <Gold.Goldscore.External.Vdw>
32.0153

> <Gold.Goldscore.Internal.HBond>
0.0000

> <Gold.Goldscore.External.HBond>
0.1173

> <Gold.Goldscore.Internal.Correction>
-0.7554

> <Gold.Goldscore.Hbonds>
donor molecule, donor type, donor heavy atom, donor atom, acceptor molecule, acceptor atom, score
      L1  H     8    22       P1   568  0.06

> <Gold.Goldscore.Internal.Vdw.Weighted>
-1.9323

> <Gold.Goldscore.Internal.Torsion.Weighted>
-0.4514

> <Gold.Goldscore.External.Vdw.Weighted>
44.0210

> <Gold.Goldscore.Internal.HBond.Weighted>
0.0000

> <Gold.Goldscore.External.HBond.Weighted>
0.1173

> <Gold.Goldscore.Internal.Correction.Weighted>
-0.7554

> <Gold.Rescore>
     Score     S(PLP)   S(hbond)     S(cho)   S(metal)  DE(clash)   DE(tors)     intcor
     37.11     -38.73       0.00       0.00       0.00       0.82       0.40       ----

> <Gold.PLP.Fitness>
37.1081

> <Gold.PLP.PLP>
-38.7266

> <Gold.PLP.part.hbond>
-0.1334

> <Gold.PLP.part.metal>
0.0000

> <Gold.PLP.part.buried>
-3.6440

> <Gold.PLP.part.nonpolar>
-35.5768

> <Gold.PLP.part.repulsive>
0.3253

> <Gold.PLP.ligand.clash>
0.8198

> <Gold.PLP.ligand.torsion>
0.3994

> <Gold.PLP.Chemscore.Hbond>
0.0000

> <Gold.PLP.Chemscore.CHOScore>
0.0000

> <Gold.PLP.Chemscore.Metal>
0.0000

> <Gold.PLP.Chemscore.Internal.Correction>
   9.000000E+99

