#       Name:                CT1002167954
#       Creating user name   hitesit
#       Creation time:       Sun Apr 16 20:16:20 2023


#       File generated by GOLD software.
#

@<TRIPOS>MOLECULE
CT1002167954|ligand_prepared|mol2|1|dock5
    29    30     1
SMALL
NO_CHARGES


@<TRIPOS>ATOM
      1 C1          -9.8237  -1.4766  22.8184 C.3            1 RES1               0.0000
      2 C2          -8.8231  -2.4134  22.1113 C.ar           1 RES1               0.0000
      3 C3         -11.2058  -1.8483  22.2893 C.2            1 RES1               0.0000
      4 C4          -9.6458  -1.7130  24.3141 C.2            1 RES1               0.0000
      5 C5          -9.5784   0.0246  22.5394 C.3            1 RES1               0.0000
      6 C6          -7.4591  -2.3189  22.3709 C.ar           1 RES1               0.0000
      7 C7          -9.2484  -3.3770  21.2008 C.ar           1 RES1               0.0000
      8 N8         -12.0366  -2.5383  23.1222 N.am           1 RES1               0.0000
      9 O9         -11.5469  -1.5748  21.1452 O.2            1 RES1               0.0000
     10 N10        -10.6909  -2.2677  25.0052 N.am           1 RES1               0.0000
     11 O11         -8.6040  -1.4392  24.8971 O.2            1 RES1               0.0000
     12 C12        -10.5437   0.9488  23.2650 C.3            1 RES1               0.0000
     13 C13         -6.5533  -3.1593  21.7451 C.ar           1 RES1               0.0000
     14 C14         -8.3408  -4.2163  20.5759 C.ar           1 RES1               0.0000
     15 C15        -11.8670  -2.7194  24.4713 C.2            1 RES1               0.0000
     16 C16         -6.9935  -4.1087  20.8476 C.ar           1 RES1               0.0000
     17 O17        -12.7375  -3.2570  25.1498 O.2            1 RES1               0.0000
     18 H18         -8.5542   0.2770  22.8406 H              1 RES1               0.0000
     19 H19         -9.6639   0.2018  21.4602 H              1 RES1               0.0000
     20 H20         -7.0938  -1.5762  23.0723 H              1 RES1               0.0000
     21 H21        -10.3035  -3.4790  20.9708 H              1 RES1               0.0000
     22 H22        -12.8601  -2.9585  22.7032 H              1 RES1               0.0000
     23 H23        -10.5822  -2.3516  26.0110 H              1 RES1               0.0000
     24 H24        -10.3276   1.9899  23.0346 H              1 RES1               0.0000
     25 H25        -11.5705   0.7425  22.9701 H              1 RES1               0.0000
     26 H26        -10.4674   0.8172  24.3423 H              1 RES1               0.0000
     27 H27         -5.4938  -3.0697  21.9614 H              1 RES1               0.0000
     28 H28         -8.6917  -4.9616  19.8698 H              1 RES1               0.0000
     29 H29         -6.2837  -4.7672  20.3578 H              1 RES1               0.0000
@<TRIPOS>BOND
    1    1    2 1     
    2    1    3 1     
    3    1    4 1     
    4    1    5 1     
    5    2    6 ar    
    6    2    7 ar    
    7    3    8 1     
    8    3    9 2     
    9    4   10 1     
   10    4   11 2     
   11    5   12 1     
   12    5   18 1     
   13    5   19 1     
   14    6   13 ar    
   15    6   20 1     
   16    7   14 ar    
   17    7   21 1     
   18    8   15 1     
   19    8   22 1     
   20   10   15 1     
   21   10   23 1     
   22   12   24 1     
   23   12   25 1     
   24   12   26 1     
   25   13   16 ar    
   26   13   27 1     
   27   14   16 ar    
   28   14   28 1     
   29   15   17 2     
   30   16   29 1     
@<TRIPOS>SUBSTRUCTURE
      1 RES1           1
@<TRIPOS>SET
DONOR_HYDROGENS      STATIC     ATOMS    <user>   **** ""
2 22 23
ATOM$RED        STATIC     ATOMS    COLORGROUP SYSTEM
2 22 23
@<TRIPOS>COMMENT
> <Gold.Version>
2022.3.0

> <Gold.Id.Protein>
unknown|3ovv_clean|pdb

> <Gold.Protein.RotatedTorsions>
[ 3718 3716 3715 3713 ] final  -59.12 input   59.99 | X-H torsion
[ 3645 3636 3635 3633 ] final  -75.86 input   60.03 | X-H torsion
[ 3915 3906 3905 3903 ] final   85.02 input   60.03 | X-H torsion
[ 3186 3179 3177 3174 ] final  161.31 input   59.97 | X-H torsion
[ 5212 5203 5202 5200 ] final -171.98 input   59.98 | X-H torsion
[ 2635 2624 2623 2622 ] final   38.76 input   60.00 | X-H torsion
[  604  597  595  592 ] final -169.35 input   59.96 | X-H torsion
[ 1944 1939 1938 1935 ] final   53.18 input   60.01 | X-H torsion
[ 3236 3227 3226 3224 ] final   16.75 input   60.01 | X-H torsion
[  622  617  616  613 ] final   22.55 input   59.98 | X-H torsion
[ 3127 3124 3123 3122 ] final -151.78 input   59.98 | X-H torsion
[ 3412 3403 3402 3400 ] final -179.40 input   59.99 | X-H torsion
[ 3128 3125 3123 3122 ] final  -65.75 input   60.00 | X-H torsion

> <Gold.Protein.ActiveResidues>
 LEU49   GLY50   THR51   GLY52   SER53   PHE54   VAL79   LEU82   LYS83   GLN84  
 HIS87   THR88   GLY126  GLU127  MET128  PHE129  SER130  HIS131  LEU132  ARG133 
 ARG134  ILE135  GLY136  ARG137  ARG165  ASP166  LEU167  LYS168  PRO169  GLU170 
 ASN171  LEU173  ASP184  GLY186  PHE187  TRP196  TPO197  LEU198  CYS199  GLY200 
 THR201  PRO202  GLU203  TYR204  LEU205  ILE209  ILE210  TYR215  VAL226  LEU227 
 TYR229  GLU230  ALA233  GLY234  TYR235  PRO236  PRO237  PHE238  PHE239  ALA240 
 ASP241  GLN242  PRO243  ILE244  GLN245  ILE246  TYR247  ARG256  PHE257  PRO258 
 SER259  HIS260  ASN326  PHE327  ASP328  ASP329  TYR330 

> <Gold.Protein.RotatedAtoms>
   -4.7841   -1.6026   13.0904 H   0  0  0  0  0  0  0  0  0  0  0  0  # atno 604  bound_to 597 
   -7.3010    1.1195   20.5371 H   0  0  0  0  0  0  0  0  0  0  0  0  # atno 622  bound_to 617 
  -14.2612   -7.7914    8.7269 H   0  0  0  0  0  0  0  0  0  0  0  0  # atno 1944 bound_to 1939
  -15.4153   -0.5902   19.5546 H   0  0  0  0  0  0  0  0  0  0  0  0  # atno 2635 bound_to 2624
  -13.9747   -1.4019   19.6605 H   0  0  0  0  0  0  0  0  0  0  0  0  # atno 2636 bound_to 2624
  -14.5060   -0.8440   18.1929 H   0  0  0  0  0  0  0  0  0  0  0  0  # atno 2637 bound_to 2624
  -14.3729   -0.8549   34.4188 H   0  0  0  0  0  0  0  0  0  0  0  0  # atno 3127 bound_to 3124
  -16.7652    1.2357   35.9719 H   0  0  0  0  0  0  0  0  0  0  0  0  # atno 3128 bound_to 3125
  -16.5825   -0.6122   20.1986 H   0  0  0  0  0  0  0  0  0  0  0  0  # atno 3186 bound_to 3179
  -22.7741   -2.7218   15.5822 H   0  0  0  0  0  0  0  0  0  0  0  0  # atno 3236 bound_to 3227
  -18.9001    0.2233   32.0569 H   0  0  0  0  0  0  0  0  0  0  0  0  # atno 3412 bound_to 3403
  -32.2899    2.9592   12.5136 H   0  0  0  0  0  0  0  0  0  0  0  0  # atno 3645 bound_to 3636
  -32.9601    1.6595    8.5593 H   0  0  0  0  0  0  0  0  0  0  0  0  # atno 3718 bound_to 3716
  -17.9745    8.5815   21.8655 H   0  0  0  0  0  0  0  0  0  0  0  0  # atno 3915 bound_to 3906
   -8.7301   -3.9841   10.8608 H   0  0  0  0  0  0  0  0  0  0  0  0  # atno 5212 bound_to 5203
  -32.6215    1.8924    6.9851 LP  0  0  0  0  0  0  0  0  0  0  0  0  # atno 5527 bound_to 3716
  -32.7200    3.1682    7.9996 LP  0  0  0  0  0  0  0  0  0  0  0  0  # atno 5528 bound_to 3716
  -33.7052    2.1924   12.2745 LP  0  0  0  0  0  0  0  0  0  0  0  0  # atno 5529 bound_to 3636
  -32.4613    1.9569   11.2430 LP  0  0  0  0  0  0  0  0  0  0  0  0  # atno 5530 bound_to 3636
  -18.2949    7.8211   23.2683 LP  0  0  0  0  0  0  0  0  0  0  0  0  # atno 5588 bound_to 3906
  -17.5921    9.2951   23.2773 LP  0  0  0  0  0  0  0  0  0  0  0  0  # atno 5589 bound_to 3906
  -16.4315    0.1082   21.6502 LP  0  0  0  0  0  0  0  0  0  0  0  0  # atno 5590 bound_to 3179
  -15.7180    0.7601   20.3340 LP  0  0  0  0  0  0  0  0  0  0  0  0  # atno 5591 bound_to 3179
   -8.5845   -5.4917   11.4556 LP  0  0  0  0  0  0  0  0  0  0  0  0  # atno 5600 bound_to 5203
   -8.9844   -5.2641    9.8888 LP  0  0  0  0  0  0  0  0  0  0  0  0  # atno 5601 bound_to 5203
   -5.8022   -1.6551   14.3587 LP  0  0  0  0  0  0  0  0  0  0  0  0  # atno 5606 bound_to 597 
   -5.8105   -2.8550   13.2510 LP  0  0  0  0  0  0  0  0  0  0  0  0  # atno 5607 bound_to 597 
  -13.8039   -7.2863    7.2490 LP  0  0  0  0  0  0  0  0  0  0  0  0  # atno 5610 bound_to 1939
  -13.3502   -8.7595    7.7881 LP  0  0  0  0  0  0  0  0  0  0  0  0  # atno 5611 bound_to 1939
  -24.3329   -2.7187   16.0495 LP  0  0  0  0  0  0  0  0  0  0  0  0  # atno 5640 bound_to 3227
  -23.3485   -3.9455   16.4883 LP  0  0  0  0  0  0  0  0  0  0  0  0  # atno 5641 bound_to 3227
   -7.2080    2.7279   20.7663 LP  0  0  0  0  0  0  0  0  0  0  0  0  # atno 5648 bound_to 617 
   -7.6088    1.7452   22.0074 LP  0  0  0  0  0  0  0  0  0  0  0  0  # atno 5649 bound_to 617 
  -13.0420    0.0037   34.7920 LP  0  0  0  0  0  0  0  0  0  0  0  0  # atno 5673 bound_to 3124
  -13.9347    0.4029   33.4842 LP  0  0  0  0  0  0  0  0  0  0  0  0  # atno 5674 bound_to 3124
  -18.4295    1.3712   33.1097 LP  0  0  0  0  0  0  0  0  0  0  0  0  # atno 5675 bound_to 3403
  -18.8252    1.7765   31.5781 LP  0  0  0  0  0  0  0  0  0  0  0  0  # atno 5676 bound_to 3403

> <Gold.Score>
     Fitness  S(hb_ext) S(vdw_ext)  S(hb_int)    S(int)      intcor
     32.29       3.60      23.06       0.00      -3.02      -0.76

> <Gold.Goldscore.Fitness>
32.2902

> <Gold.Goldscore.Internal.Vdw>
-3.4012

> <Gold.Goldscore.Internal.Torsion>
-0.3700

> <Gold.Goldscore.External.Vdw>
23.0612

> <Gold.Goldscore.Internal.HBond>
0.0000

> <Gold.Goldscore.External.HBond>
3.5968

> <Gold.Goldscore.Internal.Correction>
-0.7554

> <Gold.Goldscore.Hbonds>
donor molecule, donor type, donor heavy atom, donor atom, acceptor molecule, acceptor atom, score
      P1  H  2624  2636       L1     9  0.46
      L1  H     8    22       P1  2592  0.14

> <Gold.Goldscore.Internal.Vdw.Weighted>
-3.4012

> <Gold.Goldscore.Internal.Torsion.Weighted>
-0.3700

> <Gold.Goldscore.External.Vdw.Weighted>
31.7091

> <Gold.Goldscore.Internal.HBond.Weighted>
0.0000

> <Gold.Goldscore.External.HBond.Weighted>
3.5968

> <Gold.Goldscore.Internal.Correction.Weighted>
-0.7554

> <Gold.Rescore>
     Score     S(PLP)   S(hbond)     S(cho)   S(metal)  DE(clash)   DE(tors)     intcor
     36.65     -36.16       0.65       0.00       0.00       1.35       0.05       ----

> <Gold.PLP.Fitness>
36.6501

> <Gold.PLP.PLP>
-36.1564

> <Gold.PLP.part.hbond>
-2.0737

> <Gold.PLP.part.metal>
0.0000

> <Gold.PLP.part.buried>
-5.1284

> <Gold.PLP.part.nonpolar>
-29.1167

> <Gold.PLP.part.repulsive>
1.2948

> <Gold.PLP.ligand.clash>
1.3496

> <Gold.PLP.ligand.torsion>
0.0537

> <Gold.PLP.Chemscore.Hbond>
0.6503

> <Gold.PLP.Chemscore.CHOScore>
0.0000

> <Gold.PLP.Chemscore.Metal>
0.0000

> <Gold.Chemscore.Hbonds>
donor molecule, donor type, donor heavy atom, donor atom, acceptor molecule, acceptor atom, score
      L1  H     8    22       P1  2592  1.00

> <Gold.PLP.Chemscore.Internal.Correction>
   9.000000E+99

