#       Name:                CT1002167954
#       Creating user name   hitesit
#       Creation time:       Sun Apr 16 20:16:23 2023


#       File generated by GOLD software.
#

@<TRIPOS>MOLECULE
CT1002167954|ligand_prepared|mol2|1|dock7
    29    30     1
SMALL
NO_CHARGES


@<TRIPOS>ATOM
      1 C1          -8.2210  -2.1038  22.1973 C.3            1 RES1               0.0000
      2 C2          -7.3493  -3.1423  21.4622 C.ar           1 RES1               0.0000
      3 C3          -8.7783  -1.1748  21.1228 C.2            1 RES1               0.0000
      4 C4          -9.2856  -2.8955  22.9485 C.2            1 RES1               0.0000
      5 C5          -7.4431  -1.2522  23.2276 C.3            1 RES1               0.0000
      6 C6          -5.9971  -3.2734  21.7641 C.ar           1 RES1               0.0000
      7 C7          -7.8828  -3.9767  20.4836 C.ar           1 RES1               0.0000
      8 N8         -10.0961  -1.3049  20.7966 N.am           1 RES1               0.0000
      9 O9          -8.0631  -0.3673  20.5425 O.2            1 RES1               0.0000
     10 N10        -10.5916  -2.7416  22.5631 N.am           1 RES1               0.0000
     11 O11         -9.0037  -3.6639  23.8598 O.2            1 RES1               0.0000
     12 C12         -8.2802  -0.1632  23.8798 C.3            1 RES1               0.0000
     13 C13         -5.2074  -4.2068  21.1133 C.ar           1 RES1               0.0000
     14 C14         -7.0912  -4.9093  19.8338 C.ar           1 RES1               0.0000
     15 C15        -11.0419  -2.0057  21.5011 C.2            1 RES1               0.0000
     16 C16         -5.7539  -5.0256  20.1482 C.ar           1 RES1               0.0000
     17 O17        -12.2269  -1.9599  21.1837 O.2            1 RES1               0.0000
     18 H18         -7.0531  -1.9144  24.0104 H              1 RES1               0.0000
     19 H19         -6.5865  -0.7859  22.7254 H              1 RES1               0.0000
     20 H20         -5.5489  -2.6361  22.5191 H              1 RES1               0.0000
     21 H21         -8.9321  -3.9022  20.2191 H              1 RES1               0.0000
     22 H22        -10.4072  -0.8381  19.9507 H              1 RES1               0.0000
     23 H23        -11.2930  -3.2199  23.1194 H              1 RES1               0.0000
     24 H24         -7.6866   0.4041  24.5936 H              1 RES1               0.0000
     25 H25         -8.6636   0.5283  23.1325 H              1 RES1               0.0000
     26 H26         -9.1275  -0.5934  24.4098 H              1 RES1               0.0000
     27 H27         -4.1552  -4.2934  21.3634 H              1 RES1               0.0000
     28 H28         -7.5254  -5.5512  19.0744 H              1 RES1               0.0000
     29 H29         -5.1352  -5.7570  19.6388 H              1 RES1               0.0000
@<TRIPOS>BOND
    1    1    2 1     
    2    1    3 1     
    3    1    4 1     
    4    1    5 1     
    5    2    6 ar    
    6    2    7 ar    
    7    3    8 1     
    8    3    9 2     
    9    4   10 1     
   10    4   11 2     
   11    5   12 1     
   12    5   18 1     
   13    5   19 1     
   14    6   13 ar    
   15    6   20 1     
   16    7   14 ar    
   17    7   21 1     
   18    8   15 1     
   19    8   22 1     
   20   10   15 1     
   21   10   23 1     
   22   12   24 1     
   23   12   25 1     
   24   12   26 1     
   25   13   16 ar    
   26   13   27 1     
   27   14   16 ar    
   28   14   28 1     
   29   15   17 2     
   30   16   29 1     
@<TRIPOS>SUBSTRUCTURE
      1 RES1           1
@<TRIPOS>SET
DONOR_HYDROGENS      STATIC     ATOMS    <user>   **** ""
2 22 23
ATOM$RED        STATIC     ATOMS    COLORGROUP SYSTEM
2 22 23
@<TRIPOS>COMMENT
> <Gold.Version>
2022.3.0

> <Gold.Id.Protein>
unknown|3ovv_clean|pdb

> <Gold.Protein.RotatedTorsions>
[ 3718 3716 3715 3713 ] final -100.22 input   59.99 | X-H torsion
[ 3645 3636 3635 3633 ] final  155.92 input   60.03 | X-H torsion
[ 3915 3906 3905 3903 ] final  174.13 input   60.03 | X-H torsion
[ 3186 3179 3177 3174 ] final   86.07 input   59.97 | X-H torsion
[ 5212 5203 5202 5200 ] final  142.10 input   59.98 | X-H torsion
[ 2635 2624 2623 2622 ] final  155.54 input   60.00 | X-H torsion
[  604  597  595  592 ] final -175.71 input   59.96 | X-H torsion
[ 1944 1939 1938 1935 ] final   17.04 input   60.01 | X-H torsion
[ 3236 3227 3226 3224 ] final  -17.76 input   60.01 | X-H torsion
[  622  617  616  613 ] final -155.52 input   59.98 | X-H torsion
[ 3127 3124 3123 3122 ] final -158.37 input   59.98 | X-H torsion
[ 3412 3403 3402 3400 ] final  -22.99 input   59.99 | X-H torsion
[ 3128 3125 3123 3122 ] final -159.02 input   60.00 | X-H torsion

> <Gold.Protein.ActiveResidues>
 LEU49   GLY50   THR51   GLY52   SER53   PHE54   VAL79   LEU82   LYS83   GLN84  
 HIS87   THR88   GLY126  GLU127  MET128  PHE129  SER130  HIS131  LEU132  ARG133 
 ARG134  ILE135  GLY136  ARG137  ARG165  ASP166  LEU167  LYS168  PRO169  GLU170 
 ASN171  LEU173  ASP184  GLY186  PHE187  TRP196  TPO197  LEU198  CYS199  GLY200 
 THR201  PRO202  GLU203  TYR204  LEU205  ILE209  ILE210  TYR215  VAL226  LEU227 
 TYR229  GLU230  ALA233  GLY234  TYR235  PRO236  PRO237  PHE238  PHE239  ALA240 
 ASP241  GLN242  PRO243  ILE244  GLN245  ILE246  TYR247  ARG256  PHE257  PRO258 
 SER259  HIS260  ASN326  PHE327  ASP328  ASP329  TYR330 

> <Gold.Protein.RotatedAtoms>
   -4.7878   -1.5291   13.1637 H   0  0  0  0  0  0  0  0  0  0  0  0  # atno 604  bound_to 597 
   -7.4331    2.6237   21.6439 H   0  0  0  0  0  0  0  0  0  0  0  0  # atno 622  bound_to 617 
  -14.3272   -7.3230    8.3899 H   0  0  0  0  0  0  0  0  0  0  0  0  # atno 1944 bound_to 1939
  -14.0054   -1.3930   19.7035 H   0  0  0  0  0  0  0  0  0  0  0  0  # atno 2635 bound_to 2624
  -14.4589   -0.8705   18.1980 H   0  0  0  0  0  0  0  0  0  0  0  0  # atno 2636 bound_to 2624
  -15.4314   -0.5726   19.5067 H   0  0  0  0  0  0  0  0  0  0  0  0  # atno 2637 bound_to 2624
  -14.3103   -0.8765   34.5036 H   0  0  0  0  0  0  0  0  0  0  0  0  # atno 3127 bound_to 3124
  -16.4667   -0.0926   35.9493 H   0  0  0  0  0  0  0  0  0  0  0  0  # atno 3128 bound_to 3125
  -16.7274   -0.4545   21.3217 H   0  0  0  0  0  0  0  0  0  0  0  0  # atno 3186 bound_to 3179
  -23.2185   -2.3947   15.5202 H   0  0  0  0  0  0  0  0  0  0  0  0  # atno 3236 bound_to 3227
  -18.6456    2.0378   32.0722 H   0  0  0  0  0  0  0  0  0  0  0  0  # atno 3412 bound_to 3403
  -33.7036    2.1106   12.1671 H   0  0  0  0  0  0  0  0  0  0  0  0  # atno 3645 bound_to 3636
  -32.8751    1.3215    8.0023 H   0  0  0  0  0  0  0  0  0  0  0  0  # atno 3718 bound_to 3716
  -17.5526    9.4119   22.7922 H   0  0  0  0  0  0  0  0  0  0  0  0  # atno 3915 bound_to 3906
   -8.5761   -4.3598   11.4677 H   0  0  0  0  0  0  0  0  0  0  0  0  # atno 5212 bound_to 5203
  -32.5651    2.5519    6.9839 LP  0  0  0  0  0  0  0  0  0  0  0  0  # atno 5527 bound_to 3716
  -32.8620    2.8492    8.5619 LP  0  0  0  0  0  0  0  0  0  0  0  0  # atno 5528 bound_to 3716
  -32.3479    2.0249   11.2708 LP  0  0  0  0  0  0  0  0  0  0  0  0  # atno 5529 bound_to 3636
  -32.3954    2.9786   12.5955 LP  0  0  0  0  0  0  0  0  0  0  0  0  # atno 5530 bound_to 3636
  -18.1782    8.1416   21.9901 LP  0  0  0  0  0  0  0  0  0  0  0  0  # atno 5588 bound_to 3906
  -18.1336    8.1385   23.6224 LP  0  0  0  0  0  0  0  0  0  0  0  0  # atno 5589 bound_to 3906
  -15.8090    0.8591   21.0392 LP  0  0  0  0  0  0  0  0  0  0  0  0  # atno 5590 bound_to 3179
  -16.1946   -0.1496   19.8143 LP  0  0  0  0  0  0  0  0  0  0  0  0  # atno 5591 bound_to 3179
   -8.7448   -5.8486   10.8328 LP  0  0  0  0  0  0  0  0  0  0  0  0  # atno 5600 bound_to 5203
   -8.9792   -4.5287    9.9003 LP  0  0  0  0  0  0  0  0  0  0  0  0  # atno 5601 bound_to 5203
   -5.8660   -1.7379   14.3643 LP  0  0  0  0  0  0  0  0  0  0  0  0  # atno 5606 bound_to 597 
   -5.7430   -2.8463   13.1715 LP  0  0  0  0  0  0  0  0  0  0  0  0  # atno 5607 bound_to 597 
  -13.4935   -7.7433    7.0571 LP  0  0  0  0  0  0  0  0  0  0  0  0  # atno 5610 bound_to 1939
  -13.5941   -8.7742    8.3195 LP  0  0  0  0  0  0  0  0  0  0  0  0  # atno 5611 bound_to 1939
  -24.3728   -3.1916   16.3454 LP  0  0  0  0  0  0  0  0  0  0  0  0  # atno 5640 bound_to 3227
  -22.8610   -3.8021   16.2548 LP  0  0  0  0  0  0  0  0  0  0  0  0  # atno 5641 bound_to 3227
   -7.5442    1.0099   21.4664 LP  0  0  0  0  0  0  0  0  0  0  0  0  # atno 5648 bound_to 617 
   -7.1396    1.9483   20.1927 LP  0  0  0  0  0  0  0  0  0  0  0  0  # atno 5649 bound_to 617 
  -13.0177    0.0864   34.7264 LP  0  0  0  0  0  0  0  0  0  0  0  0  # atno 5673 bound_to 3124
  -14.0221    0.3419   33.4644 LP  0  0  0  0  0  0  0  0  0  0  0  0  # atno 5674 bound_to 3124
  -18.9998    0.5320   31.5676 LP  0  0  0  0  0  0  0  0  0  0  0  0  # atno 5675 bound_to 3403
  -18.5114    0.7875   33.1048 LP  0  0  0  0  0  0  0  0  0  0  0  0  # atno 5676 bound_to 3403

> <Gold.Score>
     Fitness  S(hb_ext) S(vdw_ext)  S(hb_int)    S(int)      intcor
     42.41       7.19      26.38       0.00      -1.05      -0.76

> <Gold.Goldscore.Fitness>
42.4077

> <Gold.Goldscore.Internal.Vdw>
-1.4088

> <Gold.Goldscore.Internal.Torsion>
-0.3963

> <Gold.Goldscore.External.Vdw>
26.3756

> <Gold.Goldscore.Internal.HBond>
0.0000

> <Gold.Goldscore.External.HBond>
7.1909

> <Gold.Goldscore.Internal.Correction>
-0.7554

> <Gold.Goldscore.Hbonds>
donor molecule, donor type, donor heavy atom, donor atom, acceptor molecule, acceptor atom, score
      P1  H  2624  2635       L1    17  1.00
      P1  H   612   618       L1     9  0.60

> <Gold.Goldscore.Internal.Vdw.Weighted>
-1.4088

> <Gold.Goldscore.Internal.Torsion.Weighted>
-0.3963

> <Gold.Goldscore.External.Vdw.Weighted>
36.2665

> <Gold.Goldscore.Internal.HBond.Weighted>
0.0000

> <Gold.Goldscore.External.HBond.Weighted>
7.1909

> <Gold.Goldscore.Internal.Correction.Weighted>
-0.7554

> <Gold.Rescore>
     Score     S(PLP)   S(hbond)     S(cho)   S(metal)  DE(clash)   DE(tors)     intcor
     42.53     -39.61       1.00       0.00       0.00       0.00       0.04       ----

> <Gold.PLP.Fitness>
42.5280

> <Gold.PLP.PLP>
-39.6078

> <Gold.PLP.part.hbond>
-3.0000

> <Gold.PLP.part.metal>
0.0000

> <Gold.PLP.part.buried>
-5.9794

> <Gold.PLP.part.nonpolar>
-35.3032

> <Gold.PLP.part.repulsive>
3.9240

> <Gold.PLP.ligand.clash>
0.0000

> <Gold.PLP.ligand.torsion>
0.0399

> <Gold.PLP.Chemscore.Hbond>
1.0000

> <Gold.PLP.Chemscore.CHOScore>
0.0000

> <Gold.PLP.Chemscore.Metal>
0.0000

> <Gold.Chemscore.Hbonds>
donor molecule, donor type, donor heavy atom, donor atom, acceptor molecule, acceptor atom, score
      P1  H  2624  2635       L1    17  0.29
      P1  H   612   618       L1     9  0.78

> <Gold.PLP.Chemscore.Internal.Correction>
   9.000000E+99

