#       Name:                CT1002167954
#       Creating user name   hitesit
#       Creation time:       Sun Apr 16 20:16:16 2023


#       File generated by GOLD software.
#

@<TRIPOS>MOLECULE
CT1002167954|ligand_prepared|mol2|1|dock2
    29    30     1
SMALL
NO_CHARGES


@<TRIPOS>ATOM
      1 C1          -9.6386  -7.9983  17.0297 C.3            1 RES1               0.0000
      2 C2          -9.3276  -9.3106  17.7780 C.ar           1 RES1               0.0000
      3 C3         -11.1218  -7.7185  17.2537 C.2            1 RES1               0.0000
      4 C4          -8.7104  -6.9415  17.6180 C.2            1 RES1               0.0000
      5 C5          -9.3767  -8.0701  15.5073 C.3            1 RES1               0.0000
      6 C6          -9.2562  -9.3341  19.1677 C.ar           1 RES1               0.0000
      7 C7          -9.1128 -10.5040  17.0938 C.ar           1 RES1               0.0000
      8 N8         -11.4522  -6.7153  18.1164 N.am           1 RES1               0.0000
      9 O9         -11.9883  -8.3938  16.7121 O.2            1 RES1               0.0000
     10 N10         -9.2762  -5.9054  18.3138 N.am           1 RES1               0.0000
     11 O11         -7.4929  -7.0054  17.4994 O.2            1 RES1               0.0000
     12 C12         -9.4993  -6.7295  14.8002 C.3            1 RES1               0.0000
     13 C13         -8.9829 -10.5086  19.8489 C.ar           1 RES1               0.0000
     14 C14         -8.8394 -11.6775  17.7770 C.ar           1 RES1               0.0000
     15 C15        -10.6029  -5.7609  18.6159 C.2            1 RES1               0.0000
     16 C16         -8.7748 -11.6811  19.1542 C.ar           1 RES1               0.0000
     17 O17        -11.0290  -4.8300  19.2934 O.2            1 RES1               0.0000
     18 H18         -8.3674  -8.4661  15.3409 H              1 RES1               0.0000
     19 H19        -10.0905  -8.7723  15.0589 H              1 RES1               0.0000
     20 H20         -9.4148  -8.4207  19.7312 H              1 RES1               0.0000
     21 H21         -9.1576 -10.5247  16.0102 H              1 RES1               0.0000
     22 H22        -12.4204  -6.6706  18.4180 H              1 RES1               0.0000
     23 H23         -8.6505  -5.1742  18.6364 H              1 RES1               0.0000
     24 H24         -9.3061  -6.8363  13.7348 H              1 RES1               0.0000
     25 H25        -10.4990  -6.3182  14.9237 H              1 RES1               0.0000
     26 H26         -8.7861  -6.0139  15.2039 H              1 RES1               0.0000
     27 H27         -8.9318 -10.5058  20.9327 H              1 RES1               0.0000
     28 H28         -8.6756 -12.5978  17.2262 H              1 RES1               0.0000
     29 H29         -8.5611 -12.6011  19.6881 H              1 RES1               0.0000
@<TRIPOS>BOND
    1    1    2 1     
    2    1    3 1     
    3    1    4 1     
    4    1    5 1     
    5    2    6 ar    
    6    2    7 ar    
    7    3    8 1     
    8    3    9 2     
    9    4   10 1     
   10    4   11 2     
   11    5   12 1     
   12    5   18 1     
   13    5   19 1     
   14    6   13 ar    
   15    6   20 1     
   16    7   14 ar    
   17    7   21 1     
   18    8   15 1     
   19    8   22 1     
   20   10   15 1     
   21   10   23 1     
   22   12   24 1     
   23   12   25 1     
   24   12   26 1     
   25   13   16 ar    
   26   13   27 1     
   27   14   16 ar    
   28   14   28 1     
   29   15   17 2     
   30   16   29 1     
@<TRIPOS>SUBSTRUCTURE
      1 RES1           1
@<TRIPOS>SET
DONOR_HYDROGENS      STATIC     ATOMS    <user>   **** ""
2 22 23
ATOM$RED        STATIC     ATOMS    COLORGROUP SYSTEM
2 22 23
@<TRIPOS>COMMENT
> <Gold.Version>
2022.3.0

> <Gold.Id.Protein>
unknown|3ovv_clean|pdb

> <Gold.Protein.RotatedTorsions>
[ 3718 3716 3715 3713 ] final   98.26 input   59.99 | X-H torsion
[ 3645 3636 3635 3633 ] final  -89.50 input   60.03 | X-H torsion
[ 3915 3906 3905 3903 ] final   44.66 input   60.03 | X-H torsion
[ 3186 3179 3177 3174 ] final  -93.36 input   59.97 | X-H torsion
[ 5212 5203 5202 5200 ] final -176.13 input   59.98 | X-H torsion
[ 2635 2624 2623 2622 ] final  139.01 input   60.00 | X-H torsion
[  604  597  595  592 ] final  119.49 input   59.96 | X-H torsion
[ 1944 1939 1938 1935 ] final  147.94 input   60.01 | X-H torsion
[ 3236 3227 3226 3224 ] final  124.59 input   60.01 | X-H torsion
[  622  617  616  613 ] final  161.04 input   59.98 | X-H torsion
[ 3127 3124 3123 3122 ] final  -76.36 input   59.98 | X-H torsion
[ 3412 3403 3402 3400 ] final  -21.46 input   59.99 | X-H torsion
[ 3128 3125 3123 3122 ] final -172.52 input   60.00 | X-H torsion

> <Gold.Protein.ActiveResidues>
 LEU49   GLY50   THR51   GLY52   SER53   PHE54   VAL79   LEU82   LYS83   GLN84  
 HIS87   THR88   GLY126  GLU127  MET128  PHE129  SER130  HIS131  LEU132  ARG133 
 ARG134  ILE135  GLY136  ARG137  ARG165  ASP166  LEU167  LYS168  PRO169  GLU170 
 ASN171  LEU173  ASP184  GLY186  PHE187  TRP196  TPO197  LEU198  CYS199  GLY200 
 THR201  PRO202  GLU203  TYR204  LEU205  ILE209  ILE210  TYR215  VAL226  LEU227 
 TYR229  GLU230  ALA233  GLY234  TYR235  PRO236  PRO237  PHE238  PHE239  ALA240 
 ASP241  GLN242  PRO243  ILE244  GLN245  ILE246  TYR247  ARG256  PHE257  PRO258 
 SER259  HIS260  ASN326  PHE327  ASP328  ASP329  TYR330 

> <Gold.Protein.RotatedAtoms>
   -5.2393   -1.2459   14.0136 H   0  0  0  0  0  0  0  0  0  0  0  0  # atno 604  bound_to 597 
   -7.5756    2.0452   21.9977 H   0  0  0  0  0  0  0  0  0  0  0  0  # atno 622  bound_to 617 
  -13.5101   -8.8004    8.1640 H   0  0  0  0  0  0  0  0  0  0  0  0  # atno 1944 bound_to 1939
  -14.1909   -1.3256   19.8949 H   0  0  0  0  0  0  0  0  0  0  0  0  # atno 2635 bound_to 2624
  -14.2319   -1.0083   18.2691 H   0  0  0  0  0  0  0  0  0  0  0  0  # atno 2636 bound_to 2624
  -15.4730   -0.5022   19.2442 H   0  0  0  0  0  0  0  0  0  0  0  0  # atno 2637 bound_to 2624
  -14.4288   -0.1059   33.5544 H   0  0  0  0  0  0  0  0  0  0  0  0  # atno 3127 bound_to 3124
  -16.4417   -0.2185   35.7705 H   0  0  0  0  0  0  0  0  0  0  0  0  # atno 3128 bound_to 3125
  -15.7623    0.6293   20.1376 H   0  0  0  0  0  0  0  0  0  0  0  0  # atno 3186 bound_to 3179
  -23.1632   -3.9208   16.4195 H   0  0  0  0  0  0  0  0  0  0  0  0  # atno 3236 bound_to 3227
  -18.6381    2.0414   32.0957 H   0  0  0  0  0  0  0  0  0  0  0  0  # atno 3412 bound_to 3403
  -32.4730    2.9744   12.6390 H   0  0  0  0  0  0  0  0  0  0  0  0  # atno 3645 bound_to 3636
  -32.6087    3.0542    7.4190 H   0  0  0  0  0  0  0  0  0  0  0  0  # atno 3718 bound_to 3716
  -18.2309    8.0306   22.0850 H   0  0  0  0  0  0  0  0  0  0  0  0  # atno 3915 bound_to 3906
   -8.7136   -3.9959   10.9254 H   0  0  0  0  0  0  0  0  0  0  0  0  # atno 5212 bound_to 5203
  -32.9584    2.2224    8.7729 LP  0  0  0  0  0  0  0  0  0  0  0  0  # atno 5527 bound_to 3716
  -32.7371    1.4333    7.3604 LP  0  0  0  0  0  0  0  0  0  0  0  0  # atno 5528 bound_to 3716
  -33.7039    2.0601   12.0937 LP  0  0  0  0  0  0  0  0  0  0  0  0  # atno 5529 bound_to 3636
  -32.2782    2.0739   11.2975 LP  0  0  0  0  0  0  0  0  0  0  0  0  # atno 5530 bound_to 3636
  -18.0712    8.2655   23.6874 LP  0  0  0  0  0  0  0  0  0  0  0  0  # atno 5588 bound_to 3906
  -17.5576    9.4055   22.6371 LP  0  0  0  0  0  0  0  0  0  0  0  0  # atno 5589 bound_to 3906
  -16.6763   -0.6905   20.4053 LP  0  0  0  0  0  0  0  0  0  0  0  0  # atno 5590 bound_to 3179
  -16.2989    0.3089   21.6403 LP  0  0  0  0  0  0  0  0  0  0  0  0  # atno 5591 bound_to 3179
   -8.5956   -5.5439   11.4131 LP  0  0  0  0  0  0  0  0  0  0  0  0  # atno 5600 bound_to 5203
   -8.9900   -5.2000    9.8662 LP  0  0  0  0  0  0  0  0  0  0  0  0  # atno 5601 bound_to 5203
   -6.1362   -2.5998   13.9116 LP  0  0  0  0  0  0  0  0  0  0  0  0  # atno 5606 bound_to 597 
   -5.0180   -2.2697   12.7682 LP  0  0  0  0  0  0  0  0  0  0  0  0  # atno 5607 bound_to 597 
  -14.3310   -7.4418    8.5233 LP  0  0  0  0  0  0  0  0  0  0  0  0  # atno 5610 bound_to 1939
  -13.5795   -7.5878    7.0808 LP  0  0  0  0  0  0  0  0  0  0  0  0  # atno 5611 bound_to 1939
  -22.9053   -2.5797   15.5346 LP  0  0  0  0  0  0  0  0  0  0  0  0  # atno 5640 bound_to 3227
  -24.3842   -2.8769   16.1599 LP  0  0  0  0  0  0  0  0  0  0  0  0  # atno 5641 bound_to 3227
   -7.3798    0.9731   20.7892 LP  0  0  0  0  0  0  0  0  0  0  0  0  # atno 5648 bound_to 617 
   -7.1605    2.5677   20.5136 LP  0  0  0  0  0  0  0  0  0  0  0  0  # atno 5649 bound_to 617 
  -13.8436   -0.8192   34.8947 LP  0  0  0  0  0  0  0  0  0  0  0  0  # atno 5673 bound_to 3124
  -13.0769    0.4715   34.2520 LP  0  0  0  0  0  0  0  0  0  0  0  0  # atno 5674 bound_to 3124
  -19.0017    0.5516   31.5520 LP  0  0  0  0  0  0  0  0  0  0  0  0  # atno 5675 bound_to 3403
  -18.5169    0.7644   33.0967 LP  0  0  0  0  0  0  0  0  0  0  0  0  # atno 5676 bound_to 3403

> <Gold.Score>
     Fitness  S(hb_ext) S(vdw_ext)  S(hb_int)    S(int)      intcor
     46.79       1.12      33.24       0.00      -0.04      -0.76

> <Gold.Goldscore.Fitness>
46.7868

> <Gold.Goldscore.Internal.Vdw>
-0.3304

> <Gold.Goldscore.Internal.Torsion>
-0.4647

> <Gold.Goldscore.External.Vdw>
33.2391

> <Gold.Goldscore.Internal.HBond>
0.0000

> <Gold.Goldscore.External.HBond>
1.1227

> <Gold.Goldscore.Internal.Correction>
-0.7554

> <Gold.Goldscore.Hbonds>
donor molecule, donor type, donor heavy atom, donor atom, acceptor molecule, acceptor atom, score
      L1  H     8    22       P1  2674  0.56

> <Gold.Goldscore.Internal.Vdw.Weighted>
-0.3304

> <Gold.Goldscore.Internal.Torsion.Weighted>
-0.4647

> <Gold.Goldscore.External.Vdw.Weighted>
45.7038

> <Gold.Goldscore.Internal.HBond.Weighted>
0.0000

> <Gold.Goldscore.External.HBond.Weighted>
1.1227

> <Gold.Goldscore.Internal.Correction.Weighted>
-0.7554

> <Gold.Rescore>
     Score     S(PLP)   S(hbond)     S(cho)   S(metal)  DE(clash)   DE(tors)     intcor
     41.19     -37.28       1.48       0.00       0.00       0.00       0.26       ----

> <Gold.PLP.Fitness>
41.1939

> <Gold.PLP.PLP>
-37.2769

> <Gold.PLP.part.hbond>
-3.5592

> <Gold.PLP.part.metal>
0.0000

> <Gold.PLP.part.buried>
2.1749

> <Gold.PLP.part.nonpolar>
-40.0311

> <Gold.PLP.part.repulsive>
3.0483

> <Gold.PLP.ligand.clash>
0.0000

> <Gold.PLP.ligand.torsion>
0.2596

> <Gold.PLP.Chemscore.Hbond>
1.4788

> <Gold.PLP.Chemscore.CHOScore>
0.0000

> <Gold.PLP.Chemscore.Metal>
0.0000

> <Gold.Chemscore.Hbonds>
donor molecule, donor type, donor heavy atom, donor atom, acceptor molecule, acceptor atom, score
      L1  H     8    22       P1  2674  1.00

> <Gold.PLP.Chemscore.Internal.Correction>
   9.000000E+99

