#       Name:                CT1002167954
#       Creating user name   hitesit
#       Creation time:       Sun Apr 16 20:16:19 2023


#       File generated by GOLD software.
#

@<TRIPOS>MOLECULE
CT1002167954|ligand_prepared|mol2|1|dock4
    29    30     1
SMALL
NO_CHARGES


@<TRIPOS>ATOM
      1 C1          -9.7397  -7.5535  17.1526 C.3            1 RES1               0.0000
      2 C2          -9.4019  -8.8164  17.9710 C.ar           1 RES1               0.0000
      3 C3         -11.2310  -7.2997  17.3526 C.2            1 RES1               0.0000
      4 C4          -8.8423  -6.4442  17.6900 C.2            1 RES1               0.0000
      5 C5          -9.4650  -7.6986  15.6377 C.3            1 RES1               0.0000
      6 C6          -9.2711  -8.7501  19.3549 C.ar           1 RES1               0.0000
      7 C7          -9.2211 -10.0532  17.3575 C.ar           1 RES1               0.0000
      8 N8         -11.5926  -6.2611  18.1592 N.am           1 RES1               0.0000
      9 O9         -12.0766  -8.0240  16.8421 O.2            1 RES1               0.0000
     10 N10         -9.4388  -5.3876  18.3269 N.am           1 RES1               0.0000
     11 O11         -7.6228  -6.4838  17.5824 O.2            1 RES1               0.0000
     12 C12         -9.5803  -6.3935  14.8659 C.3            1 RES1               0.0000
     13 C13         -8.9733  -9.8797  20.0989 C.ar           1 RES1               0.0000
     14 C14         -8.9231 -11.1816  18.1034 C.ar           1 RES1               0.0000
     15 C15        -10.7708  -5.2608  18.6128 C.2            1 RES1               0.0000
     16 C16         -8.7995 -11.0962  19.4738 C.ar           1 RES1               0.0000
     17 O17        -11.2248  -4.3065  19.2377 O.2            1 RES1               0.0000
     18 H18         -8.4545  -8.1026  15.4992 H              1 RES1               0.0000
     19 H19        -10.1755  -8.4211  15.2176 H              1 RES1               0.0000
     20 H20         -9.4019  -7.8010  19.8640 H              1 RES1               0.0000
     21 H21         -9.3125 -10.1439  16.2804 H              1 RES1               0.0000
     22 H22        -12.5637  -6.2249  18.4522 H              1 RES1               0.0000
     23 H23         -8.8338  -4.6249  18.6142 H              1 RES1               0.0000
     24 H24         -9.3781  -6.5515  13.8087 H              1 RES1               0.0000
     25 H25        -10.5807  -5.9763  14.9609 H              1 RES1               0.0000
     26 H26         -8.8700  -5.6596  15.2409 H              1 RES1               0.0000
     27 H27         -8.8757  -9.8069  21.1771 H              1 RES1               0.0000
     28 H28         -8.7866 -12.1368  17.6072 H              1 RES1               0.0000
     29 H29         -8.5666 -11.9810  20.0570 H              1 RES1               0.0000
@<TRIPOS>BOND
    1    1    2 1     
    2    1    3 1     
    3    1    4 1     
    4    1    5 1     
    5    2    6 ar    
    6    2    7 ar    
    7    3    8 1     
    8    3    9 2     
    9    4   10 1     
   10    4   11 2     
   11    5   12 1     
   12    5   18 1     
   13    5   19 1     
   14    6   13 ar    
   15    6   20 1     
   16    7   14 ar    
   17    7   21 1     
   18    8   15 1     
   19    8   22 1     
   20   10   15 1     
   21   10   23 1     
   22   12   24 1     
   23   12   25 1     
   24   12   26 1     
   25   13   16 ar    
   26   13   27 1     
   27   14   16 ar    
   28   14   28 1     
   29   15   17 2     
   30   16   29 1     
@<TRIPOS>SUBSTRUCTURE
      1 RES1           1
@<TRIPOS>SET
DONOR_HYDROGENS      STATIC     ATOMS    <user>   **** ""
2 22 23
ATOM$RED        STATIC     ATOMS    COLORGROUP SYSTEM
2 22 23
@<TRIPOS>COMMENT
> <Gold.Version>
2022.3.0

> <Gold.Id.Protein>
unknown|3ovv_clean|pdb

> <Gold.Protein.RotatedTorsions>
[ 3718 3716 3715 3713 ] final   24.71 input   59.99 | X-H torsion
[ 3645 3636 3635 3633 ] final  -43.51 input   60.03 | X-H torsion
[ 3915 3906 3905 3903 ] final  -34.91 input   60.03 | X-H torsion
[ 3186 3179 3177 3174 ] final  -60.73 input   59.97 | X-H torsion
[ 5212 5203 5202 5200 ] final   56.26 input   59.98 | X-H torsion
[ 2635 2624 2623 2622 ] final   79.92 input   60.00 | X-H torsion
[  604  597  595  592 ] final  -18.77 input   59.96 | X-H torsion
[ 1944 1939 1938 1935 ] final   27.57 input   60.01 | X-H torsion
[ 3236 3227 3226 3224 ] final   55.01 input   60.01 | X-H torsion
[  622  617  616  613 ] final -152.89 input   59.98 | X-H torsion
[ 3127 3124 3123 3122 ] final -172.05 input   59.98 | X-H torsion
[ 3412 3403 3402 3400 ] final  137.23 input   59.99 | X-H torsion
[ 3128 3125 3123 3122 ] final   57.53 input   60.00 | X-H torsion

> <Gold.Protein.ActiveResidues>
 LEU49   GLY50   THR51   GLY52   SER53   PHE54   VAL79   LEU82   LYS83   GLN84  
 HIS87   THR88   GLY126  GLU127  MET128  PHE129  SER130  HIS131  LEU132  ARG133 
 ARG134  ILE135  GLY136  ARG137  ARG165  ASP166  LEU167  LYS168  PRO169  GLU170 
 ASN171  LEU173  ASP184  GLY186  PHE187  TRP196  TPO197  LEU198  CYS199  GLY200 
 THR201  PRO202  GLU203  TYR204  LEU205  ILE209  ILE210  TYR215  VAL226  LEU227 
 TYR229  GLU230  ALA233  GLY234  TYR235  PRO236  PRO237  PHE238  PHE239  ALA240 
 ASP241  GLN242  PRO243  ILE244  GLN245  ILE246  TYR247  ARG256  PHE257  PRO258 
 SER259  HIS260  ASN326  PHE327  ASP328  ASP329  TYR330 

> <Gold.Protein.RotatedAtoms>
   -6.0567   -2.7536   13.6689 H   0  0  0  0  0  0  0  0  0  0  0  0  # atno 604  bound_to 597 
   -7.4223    2.6475   21.6098 H   0  0  0  0  0  0  0  0  0  0  0  0  # atno 622  bound_to 617 
  -14.3290   -7.4415    8.5143 H   0  0  0  0  0  0  0  0  0  0  0  0  # atno 1944 bound_to 1939
  -15.0199   -0.8900   20.0086 H   0  0  0  0  0  0  0  0  0  0  0  0  # atno 2635 bound_to 2624
  -13.7913   -1.3856   19.0134 H   0  0  0  0  0  0  0  0  0  0  0  0  # atno 2636 bound_to 2624
  -15.0847   -0.5605   18.3861 H   0  0  0  0  0  0  0  0  0  0  0  0  # atno 2637 bound_to 2624
  -14.1593   -0.8905   34.6670 H   0  0  0  0  0  0  0  0  0  0  0  0  # atno 3127 bound_to 3124
  -16.6846    0.7507   34.3989 H   0  0  0  0  0  0  0  0  0  0  0  0  # atno 3128 bound_to 3125
  -15.7220    0.8524   20.6124 H   0  0  0  0  0  0  0  0  0  0  0  0  # atno 3186 bound_to 3179
  -22.5769   -3.2444   15.8363 H   0  0  0  0  0  0  0  0  0  0  0  0  # atno 3236 bound_to 3227
  -18.6952    0.3090   32.7118 H   0  0  0  0  0  0  0  0  0  0  0  0  # atno 3412 bound_to 3403
  -31.9900    2.7954   12.1194 H   0  0  0  0  0  0  0  0  0  0  0  0  # atno 3645 bound_to 3636
  -32.8431    2.9032    8.5044 H   0  0  0  0  0  0  0  0  0  0  0  0  # atno 3718 bound_to 3716
  -18.2948    7.8267   23.2642 H   0  0  0  0  0  0  0  0  0  0  0  0  # atno 3915 bound_to 3906
   -8.6173   -5.6257   11.3213 H   0  0  0  0  0  0  0  0  0  0  0  0  # atno 5212 bound_to 5203
  -32.8927    1.3331    8.0807 LP  0  0  0  0  0  0  0  0  0  0  0  0  # atno 5527 bound_to 3716
  -32.5667    2.4746    6.9593 LP  0  0  0  0  0  0  0  0  0  0  0  0  # atno 5528 bound_to 3716
  -33.5137    2.5317   12.6267 LP  0  0  0  0  0  0  0  0  0  0  0  0  # atno 5529 bound_to 3636
  -32.9548    1.7824   11.2877 LP  0  0  0  0  0  0  0  0  0  0  0  0  # atno 5530 bound_to 3636
  -17.5923    9.2946   23.2782 LP  0  0  0  0  0  0  0  0  0  0  0  0  # atno 5588 bound_to 3906
  -17.9722    8.5817   21.8590 LP  0  0  0  0  0  0  0  0  0  0  0  0  # atno 5589 bound_to 3906
  -16.4394   -0.4678   19.9870 LP  0  0  0  0  0  0  0  0  0  0  0  0  # atno 5590 bound_to 3179
  -16.5764   -0.1384   21.5805 LP  0  0  0  0  0  0  0  0  0  0  0  0  # atno 5591 bound_to 3179
   -8.9972   -5.0784    9.8367 LP  0  0  0  0  0  0  0  0  0  0  0  0  # atno 5600 bound_to 5203
   -8.6854   -4.0238   11.0438 LP  0  0  0  0  0  0  0  0  0  0  0  0  # atno 5601 bound_to 5203
   -4.8782   -2.0117   12.8272 LP  0  0  0  0  0  0  0  0  0  0  0  0  # atno 5606 bound_to 597 
   -5.4527   -1.3390   14.1998 LP  0  0  0  0  0  0  0  0  0  0  0  0  # atno 5607 bound_to 597 
  -13.5763   -7.5931    7.0795 LP  0  0  0  0  0  0  0  0  0  0  0  0  # atno 5610 bound_to 1939
  -13.5094   -8.8051    8.1718 LP  0  0  0  0  0  0  0  0  0  0  0  0  # atno 5611 bound_to 1939
  -23.9435   -2.3684   15.7215 LP  0  0  0  0  0  0  0  0  0  0  0  0  # atno 5640 bound_to 3227
  -23.9365   -3.7695   16.5603 LP  0  0  0  0  0  0  0  0  0  0  0  0  # atno 5641 bound_to 3227
   -7.5519    1.0288   21.5046 LP  0  0  0  0  0  0  0  0  0  0  0  0  # atno 5648 bound_to 617 
   -7.1427    1.9053   20.1889 LP  0  0  0  0  0  0  0  0  0  0  0  0  # atno 5649 bound_to 617 
  -12.9998    0.2470   34.5705 LP  0  0  0  0  0  0  0  0  0  0  0  0  # atno 5673 bound_to 3124
  -14.1921    0.1955   33.4558 LP  0  0  0  0  0  0  0  0  0  0  0  0  # atno 5674 bound_to 3124
  -18.4788    1.9214   32.6852 LP  0  0  0  0  0  0  0  0  0  0  0  0  # atno 5675 bound_to 3403
  -18.9823    1.1399   31.3427 LP  0  0  0  0  0  0  0  0  0  0  0  0  # atno 5676 bound_to 3403

> <Gold.Score>
     Fitness  S(hb_ext) S(vdw_ext)  S(hb_int)    S(int)      intcor
     44.65       1.32      31.55       0.00      -0.05      -0.76

> <Gold.Goldscore.Fitness>
44.6497

> <Gold.Goldscore.Internal.Vdw>
-0.3002

> <Gold.Goldscore.Internal.Torsion>
-0.5047

> <Gold.Goldscore.External.Vdw>
31.5465

> <Gold.Goldscore.Internal.HBond>
0.0000

> <Gold.Goldscore.External.HBond>
1.3227

> <Gold.Goldscore.Internal.Correction>
-0.7554

> <Gold.Goldscore.Hbonds>
donor molecule, donor type, donor heavy atom, donor atom, acceptor molecule, acceptor atom, score
      L1  H     8    22       P1  2674  0.66

> <Gold.Goldscore.Internal.Vdw.Weighted>
-0.3002

> <Gold.Goldscore.Internal.Torsion.Weighted>
-0.5047

> <Gold.Goldscore.External.Vdw.Weighted>
43.3764

> <Gold.Goldscore.Internal.HBond.Weighted>
0.0000

> <Gold.Goldscore.External.HBond.Weighted>
1.3227

> <Gold.Goldscore.Internal.Correction.Weighted>
-0.7554

> <Gold.Rescore>
     Score     S(PLP)   S(hbond)     S(cho)   S(metal)  DE(clash)   DE(tors)     intcor
     39.91     -37.36       1.09       0.00       0.00       0.00       0.36       ----

> <Gold.PLP.Fitness>
39.9104

> <Gold.PLP.PLP>
-37.3562

> <Gold.PLP.part.hbond>
-2.0000

> <Gold.PLP.part.metal>
0.0000

> <Gold.PLP.part.buried>
-0.6276

> <Gold.PLP.part.nonpolar>
-37.8681

> <Gold.PLP.part.repulsive>
2.9439

> <Gold.PLP.ligand.clash>
0.0000

> <Gold.PLP.ligand.torsion>
0.3633

> <Gold.PLP.Chemscore.Hbond>
1.0936

> <Gold.PLP.Chemscore.CHOScore>
0.0000

> <Gold.PLP.Chemscore.Metal>
0.0000

> <Gold.Chemscore.Hbonds>
donor molecule, donor type, donor heavy atom, donor atom, acceptor molecule, acceptor atom, score
      L1  H     8    22       P1  2674  1.00

> <Gold.PLP.Chemscore.Internal.Correction>
   9.000000E+99

