#       Name:                CT1002167954
#       Creating user name   hitesit
#       Creation time:       Sun Apr 16 20:16:24 2023


#       File generated by GOLD software.
#

@<TRIPOS>MOLECULE
CT1002167954|ligand_prepared|mol2|1|dock8
    29    30     1
SMALL
NO_CHARGES


@<TRIPOS>ATOM
      1 C1          -9.2459  -7.5293  17.5649 C.3            1 RES1               0.0000
      2 C2          -9.1304  -8.9384  16.9486 C.ar           1 RES1               0.0000
      3 C3          -8.8442  -6.5477  16.4679 C.2            1 RES1               0.0000
      4 C4         -10.6904  -7.3846  18.0309 C.2            1 RES1               0.0000
      5 C5          -8.3249  -7.3043  18.7867 C.3            1 RES1               0.0000
      6 C6          -9.1383 -10.0693  17.7596 C.ar           1 RES1               0.0000
      7 C7          -9.0181  -9.1232  15.5732 C.ar           1 RES1               0.0000
      8 N8          -9.8352  -5.8211  15.8764 N.am           1 RES1               0.0000
      9 O9          -7.6807  -6.4415  16.1002 O.2            1 RES1               0.0000
     10 N10        -11.4773  -6.4545  17.4035 N.am           1 RES1               0.0000
     11 O11        -11.1590  -8.0790  18.9244 O.2            1 RES1               0.0000
     12 C12         -8.4049  -5.9000  19.3644 C.3            1 RES1               0.0000
     13 C13         -9.0406 -11.3391  17.2152 C.ar           1 RES1               0.0000
     14 C14         -8.9203 -10.3939  15.0308 C.ar           1 RES1               0.0000
     15 C15        -11.1240  -5.6877  16.3267 C.2            1 RES1               0.0000
     16 C16         -8.9320 -11.5023  15.8506 C.ar           1 RES1               0.0000
     17 O17        -11.9051  -4.9125  15.7826 O.2            1 RES1               0.0000
     18 H18         -8.5946  -8.0240  19.5694 H              1 RES1               0.0000
     19 H19         -7.2883  -7.5051  18.4893 H              1 RES1               0.0000
     20 H20         -9.2206  -9.9605  18.8359 H              1 RES1               0.0000
     21 H21         -9.0057  -8.2656  14.9091 H              1 RES1               0.0000
     22 H22         -9.5959  -5.3318  15.0199 H              1 RES1               0.0000
     23 H23        -12.4131  -6.3214  17.7735 H              1 RES1               0.0000
     24 H24         -7.7396  -5.7960  20.2190 H              1 RES1               0.0000
     25 H25         -8.1188  -5.1598  18.6201 H              1 RES1               0.0000
     26 H26         -9.4173  -5.6756  19.6939 H              1 RES1               0.0000
     27 H27         -9.0489 -12.2082  17.8648 H              1 RES1               0.0000
     28 H28         -8.8343 -10.5176  13.9563 H              1 RES1               0.0000
     29 H29         -8.8558 -12.4971  15.4243 H              1 RES1               0.0000
@<TRIPOS>BOND
    1    1    2 1     
    2    1    3 1     
    3    1    4 1     
    4    1    5 1     
    5    2    6 ar    
    6    2    7 ar    
    7    3    8 1     
    8    3    9 2     
    9    4   10 1     
   10    4   11 2     
   11    5   12 1     
   12    5   18 1     
   13    5   19 1     
   14    6   13 ar    
   15    6   20 1     
   16    7   14 ar    
   17    7   21 1     
   18    8   15 1     
   19    8   22 1     
   20   10   15 1     
   21   10   23 1     
   22   12   24 1     
   23   12   25 1     
   24   12   26 1     
   25   13   16 ar    
   26   13   27 1     
   27   14   16 ar    
   28   14   28 1     
   29   15   17 2     
   30   16   29 1     
@<TRIPOS>SUBSTRUCTURE
      1 RES1           1
@<TRIPOS>SET
DONOR_HYDROGENS      STATIC     ATOMS    <user>   **** ""
2 22 23
ATOM$RED        STATIC     ATOMS    COLORGROUP SYSTEM
2 22 23
@<TRIPOS>COMMENT
> <Gold.Version>
2022.3.0

> <Gold.Id.Protein>
unknown|3ovv_clean|pdb

> <Gold.Protein.RotatedTorsions>
[ 3718 3716 3715 3713 ] final -139.93 input   59.99 | X-H torsion
[ 3645 3636 3635 3633 ] final -116.23 input   60.03 | X-H torsion
[ 3915 3906 3905 3903 ] final  -67.74 input   60.03 | X-H torsion
[ 3186 3179 3177 3174 ] final  -88.17 input   59.97 | X-H torsion
[ 5212 5203 5202 5200 ] final   67.09 input   59.98 | X-H torsion
[ 2635 2624 2623 2622 ] final  113.78 input   60.00 | X-H torsion
[  604  597  595  592 ] final -163.29 input   59.96 | X-H torsion
[ 1944 1939 1938 1935 ] final -115.72 input   60.01 | X-H torsion
[ 3236 3227 3226 3224 ] final -101.03 input   60.01 | X-H torsion
[  622  617  616  613 ] final   99.55 input   59.98 | X-H torsion
[ 3127 3124 3123 3122 ] final  -46.93 input   59.98 | X-H torsion
[ 3412 3403 3402 3400 ] final -161.40 input   59.99 | X-H torsion
[ 3128 3125 3123 3122 ] final   -2.68 input   60.00 | X-H torsion

> <Gold.Protein.ActiveResidues>
 LEU49   GLY50   THR51   GLY52   SER53   PHE54   VAL79   LEU82   LYS83   GLN84  
 HIS87   THR88   GLY126  GLU127  MET128  PHE129  SER130  HIS131  LEU132  ARG133 
 ARG134  ILE135  GLY136  ARG137  ARG165  ASP166  LEU167  LYS168  PRO169  GLU170 
 ASN171  LEU173  ASP184  GLY186  PHE187  TRP196  TPO197  LEU198  CYS199  GLY200 
 THR201  PRO202  GLU203  TYR204  LEU205  ILE209  ILE210  TYR215  VAL226  LEU227 
 TYR229  GLU230  ALA233  GLY234  TYR235  PRO236  PRO237  PHE238  PHE239  ALA240 
 ASP241  GLN242  PRO243  ILE244  GLN245  ILE246  TYR247  ARG256  PHE257  PRO258 
 SER259  HIS260  ASN326  PHE327  ASP328  ASP329  TYR330 

> <Gold.Protein.RotatedAtoms>
   -4.7884   -1.6776   13.0261 H   0  0  0  0  0  0  0  0  0  0  0  0  # atno 604  bound_to 597 
   -7.5790    1.1462   21.6688 H   0  0  0  0  0  0  0  0  0  0  0  0  # atno 622  bound_to 617 
  -13.4116   -7.9348    7.0743 H   0  0  0  0  0  0  0  0  0  0  0  0  # atno 1944 bound_to 1939
  -14.5384   -1.1647   20.0623 H   0  0  0  0  0  0  0  0  0  0  0  0  # atno 2635 bound_to 2624
  -13.9545   -1.2050   18.5122 H   0  0  0  0  0  0  0  0  0  0  0  0  # atno 2636 bound_to 2624
  -15.4031   -0.4663   18.8336 H   0  0  0  0  0  0  0  0  0  0  0  0  # atno 2637 bound_to 2624
  -14.1298    0.2520   33.4610 H   0  0  0  0  0  0  0  0  0  0  0  0  # atno 3127 bound_to 3124
  -16.8292    1.4434   35.0169 H   0  0  0  0  0  0  0  0  0  0  0  0  # atno 3128 bound_to 3125
  -15.7447    0.6790   20.2041 H   0  0  0  0  0  0  0  0  0  0  0  0  # atno 3186 bound_to 3179
  -24.3129   -2.6937   16.0305 H   0  0  0  0  0  0  0  0  0  0  0  0  # atno 3236 bound_to 3227
  -18.9614    0.3390   31.7950 H   0  0  0  0  0  0  0  0  0  0  0  0  # atno 3412 bound_to 3403
  -32.8775    2.9062   12.7774 H   0  0  0  0  0  0  0  0  0  0  0  0  # atno 3645 bound_to 3636
  -32.7412    1.4242    7.3892 H   0  0  0  0  0  0  0  0  0  0  0  0  # atno 3718 bound_to 3716
  -18.1225    8.1666   23.6315 H   0  0  0  0  0  0  0  0  0  0  0  0  # atno 3915 bound_to 3906
   -8.5863   -5.4994   11.4409 H   0  0  0  0  0  0  0  0  0  0  0  0  # atno 5212 bound_to 5203
  -32.6060    3.0456    7.3899 LP  0  0  0  0  0  0  0  0  0  0  0  0  # atno 5527 bound_to 3716
  -32.9560    2.2519    8.7734 LP  0  0  0  0  0  0  0  0  0  0  0  0  # atno 5528 bound_to 3716
  -33.5590    1.8579   11.7357 LP  0  0  0  0  0  0  0  0  0  0  0  0  # atno 5529 bound_to 3636
  -32.0159    2.3447   11.5161 LP  0  0  0  0  0  0  0  0  0  0  0  0  # atno 5530 bound_to 3636
  -17.5489    9.4164   22.7612 LP  0  0  0  0  0  0  0  0  0  0  0  0  # atno 5588 bound_to 3906
  -18.1891    8.1177   22.0062 LP  0  0  0  0  0  0  0  0  0  0  0  0  # atno 5589 bound_to 3906
  -16.6462   -0.6705   20.3279 LP  0  0  0  0  0  0  0  0  0  0  0  0  # atno 5590 bound_to 3179
  -16.3467    0.2388   21.6508 LP  0  0  0  0  0  0  0  0  0  0  0  0  # atno 5591 bound_to 3179
   -8.9857   -5.2498    9.8833 LP  0  0  0  0  0  0  0  0  0  0  0  0  # atno 5600 bound_to 5203
   -8.7280   -3.9796   10.8767 LP  0  0  0  0  0  0  0  0  0  0  0  0  # atno 5601 bound_to 5203
   -5.7376   -1.5807   14.3442 LP  0  0  0  0  0  0  0  0  0  0  0  0  # atno 5606 bound_to 597 
   -5.8708   -2.8539   13.3303 LP  0  0  0  0  0  0  0  0  0  0  0  0  # atno 5607 bound_to 597 
  -13.7060   -8.6994    8.4804 LP  0  0  0  0  0  0  0  0  0  0  0  0  # atno 5610 bound_to 1939
  -14.3037   -7.2020    8.2213 LP  0  0  0  0  0  0  0  0  0  0  0  0  # atno 5611 bound_to 1939
  -23.3835   -3.9449   16.4985 LP  0  0  0  0  0  0  0  0  0  0  0  0  # atno 5640 bound_to 3227
  -22.7479   -2.7477   15.5878 LP  0  0  0  0  0  0  0  0  0  0  0  0  # atno 5641 bound_to 3227
   -7.1639    1.7024   20.1969 LP  0  0  0  0  0  0  0  0  0  0  0  0  # atno 5648 bound_to 617 
   -7.3729    2.7437   21.4372 LP  0  0  0  0  0  0  0  0  0  0  0  0  # atno 5649 bound_to 617 
  -14.2203   -0.8972   34.6093 LP  0  0  0  0  0  0  0  0  0  0  0  0  # atno 5673 bound_to 3124
  -13.0013    0.1891   34.6315 LP  0  0  0  0  0  0  0  0  0  0  0  0  # atno 5674 bound_to 3124
  -18.4569    1.0806   33.1526 LP  0  0  0  0  0  0  0  0  0  0  0  0  # atno 5675 bound_to 3403
  -18.7361    1.9505   31.7991 LP  0  0  0  0  0  0  0  0  0  0  0  0  # atno 5676 bound_to 3403

> <Gold.Score>
     Fitness  S(hb_ext) S(vdw_ext)  S(hb_int)    S(int)      intcor
     41.60       1.35      30.39       0.00      -1.54      -0.76

> <Gold.Goldscore.Fitness>
41.6004

> <Gold.Goldscore.Internal.Vdw>
-1.9228

> <Gold.Goldscore.Internal.Torsion>
-0.3750

> <Gold.Goldscore.External.Vdw>
30.3931

> <Gold.Goldscore.Internal.HBond>
0.0000

> <Gold.Goldscore.External.HBond>
1.3524

> <Gold.Goldscore.Internal.Correction>
-0.7554

> <Gold.Goldscore.Hbonds>
donor molecule, donor type, donor heavy atom, donor atom, acceptor molecule, acceptor atom, score
      L1  H    10    23       P1  2674  0.68

> <Gold.Goldscore.Internal.Vdw.Weighted>
-1.9228

> <Gold.Goldscore.Internal.Torsion.Weighted>
-0.3750

> <Gold.Goldscore.External.Vdw.Weighted>
41.7904

> <Gold.Goldscore.Internal.HBond.Weighted>
0.0000

> <Gold.Goldscore.External.HBond.Weighted>
1.3524

> <Gold.Goldscore.Internal.Correction.Weighted>
-0.7554

> <Gold.Rescore>
     Score     S(PLP)   S(hbond)     S(cho)   S(metal)  DE(clash)   DE(tors)     intcor
     45.58     -44.12       1.00       0.00       0.00       0.97       0.29       ----

> <Gold.PLP.Fitness>
45.5826

> <Gold.PLP.PLP>
-44.1244

> <Gold.PLP.part.hbond>
-3.1342

> <Gold.PLP.part.metal>
0.0000

> <Gold.PLP.part.buried>
0.6675

> <Gold.PLP.part.nonpolar>
-44.8853

> <Gold.PLP.part.repulsive>
1.2069

> <Gold.PLP.ligand.clash>
0.9664

> <Gold.PLP.ligand.torsion>
0.2877

> <Gold.PLP.Chemscore.Hbond>
1.0000

> <Gold.PLP.Chemscore.CHOScore>
0.0000

> <Gold.PLP.Chemscore.Metal>
0.0000

> <Gold.Chemscore.Hbonds>
donor molecule, donor type, donor heavy atom, donor atom, acceptor molecule, acceptor atom, score
      L1  H    10    23       P1  2674  0.96

> <Gold.PLP.Chemscore.Internal.Correction>
   9.000000E+99

