#       Name:                CT1002167954
#       Creating user name   hitesit
#       Creation time:       Sun Apr 16 20:16:26 2023


#       File generated by GOLD software.
#

@<TRIPOS>MOLECULE
CT1002167954|ligand_prepared|mol2|1|dock9
    29    30     1
SMALL
NO_CHARGES


@<TRIPOS>ATOM
      1 C1          -9.1850  -6.2576  17.6867 C.3            1 RES1               0.0000
      2 C2          -7.8655  -5.9002  18.4006 C.ar           1 RES1               0.0000
      3 C3          -9.5420  -5.0546  16.8186 C.2            1 RES1               0.0000
      4 C4          -8.9116  -7.5340  16.8988 C.2            1 RES1               0.0000
      5 C5         -10.3621  -6.5342  18.6508 C.3            1 RES1               0.0000
      6 C6          -7.8666  -5.5019  19.7341 C.ar           1 RES1               0.0000
      7 C7          -6.6411  -5.9664  17.7410 C.ar           1 RES1               0.0000
      8 N8          -9.3672  -5.1734  15.4713 N.am           1 RES1               0.0000
      9 O9          -9.9334  -4.0041  17.3122 O.2            1 RES1               0.0000
     10 N10         -8.9588  -7.4668  15.5309 N.am           1 RES1               0.0000
     11 O11         -8.6394  -8.5935  17.4497 O.2            1 RES1               0.0000
     12 C12        -11.5885  -7.1200  17.9690 C.3            1 RES1               0.0000
     13 C13         -6.6863  -5.1841  20.3854 C.ar           1 RES1               0.0000
     14 C14         -5.4619  -5.6480  18.3941 C.ar           1 RES1               0.0000
     15 C15         -9.1439  -6.3375  14.7808 C.2            1 RES1               0.0000
     16 C16         -5.4833  -5.2574  19.7161 C.ar           1 RES1               0.0000
     17 O17         -9.1190  -6.3478  13.5535 O.2            1 RES1               0.0000
     18 H18        -10.0249  -7.2296  19.4293 H              1 RES1               0.0000
     19 H19        -10.6456  -5.5945  19.1406 H              1 RES1               0.0000
     20 H20         -8.8040  -5.4360  20.2764 H              1 RES1               0.0000
     21 H21         -6.6003  -6.2702  16.7005 H              1 RES1               0.0000
     22 H22         -9.4060  -4.3176  14.9269 H              1 RES1               0.0000
     23 H23         -8.8455  -8.3394  15.0250 H              1 RES1               0.0000
     24 H24        -12.3842  -7.2947  18.6901 H              1 RES1               0.0000
     25 H25        -11.9658  -6.4429  17.2055 H              1 RES1               0.0000
     26 H26        -11.3487  -8.0683  17.4924 H              1 RES1               0.0000
     27 H27         -6.7086  -4.8759  21.4255 H              1 RES1               0.0000
     28 H28         -4.5174  -5.7065  17.8633 H              1 RES1               0.0000
     29 H29         -4.5587  -5.0088  20.2267 H              1 RES1               0.0000
@<TRIPOS>BOND
    1    1    2 1     
    2    1    3 1     
    3    1    4 1     
    4    1    5 1     
    5    2    6 ar    
    6    2    7 ar    
    7    3    8 1     
    8    3    9 2     
    9    4   10 1     
   10    4   11 2     
   11    5   12 1     
   12    5   18 1     
   13    5   19 1     
   14    6   13 ar    
   15    6   20 1     
   16    7   14 ar    
   17    7   21 1     
   18    8   15 1     
   19    8   22 1     
   20   10   15 1     
   21   10   23 1     
   22   12   24 1     
   23   12   25 1     
   24   12   26 1     
   25   13   16 ar    
   26   13   27 1     
   27   14   16 ar    
   28   14   28 1     
   29   15   17 2     
   30   16   29 1     
@<TRIPOS>SUBSTRUCTURE
      1 RES1           1
@<TRIPOS>SET
DONOR_HYDROGENS      STATIC     ATOMS    <user>   **** ""
2 22 23
ATOM$RED        STATIC     ATOMS    COLORGROUP SYSTEM
2 22 23
@<TRIPOS>COMMENT
> <Gold.Version>
2022.3.0

> <Gold.Id.Protein>
unknown|3ovv_clean|pdb

> <Gold.Protein.RotatedTorsions>
[ 3718 3716 3715 3713 ] final  -60.33 input   59.99 | X-H torsion
[ 3645 3636 3635 3633 ] final   -7.20 input   60.03 | X-H torsion
[ 3915 3906 3905 3903 ] final  -40.21 input   60.03 | X-H torsion
[ 3186 3179 3177 3174 ] final  -80.31 input   59.97 | X-H torsion
[ 5212 5203 5202 5200 ] final   81.12 input   59.98 | X-H torsion
[ 2635 2624 2623 2622 ] final  173.70 input   60.00 | X-H torsion
[  604  597  595  592 ] final   -7.81 input   59.96 | X-H torsion
[ 1944 1939 1938 1935 ] final   99.64 input   60.01 | X-H torsion
[ 3236 3227 3226 3224 ] final  114.70 input   60.01 | X-H torsion
[  622  617  616  613 ] final   67.06 input   59.98 | X-H torsion
[ 3127 3124 3123 3122 ] final  -82.11 input   59.98 | X-H torsion
[ 3412 3403 3402 3400 ] final  -86.06 input   59.99 | X-H torsion
[ 3128 3125 3123 3122 ] final -108.05 input   60.00 | X-H torsion

> <Gold.Protein.ActiveResidues>
 LEU49   GLY50   THR51   GLY52   SER53   PHE54   VAL79   LEU82   LYS83   GLN84  
 HIS87   THR88   GLY126  GLU127  MET128  PHE129  SER130  HIS131  LEU132  ARG133 
 ARG134  ILE135  GLY136  ARG137  ARG165  ASP166  LEU167  LYS168  PRO169  GLU170 
 ASN171  LEU173  ASP184  GLY186  PHE187  TRP196  TPO197  LEU198  CYS199  GLY200 
 THR201  PRO202  GLU203  TYR204  LEU205  ILE209  ILE210  TYR215  VAL226  LEU227 
 TYR229  GLU230  ALA233  GLY234  TYR235  PRO236  PRO237  PHE238  PHE239  ALA240 
 ASP241  GLN242  PRO243  ILE244  GLN245  ILE246  TYR247  ARG256  PHE257  PRO258 
 SER259  HIS260  ASN326  PHE327  ASP328  ASP329  TYR330 

> <Gold.Protein.RotatedAtoms>
   -6.1085   -2.6673   13.8166 H   0  0  0  0  0  0  0  0  0  0  0  0  # atno 604  bound_to 597 
   -7.4821    0.9376   21.1982 H   0  0  0  0  0  0  0  0  0  0  0  0  # atno 622  bound_to 617 
  -13.9313   -8.4518    8.7008 H   0  0  0  0  0  0  0  0  0  0  0  0  # atno 1944 bound_to 1939
  -13.8617   -1.4244   19.4397 H   0  0  0  0  0  0  0  0  0  0  0  0  # atno 2635 bound_to 2624
  -14.7243   -0.7265   18.2092 H   0  0  0  0  0  0  0  0  0  0  0  0  # atno 2636 bound_to 2624
  -15.3098   -0.6853   19.7593 H   0  0  0  0  0  0  0  0  0  0  0  0  # atno 2637 bound_to 2624
  -14.4695   -0.1802   33.5947 H   0  0  0  0  0  0  0  0  0  0  0  0  # atno 3127 bound_to 3124
  -16.6254    0.6371   36.2525 H   0  0  0  0  0  0  0  0  0  0  0  0  # atno 3128 bound_to 3125
  -15.7260    0.7447   20.3128 H   0  0  0  0  0  0  0  0  0  0  0  0  # atno 3186 bound_to 3179
  -23.0223   -3.8798   16.3523 H   0  0  0  0  0  0  0  0  0  0  0  0  # atno 3236 bound_to 3227
  -18.9359    1.4059   31.3829 H   0  0  0  0  0  0  0  0  0  0  0  0  # atno 3412 bound_to 3403
  -31.9608    2.4583   11.6440 H   0  0  0  0  0  0  0  0  0  0  0  0  # atno 3645 bound_to 3636
  -32.9588    1.6441    8.5468 H   0  0  0  0  0  0  0  0  0  0  0  0  # atno 3718 bound_to 3716
  -18.2732    7.8677   23.3374 H   0  0  0  0  0  0  0  0  0  0  0  0  # atno 3915 bound_to 3906
   -8.5558   -5.3052   11.5580 H   0  0  0  0  0  0  0  0  0  0  0  0  # atno 5212 bound_to 5203
  -32.6185    1.9110    6.9783 LP  0  0  0  0  0  0  0  0  0  0  0  0  # atno 5527 bound_to 3716
  -32.7243    3.1651    8.0189 LP  0  0  0  0  0  0  0  0  0  0  0  0  # atno 5528 bound_to 3716
  -33.0472    2.8485   12.7912 LP  0  0  0  0  0  0  0  0  0  0  0  0  # atno 5529 bound_to 3636
  -33.4506    1.8049   11.6017 LP  0  0  0  0  0  0  0  0  0  0  0  0  # atno 5530 bound_to 3636
  -17.5766    9.3321   23.2010 LP  0  0  0  0  0  0  0  0  0  0  0  0  # atno 5588 bound_to 3906
  -18.0096    8.5029   21.8625 LP  0  0  0  0  0  0  0  0  0  0  0  0  # atno 5589 bound_to 3906
  -16.5945   -0.6284   20.2171 LP  0  0  0  0  0  0  0  0  0  0  0  0  # atno 5590 bound_to 3179
  -16.4173    0.1306   21.6521 LP  0  0  0  0  0  0  0  0  0  0  0  0  # atno 5591 bound_to 3179
   -8.9595   -5.4530    9.9885 LP  0  0  0  0  0  0  0  0  0  0  0  0  # atno 5600 bound_to 5203
   -8.7850   -3.9719   10.6537 LP  0  0  0  0  0  0  0  0  0  0  0  0  # atno 5601 bound_to 5203
   -4.9558   -2.1679   12.7823 LP  0  0  0  0  0  0  0  0  0  0  0  0  # atno 5606 bound_to 597 
   -5.3230   -1.2699   14.0959 LP  0  0  0  0  0  0  0  0  0  0  0  0  # atno 5607 bound_to 597 
  -14.1865   -7.0854    7.8545 LP  0  0  0  0  0  0  0  0  0  0  0  0  # atno 5610 bound_to 1939
  -13.2998   -8.2953    7.2091 LP  0  0  0  0  0  0  0  0  0  0  0  0  # atno 5611 bound_to 1939
  -23.0351   -2.4837   15.5162 LP  0  0  0  0  0  0  0  0  0  0  0  0  # atno 5640 bound_to 3227
  -24.3962   -3.0142   16.2460 LP  0  0  0  0  0  0  0  0  0  0  0  0  # atno 5641 bound_to 3227
   -7.1315    2.2243   20.2657 LP  0  0  0  0  0  0  0  0  0  0  0  0  # atno 5648 bound_to 617 
   -7.5029    2.4319   21.8423 LP  0  0  0  0  0  0  0  0  0  0  0  0  # atno 5649 bound_to 617 
  -13.7650   -0.7823   34.9321 LP  0  0  0  0  0  0  0  0  0  0  0  0  # atno 5673 bound_to 3124
  -13.1145    0.5095   34.1741 LP  0  0  0  0  0  0  0  0  0  0  0  0  # atno 5674 bound_to 3124
  -18.7778    0.2076   32.4723 LP  0  0  0  0  0  0  0  0  0  0  0  0  # atno 5675 bound_to 3403
  -18.4409    1.7487   32.8945 LP  0  0  0  0  0  0  0  0  0  0  0  0  # atno 5676 bound_to 3403

> <Gold.Score>
     Fitness  S(hb_ext) S(vdw_ext)  S(hb_int)    S(int)      intcor
     40.64       2.00      28.51       0.00      -0.57      -0.76

> <Gold.Goldscore.Fitness>
40.6356

> <Gold.Goldscore.Internal.Vdw>
-0.8017

> <Gold.Goldscore.Internal.Torsion>
-0.5245

> <Gold.Goldscore.External.Vdw>
28.5138

> <Gold.Goldscore.Internal.HBond>
0.0000

> <Gold.Goldscore.External.HBond>
2.0000

> <Gold.Goldscore.Internal.Correction>
-0.7554

> <Gold.Goldscore.Hbonds>
donor molecule, donor type, donor heavy atom, donor atom, acceptor molecule, acceptor atom, score
      P1  H  5203  5212       L1    17  1.00

> <Gold.Goldscore.Internal.Vdw.Weighted>
-0.8017

> <Gold.Goldscore.Internal.Torsion.Weighted>
-0.5245

> <Gold.Goldscore.External.Vdw.Weighted>
39.2064

> <Gold.Goldscore.Internal.HBond.Weighted>
0.0000

> <Gold.Goldscore.External.HBond.Weighted>
2.0000

> <Gold.Goldscore.Internal.Correction.Weighted>
-0.7554

> <Gold.Rescore>
     Score     S(PLP)   S(hbond)     S(cho)   S(metal)  DE(clash)   DE(tors)     intcor
     31.75     -31.10       0.99       0.00       0.00       0.00       1.16       ----

> <Gold.PLP.Fitness>
31.7515

> <Gold.PLP.PLP>
-31.1013

> <Gold.PLP.part.hbond>
-2.9748

> <Gold.PLP.part.metal>
0.0000

> <Gold.PLP.part.buried>
0.8900

> <Gold.PLP.part.nonpolar>
-32.1904

> <Gold.PLP.part.repulsive>
1.8978

> <Gold.PLP.ligand.clash>
0.0000

> <Gold.PLP.ligand.torsion>
1.1618

> <Gold.PLP.Chemscore.Hbond>
0.9913

> <Gold.PLP.Chemscore.CHOScore>
0.0000

> <Gold.PLP.Chemscore.Metal>
0.0000

> <Gold.Chemscore.Hbonds>
donor molecule, donor type, donor heavy atom, donor atom, acceptor molecule, acceptor atom, score
      P1  H  5203  5212       L1    17  0.46

> <Gold.PLP.Chemscore.Internal.Correction>
   9.000000E+99

