#       Name:                CT1002167954
#       Creating user name   hitesit
#       Creation time:       Sun Apr 16 20:16:18 2023


#       File generated by GOLD software.
#

@<TRIPOS>MOLECULE
CT1002167954|ligand_prepared|mol2|1|dock3
    29    30     1
SMALL
NO_CHARGES


@<TRIPOS>ATOM
      1 C1          -9.3302  -6.9451  17.1760 C.3            1 RES1               0.0000
      2 C2          -8.1378  -6.4077  17.9934 C.ar           1 RES1               0.0000
      3 C3         -10.4969  -7.0696  18.1515 C.2            1 RES1               0.0000
      4 C4          -9.5635  -5.9419  16.0518 C.2            1 RES1               0.0000
      5 C5          -9.0755  -8.3295  16.5356 C.3            1 RES1               0.0000
      6 C6          -6.8802  -6.2792  17.4113 C.ar           1 RES1               0.0000
      7 C7          -8.2802  -6.0346  19.3272 C.ar           1 RES1               0.0000
      8 N8         -11.4982  -6.1483  18.0598 N.am           1 RES1               0.0000
      9 O9         -10.5188  -7.9392  19.0138 O.2            1 RES1               0.0000
     10 N10        -10.7368  -5.2339  16.0563 N.am           1 RES1               0.0000
     11 O11         -8.7347  -5.7461  15.1714 O.2            1 RES1               0.0000
     12 C12        -10.2892  -8.9101  15.8272 C.3            1 RES1               0.0000
     13 C13         -5.8046  -5.7925  18.1356 C.ar           1 RES1               0.0000
     14 C14         -7.2031  -5.5484  20.0497 C.ar           1 RES1               0.0000
     15 C15        -11.7012  -5.2694  17.0263 C.2            1 RES1               0.0000
     16 C16         -5.9654  -5.4264  19.4549 C.ar           1 RES1               0.0000
     17 O17        -12.7039  -4.5621  16.9876 O.2            1 RES1               0.0000
     18 H18         -8.2549  -8.2389  15.8133 H              1 RES1               0.0000
     19 H19         -8.7567  -9.0278  17.3193 H              1 RES1               0.0000
     20 H20         -6.7340  -6.5645  16.3749 H              1 RES1               0.0000
     21 H21         -9.2444  -6.1230  19.8161 H              1 RES1               0.0000
     22 H22        -12.1570  -6.1090  18.8310 H              1 RES1               0.0000
     23 H23        -10.9070  -4.6240  15.2630 H              1 RES1               0.0000
     24 H24        -10.0562  -9.8814  15.3960 H              1 RES1               0.0000
     25 H25        -11.1170  -9.0374  16.5217 H              1 RES1               0.0000
     26 H26        -10.6182  -8.2531  15.0246 H              1 RES1               0.0000
     27 H27         -4.8322  -5.6997  17.6632 H              1 RES1               0.0000
     28 H28         -7.3341  -5.2620  21.0880 H              1 RES1               0.0000
     29 H29         -5.1227  -5.0448  20.0219 H              1 RES1               0.0000
@<TRIPOS>BOND
    1    1    2 1     
    2    1    3 1     
    3    1    4 1     
    4    1    5 1     
    5    2    6 ar    
    6    2    7 ar    
    7    3    8 1     
    8    3    9 2     
    9    4   10 1     
   10    4   11 2     
   11    5   12 1     
   12    5   18 1     
   13    5   19 1     
   14    6   13 ar    
   15    6   20 1     
   16    7   14 ar    
   17    7   21 1     
   18    8   15 1     
   19    8   22 1     
   20   10   15 1     
   21   10   23 1     
   22   12   24 1     
   23   12   25 1     
   24   12   26 1     
   25   13   16 ar    
   26   13   27 1     
   27   14   16 ar    
   28   14   28 1     
   29   15   17 2     
   30   16   29 1     
@<TRIPOS>SUBSTRUCTURE
      1 RES1           1
@<TRIPOS>SET
DONOR_HYDROGENS      STATIC     ATOMS    <user>   **** ""
2 22 23
ATOM$RED        STATIC     ATOMS    COLORGROUP SYSTEM
2 22 23
@<TRIPOS>COMMENT
> <Gold.Version>
2022.3.0

> <Gold.Id.Protein>
unknown|3ovv_clean|pdb

> <Gold.Protein.RotatedTorsions>
[ 3718 3716 3715 3713 ] final  -34.27 input   59.99 | X-H torsion
[ 3645 3636 3635 3633 ] final  -85.15 input   60.03 | X-H torsion
[ 3915 3906 3905 3903 ] final  -23.35 input   60.03 | X-H torsion
[ 3186 3179 3177 3174 ] final  -63.83 input   59.97 | X-H torsion
[ 5212 5203 5202 5200 ] final   85.37 input   59.98 | X-H torsion
[ 2635 2624 2623 2622 ] final   44.09 input   60.00 | X-H torsion
[  604  597  595  592 ] final   27.20 input   59.96 | X-H torsion
[ 1944 1939 1938 1935 ] final -136.97 input   60.01 | X-H torsion
[ 3236 3227 3226 3224 ] final   57.36 input   60.01 | X-H torsion
[  622  617  616  613 ] final -104.35 input   59.98 | X-H torsion
[ 3127 3124 3123 3122 ] final  -74.55 input   59.98 | X-H torsion
[ 3412 3403 3402 3400 ] final  -44.27 input   59.99 | X-H torsion
[ 3128 3125 3123 3122 ] final  130.64 input   60.00 | X-H torsion

> <Gold.Protein.ActiveResidues>
 LEU49   GLY50   THR51   GLY52   SER53   PHE54   VAL79   LEU82   LYS83   GLN84  
 HIS87   THR88   GLY126  GLU127  MET128  PHE129  SER130  HIS131  LEU132  ARG133 
 ARG134  ILE135  GLY136  ARG137  ARG165  ASP166  LEU167  LYS168  PRO169  GLU170 
 ASN171  LEU173  ASP184  GLY186  PHE187  TRP196  TPO197  LEU198  CYS199  GLY200 
 THR201  PRO202  GLU203  TYR204  LEU205  ILE209  ILE210  TYR215  VAL226  LEU227 
 TYR229  GLU230  ALA233  GLY234  TYR235  PRO236  PRO237  PHE238  PHE239  ALA240 
 ASP241  GLN242  PRO243  ILE244  GLN245  ILE246  TYR247  ARG256  PHE257  PRO258 
 SER259  HIS260  ASN326  PHE327  ASP328  ASP329  TYR330 

> <Gold.Protein.RotatedAtoms>
   -6.1124   -2.2579   14.2033 H   0  0  0  0  0  0  0  0  0  0  0  0  # atno 604  bound_to 597 
   -7.2292    2.7588   20.8732 H   0  0  0  0  0  0  0  0  0  0  0  0  # atno 622  bound_to 617 
  -13.3143   -8.2466    7.1858 H   0  0  0  0  0  0  0  0  0  0  0  0  # atno 1944 bound_to 1939
  -15.3834   -0.6216   19.6314 H   0  0  0  0  0  0  0  0  0  0  0  0  # atno 2635 bound_to 2624
  -13.9287   -1.4135   19.5852 H   0  0  0  0  0  0  0  0  0  0  0  0  # atno 2636 bound_to 2624
  -14.5838   -0.8009   18.1913 H   0  0  0  0  0  0  0  0  0  0  0  0  # atno 2637 bound_to 2624
  -14.4146   -0.0826   33.5431 H   0  0  0  0  0  0  0  0  0  0  0  0  # atno 3127 bound_to 3124
  -16.4553   -0.2295   34.8794 H   0  0  0  0  0  0  0  0  0  0  0  0  # atno 3128 bound_to 3125
  -15.7185    0.8411   20.5631 H   0  0  0  0  0  0  0  0  0  0  0  0  # atno 3186 bound_to 3179
  -22.5775   -3.2773   15.8562 H   0  0  0  0  0  0  0  0  0  0  0  0  # atno 3236 bound_to 3227
  -18.7523    1.9222   31.7643 H   0  0  0  0  0  0  0  0  0  0  0  0  # atno 3412 bound_to 3403
  -32.4120    2.9732   12.6026 H   0  0  0  0  0  0  0  0  0  0  0  0  # atno 3645 bound_to 3636
  -32.9659    2.0203    8.7380 H   0  0  0  0  0  0  0  0  0  0  0  0  # atno 3718 bound_to 3716
  -18.3316    7.7598   23.0918 H   0  0  0  0  0  0  0  0  0  0  0  0  # atno 3915 bound_to 3906
   -8.5490   -5.2413   11.5839 H   0  0  0  0  0  0  0  0  0  0  0  0  # atno 5212 bound_to 5203
  -32.6942    1.5575    7.2020 LP  0  0  0  0  0  0  0  0  0  0  0  0  # atno 5527 bound_to 3716
  -32.6414    3.1397    7.6026 LP  0  0  0  0  0  0  0  0  0  0  0  0  # atno 5528 bound_to 3716
  -33.7098    2.1006   12.1523 LP  0  0  0  0  0  0  0  0  0  0  0  0  # atno 5529 bound_to 3636
  -32.3337    2.0344   11.2756 LP  0  0  0  0  0  0  0  0  0  0  0  0  # atno 5530 bound_to 3636
  -17.6370    9.1918   23.4314 LP  0  0  0  0  0  0  0  0  0  0  0  0  # atno 5588 bound_to 3906
  -17.8905    8.7518   21.8794 LP  0  0  0  0  0  0  0  0  0  0  0  0  # atno 5589 bound_to 3906
  -16.4660   -0.4981   20.0184 LP  0  0  0  0  0  0  0  0  0  0  0  0  # atno 5590 bound_to 3179
  -16.5533   -0.0967   21.5988 LP  0  0  0  0  0  0  0  0  0  0  0  0  # atno 5591 bound_to 3179
   -8.9492   -5.5087   10.0295 LP  0  0  0  0  0  0  0  0  0  0  0  0  # atno 5600 bound_to 5203
   -8.8022   -3.9807   10.5866 LP  0  0  0  0  0  0  0  0  0  0  0  0  # atno 5601 bound_to 5203
   -5.3100   -2.6081   12.8317 LP  0  0  0  0  0  0  0  0  0  0  0  0  # atno 5606 bound_to 597 
   -4.9647   -1.2420   13.6570 LP  0  0  0  0  0  0  0  0  0  0  0  0  # atno 5607 bound_to 597 
  -13.9003   -8.4950    8.6836 LP  0  0  0  0  0  0  0  0  0  0  0  0  # atno 5610 bound_to 1939
  -14.2074   -7.0923    7.9058 LP  0  0  0  0  0  0  0  0  0  0  0  0  # atno 5611 bound_to 1939
  -23.9108   -2.3566   15.7046 LP  0  0  0  0  0  0  0  0  0  0  0  0  # atno 5640 bound_to 3227
  -23.9686   -3.7482   16.5572 LP  0  0  0  0  0  0  0  0  0  0  0  0  # atno 5641 bound_to 3227
   -7.6137    1.6341   21.9847 LP  0  0  0  0  0  0  0  0  0  0  0  0  # atno 5648 bound_to 617 
   -7.2755    1.1880   20.4506 LP  0  0  0  0  0  0  0  0  0  0  0  0  # atno 5649 bound_to 617 
  -13.8682   -0.8294   34.8816 LP  0  0  0  0  0  0  0  0  0  0  0  0  # atno 5673 bound_to 3124
  -13.0666    0.4583   34.2766 LP  0  0  0  0  0  0  0  0  0  0  0  0  # atno 5674 bound_to 3124
  -18.9529    0.3088   31.8309 LP  0  0  0  0  0  0  0  0  0  0  0  0  # atno 5675 bound_to 3403
  -18.4507    1.1273   33.1517 LP  0  0  0  0  0  0  0  0  0  0  0  0  # atno 5676 bound_to 3403

> <Gold.Score>
     Fitness  S(hb_ext) S(vdw_ext)  S(hb_int)    S(int)      intcor
     38.04       0.28      29.04       0.00      -2.16      -0.76

> <Gold.Goldscore.Fitness>
38.0422

> <Gold.Goldscore.Internal.Vdw>
-2.5120

> <Gold.Goldscore.Internal.Torsion>
-0.4064

> <Gold.Goldscore.External.Vdw>
29.0401

> <Gold.Goldscore.Internal.HBond>
0.0000

> <Gold.Goldscore.External.HBond>
0.2750

> <Gold.Goldscore.Internal.Correction>
-0.7554

> <Gold.Goldscore.Hbonds>
donor molecule, donor type, donor heavy atom, donor atom, acceptor molecule, acceptor atom, score
      P1  H  5203  5212       L1    11  0.02
      L1  H     8    22       P1  2674  0.12

> <Gold.Goldscore.Internal.Vdw.Weighted>
-2.5120

> <Gold.Goldscore.Internal.Torsion.Weighted>
-0.4064

> <Gold.Goldscore.External.Vdw.Weighted>
39.9302

> <Gold.Goldscore.Internal.HBond.Weighted>
0.0000

> <Gold.Goldscore.External.HBond.Weighted>
0.2750

> <Gold.Goldscore.Internal.Correction.Weighted>
-0.7554

> <Gold.Rescore>
     Score     S(PLP)   S(hbond)     S(cho)   S(metal)  DE(clash)   DE(tors)     intcor
     35.16     -34.51       0.69       0.00       0.00       1.35       0.03       ----

> <Gold.PLP.Fitness>
35.1620

> <Gold.PLP.PLP>
-34.5076

> <Gold.PLP.part.hbond>
-1.7408

> <Gold.PLP.part.metal>
0.0000

> <Gold.PLP.part.buried>
-0.3047

> <Gold.PLP.part.nonpolar>
-33.3938

> <Gold.PLP.part.repulsive>
0.6039

> <Gold.PLP.ligand.clash>
1.3547

> <Gold.PLP.ligand.torsion>
0.0275

> <Gold.PLP.Chemscore.Hbond>
0.6880

> <Gold.PLP.Chemscore.CHOScore>
0.0000

> <Gold.PLP.Chemscore.Metal>
0.0000

> <Gold.Chemscore.Hbonds>
donor molecule, donor type, donor heavy atom, donor atom, acceptor molecule, acceptor atom, score
      L1  H     8    22       P1  2674  0.70

> <Gold.PLP.Chemscore.Internal.Correction>
   9.000000E+99

