#       Name:                CT1002167954
#       Creating user name   hitesit
#       Creation time:       Sun Apr 16 02:21:52 2023


#       File generated by GOLD software.
#

@<TRIPOS>MOLECULE
CT1002167954|ligand_prepared|mol2|1|dock1
    29    30     1
SMALL
NO_CHARGES


@<TRIPOS>ATOM
      1 C1         -26.4226   9.2856   3.1584 C.3            1 RES1               0.0000
      2 C2         -27.4167   9.7332   4.2494 C.ar           1 RES1               0.0000
      3 C3         -25.0931   9.9577   3.4884 C.2            1 RES1               0.0000
      4 C4         -26.3815   7.7626   3.2177 C.2            1 RES1               0.0000
      5 C5         -26.8390   9.6969   1.7270 C.3            1 RES1               0.0000
      6 C6         -28.7847   9.7567   3.9950 C.ar           1 RES1               0.0000
      7 C7         -26.9818  10.1222   5.5135 C.ar           1 RES1               0.0000
      8 N8         -24.1010   9.1766   4.0037 N.am           1 RES1               0.0000
      9 O9         -24.9308  11.1621   3.3359 O.2            1 RES1               0.0000
     10 N10        -25.2086   7.1664   3.6008 N.am           1 RES1               0.0000
     11 O11        -27.3590   7.0740   2.9522 O.2            1 RES1               0.0000
     12 C12        -25.7235   9.5647   0.7021 C.3            1 RES1               0.0000
     13 C13        -29.6856  10.1519   4.9699 C.ar           1 RES1               0.0000
     14 C14        -27.8844  10.5173   6.4870 C.ar           1 RES1               0.0000
     15 C15        -24.0758   7.8053   4.0261 C.2            1 RES1               0.0000
     16 C16        -29.2362  10.5320   6.2166 C.ar           1 RES1               0.0000
     17 O17        -23.0785   7.1990   4.4069 O.2            1 RES1               0.0000
     18 H18        -27.6839   9.0723   1.4118 H              1 RES1               0.0000
     19 H19        -27.1807  10.7392   1.7444 H              1 RES1               0.0000
     20 H20        -29.1568   9.4634   3.0190 H              1 RES1               0.0000
     21 H21        -25.9228  10.1195   5.7484 H              1 RES1               0.0000
     22 H22        -23.3042   9.6565   4.4100 H              1 RES1               0.0000
     23 H23        -25.1771   6.1525   3.5655 H              1 RES1               0.0000
     24 H24        -26.0687   9.8658  -0.2847 H              1 RES1               0.0000
     25 H25        -24.8763  10.1923   0.9709 H              1 RES1               0.0000
     26 H26        -25.3766   8.5352   0.6403 H              1 RES1               0.0000
     27 H27        -30.7484  10.1630   4.7516 H              1 RES1               0.0000
     28 H28        -27.5262  10.8162   7.4666 H              1 RES1               0.0000
     29 H29        -29.9422  10.8412   6.9803 H              1 RES1               0.0000
@<TRIPOS>BOND
    1    1    2 1     
    2    1    3 1     
    3    1    4 1     
    4    1    5 1     
    5    2    6 ar    
    6    2    7 ar    
    7    3    8 1     
    8    3    9 2     
    9    4   10 1     
   10    4   11 2     
   11    5   12 1     
   12    5   18 1     
   13    5   19 1     
   14    6   13 ar    
   15    6   20 1     
   16    7   14 ar    
   17    7   21 1     
   18    8   15 1     
   19    8   22 1     
   20   10   15 1     
   21   10   23 1     
   22   12   24 1     
   23   12   25 1     
   24   12   26 1     
   25   13   16 ar    
   26   13   27 1     
   27   14   16 ar    
   28   14   28 1     
   29   15   17 2     
   30   16   29 1     
@<TRIPOS>SUBSTRUCTURE
      1 RES1           1
@<TRIPOS>SET
DONOR_HYDROGENS      STATIC     ATOMS    <user>   **** ""
2 22 23
ATOM$RED        STATIC     ATOMS    COLORGROUP SYSTEM
2 22 23
@<TRIPOS>COMMENT
> <Gold.Version>
2022.3.0

> <Gold.Id.Protein>
unknown|5n23_clean|pdb

> <Gold.Protein.RotatedTorsions>
[ 3769 3760 3759 3757 ] final   67.20 input   59.98 | X-H torsion
[ 3689 3680 3679 3677 ] final   92.48 input   60.00 | X-H torsion
[ 3966 3957 3956 3954 ] final  -56.67 input   59.99 | X-H torsion
[ 2694 2683 2682 2681 ] final    2.27 input   59.97 | X-H torsion
[ 3230 3223 3221 3218 ] final   59.50 input   59.99 | X-H torsion
[  719  714  712  709 ] final   54.45 input   60.03 | X-H torsion
[ 2029 2024 2023 2020 ] final  -22.04 input   60.01 | X-H torsion
[ 5218 5209 5208 5206 ] final  -90.40 input   59.98 | X-H torsion
[ 3280 3271 3270 3268 ] final  -54.98 input   60.01 | X-H torsion
[  739  734  733  730 ] final  138.58 input   59.99 | X-H torsion
[ 1252 1249 1248 1247 ] final   63.56 input   59.99 | X-H torsion
[ 3406 3401 3400 3397 ] final  -91.95 input   59.98 | X-H torsion
[ 1341 1337 1335 1332 ] final  123.22 input   59.99 | X-H torsion

> <Gold.Protein.ActiveResidues>
 LEU49   GLY50   THR51   GLY52   SER53   PHE54   VAL79   LEU82   LYS83   GLN84  
 HIS87   THR88   GLY126  GLU127  MET128  PHE129  SER130  HIS131  LEU132  ARG133 
 ARG134  ILE135  GLY136  ARG137  ARG165  ASP166  LEU167  LYS168  PRO169  GLU170 
 ASN171  LEU173  ASP184  GLY186  PHE187  TRP196  TPO197  LEU198  CYS199  GLY200 
 THR201  PRO202  GLU203  TYR204  LEU205  ILE209  ILE210  SER212  VAL226  LEU227 
 TYR229  GLU230  ALA233  GLY234  TYR235  PRO236  PRO237  PHE238  PHE239  ALA240 
 ASP241  GLN242  PRO243  ILE244  GLN245  ILE246  TYR247  LYS249  ARG256  PHE257 
 PRO258  SER259  ASP328  TYR330 

> <Gold.Protein.RotatedAtoms>
  -19.8247   12.7493    5.8821 H   0  0  0  0  0  0  0  0  0  0  0  0  # atno 719  bound_to 714 
  -16.7285   11.2469   -2.0346 H   0  0  0  0  0  0  0  0  0  0  0  0  # atno 739  bound_to 734 
   -7.5307   11.8915  -11.1920 H   0  0  0  0  0  0  0  0  0  0  0  0  # atno 1252 bound_to 1249
   -8.3506   10.4518  -11.1590 H   0  0  0  0  0  0  0  0  0  0  0  0  # atno 1253 bound_to 1249
   -8.0006   11.1738  -12.6100 H   0  0  0  0  0  0  0  0  0  0  0  0  # atno 1254 bound_to 1249
  -20.2565   14.5232   -9.4128 H   0  0  0  0  0  0  0  0  0  0  0  0  # atno 1341 bound_to 1337
  -24.6345    4.7278   11.6937 H   0  0  0  0  0  0  0  0  0  0  0  0  # atno 2029 bound_to 2024
  -18.3647    3.2421    1.0856 H   0  0  0  0  0  0  0  0  0  0  0  0  # atno 2694 bound_to 2683
  -18.9491    4.2155   -0.1222 H   0  0  0  0  0  0  0  0  0  0  0  0  # atno 2695 bound_to 2683
  -19.1304    4.6628    1.4632 H   0  0  0  0  0  0  0  0  0  0  0  0  # atno 2696 bound_to 2683
  -17.9837    1.9457   -1.6112 H   0  0  0  0  0  0  0  0  0  0  0  0  # atno 3230 bound_to 3223
  -20.3840   -5.0514    4.3295 H   0  0  0  0  0  0  0  0  0  0  0  0  # atno 3280 bound_to 3271
   -7.0578   -1.1581  -13.3306 H   0  0  0  0  0  0  0  0  0  0  0  0  # atno 3406 bound_to 3401
  -16.5090  -14.6416    8.3062 H   0  0  0  0  0  0  0  0  0  0  0  0  # atno 3689 bound_to 3680
  -15.3898  -14.0304   12.3224 H   0  0  0  0  0  0  0  0  0  0  0  0  # atno 3769 bound_to 3760
   -9.9494    0.0512   -3.2296 H   0  0  0  0  0  0  0  0  0  0  0  0  # atno 3966 bound_to 3957
  -22.0582   12.6766   11.0342 H   0  0  0  0  0  0  0  0  0  0  0  0  # atno 5218 bound_to 5209
  -16.8029  -14.2377   11.5425 LP  0  0  0  0  0  0  0  0  0  0  0  0  # atno 5548 bound_to 3760
  -16.7916  -13.8561   13.1302 LP  0  0  0  0  0  0  0  0  0  0  0  0  # atno 5549 bound_to 3760
  -15.6409  -13.3077    7.9670 LP  0  0  0  0  0  0  0  0  0  0  0  0  # atno 5556 bound_to 3680
  -15.5542  -14.6124    6.9888 LP  0  0  0  0  0  0  0  0  0  0  0  0  # atno 5557 bound_to 3680
   -8.4967    0.7023   -2.8913 LP  0  0  0  0  0  0  0  0  0  0  0  0  # atno 5612 bound_to 3957
   -9.4665    0.1897   -1.6816 LP  0  0  0  0  0  0  0  0  0  0  0  0  # atno 5613 bound_to 3957
  -17.0350    2.8889   -0.6845 LP  0  0  0  0  0  0  0  0  0  0  0  0  # atno 5616 bound_to 3223
  -18.3198    2.1234   -0.0288 LP  0  0  0  0  0  0  0  0  0  0  0  0  # atno 5617 bound_to 3223
  -20.5388   13.3161    7.2303 LP  0  0  0  0  0  0  0  0  0  0  0  0  # atno 5626 bound_to 714 
  -19.0400   13.8206    6.8231 LP  0  0  0  0  0  0  0  0  0  0  0  0  # atno 5627 bound_to 714 
  -25.6850    5.7830   12.3491 LP  0  0  0  0  0  0  0  0  0  0  0  0  # atno 5630 bound_to 2024
  -26.0375    5.0470   10.9347 LP  0  0  0  0  0  0  0  0  0  0  0  0  # atno 5631 bound_to 2024
  -22.0919   13.2889    9.5270 LP  0  0  0  0  0  0  0  0  0  0  0  0  # atno 5636 bound_to 5209
  -23.4828   12.8664   10.2711 LP  0  0  0  0  0  0  0  0  0  0  0  0  # atno 5637 bound_to 5209
  -21.7626   -5.2838    3.4962 LP  0  0  0  0  0  0  0  0  0  0  0  0  # atno 5660 bound_to 3271
  -21.3926   -3.8005    4.0702 LP  0  0  0  0  0  0  0  0  0  0  0  0  # atno 5661 bound_to 3271
  -16.6892   11.7151   -0.4769 LP  0  0  0  0  0  0  0  0  0  0  0  0  # atno 5668 bound_to 734 
  -15.4730   12.1247   -1.4868 LP  0  0  0  0  0  0  0  0  0  0  0  0  # atno 5669 bound_to 734 
   -5.7052   -2.0089  -13.0240 LP  0  0  0  0  0  0  0  0  0  0  0  0  # atno 5699 bound_to 3401
   -7.0904   -2.3588  -12.2331 LP  0  0  0  0  0  0  0  0  0  0  0  0  # atno 5700 bound_to 3401

> <Gold.Score>
     Fitness  S(hb_ext) S(vdw_ext)  S(hb_int)    S(int)      intcor
     29.89       1.02      21.65       0.00      -0.88      -0.79

> <Gold.Goldscore.Fitness>
29.8947

> <Gold.Goldscore.Internal.Vdw>
-0.9949

> <Gold.Goldscore.Internal.Torsion>
-0.6804

> <Gold.Goldscore.External.Vdw>
21.6453

> <Gold.Goldscore.Internal.HBond>
0.0000

> <Gold.Goldscore.External.HBond>
1.0165

> <Gold.Goldscore.Internal.Correction>
-0.7912

> <Gold.Goldscore.Hbonds>
donor molecule, donor type, donor heavy atom, donor atom, acceptor molecule, acceptor atom, score
      L1  H    10    23       P1  2714  0.51

> <Gold.Goldscore.Internal.Vdw.Weighted>
-0.9949

> <Gold.Goldscore.Internal.Torsion.Weighted>
-0.6804

> <Gold.Goldscore.External.Vdw.Weighted>
29.7623

> <Gold.Goldscore.Internal.HBond.Weighted>
0.0000

> <Gold.Goldscore.External.HBond.Weighted>
1.0165

> <Gold.Goldscore.Internal.Correction.Weighted>
-0.7912

> <Gold.Rescore>
     Score     S(PLP)   S(hbond)     S(cho)   S(metal)  DE(clash)   DE(tors)     intcor
     34.73     -33.64       0.96       0.00       0.00       1.15       0.32       ----

> <Gold.PLP.Fitness>
34.7266

> <Gold.PLP.PLP>
-33.6353

> <Gold.PLP.part.hbond>
-1.3806

> <Gold.PLP.part.metal>
0.0000

> <Gold.PLP.part.buried>
-4.6818

> <Gold.PLP.part.nonpolar>
-28.7691

> <Gold.PLP.part.repulsive>
0.4915

> <Gold.PLP.ligand.clash>
1.1521

> <Gold.PLP.ligand.torsion>
0.3183

> <Gold.PLP.Chemscore.Hbond>
0.9600

> <Gold.PLP.Chemscore.CHOScore>
0.0000

> <Gold.PLP.Chemscore.Metal>
0.0000

> <Gold.Chemscore.Hbonds>
donor molecule, donor type, donor heavy atom, donor atom, acceptor molecule, acceptor atom, score
      L1  H    10    23       P1  2714  1.00

> <Gold.PLP.Chemscore.Internal.Correction>
   9.000000E+99

