#       Name:                CT1002167954
#       Creating user name   hitesit
#       Creation time:       Sun Apr 16 02:22:04 2023


#       File generated by GOLD software.
#

@<TRIPOS>MOLECULE
CT1002167954|ligand_prepared|mol2|1|dock10
    29    30     1
SMALL
NO_CHARGES


@<TRIPOS>ATOM
      1 C1         -25.9714   9.1588   2.9933 C.3            1 RES1               0.0000
      2 C2         -27.2714   9.7415   3.5841 C.ar           1 RES1               0.0000
      3 C3         -26.2747   8.8261   1.5354 C.2            1 RES1               0.0000
      4 C4         -24.9017  10.2296   3.1775 C.2            1 RES1               0.0000
      5 C5         -25.4858   7.8719   3.7000 C.3            1 RES1               0.0000
      6 C6         -27.4081   9.9198   4.9575 C.ar           1 RES1               0.0000
      7 C7         -28.3398  10.1073   2.7696 C.ar           1 RES1               0.0000
      8 N8         -25.7485   9.6427   0.5782 N.am           1 RES1               0.0000
      9 O9         -26.9972   7.8848   1.2317 O.2            1 RES1               0.0000
     10 N10        -24.3723  10.8083   2.0538 N.am           1 RES1               0.0000
     11 O11        -24.5244  10.5891   4.2859 O.2            1 RES1               0.0000
     12 C12        -24.2863   7.2199   3.0304 C.3            1 RES1               0.0000
     13 C13        -28.5695  10.4474   5.4970 C.ar           1 RES1               0.0000
     14 C14        -29.5005  10.6345   3.3112 C.ar           1 RES1               0.0000
     15 C15        -24.7692  10.5853   0.7635 C.2            1 RES1               0.0000
     16 C16        -29.6162  10.8054   4.6743 C.ar           1 RES1               0.0000
     17 O17        -24.2825  11.1849  -0.1908 O.2            1 RES1               0.0000
     18 H18        -25.2220   8.1162   4.7364 H              1 RES1               0.0000
     19 H19        -26.3114   7.1500   3.7255 H              1 RES1               0.0000
     20 H20        -26.5959   9.6416   5.6208 H              1 RES1               0.0000
     21 H21        -28.2716   9.9807   1.6944 H              1 RES1               0.0000
     22 H22        -26.1172   9.5435  -0.3623 H              1 RES1               0.0000
     23 H23        -23.6118  11.4662   2.1921 H              1 RES1               0.0000
     24 H24        -23.9866   6.3216   3.5660 H              1 RES1               0.0000
     25 H25        -24.5212   6.9408   2.0054 H              1 RES1               0.0000
     26 H26        -23.4383   7.9013   3.0103 H              1 RES1               0.0000
     27 H27        -28.6561  10.5787   6.5705 H              1 RES1               0.0000
     28 H28        -30.3220  10.9143   2.6600 H              1 RES1               0.0000
     29 H29        -30.5258  11.2191   5.0972 H              1 RES1               0.0000
@<TRIPOS>BOND
    1    1    2 1     
    2    1    3 1     
    3    1    4 1     
    4    1    5 1     
    5    2    6 ar    
    6    2    7 ar    
    7    3    8 1     
    8    3    9 2     
    9    4   10 1     
   10    4   11 2     
   11    5   12 1     
   12    5   18 1     
   13    5   19 1     
   14    6   13 ar    
   15    6   20 1     
   16    7   14 ar    
   17    7   21 1     
   18    8   15 1     
   19    8   22 1     
   20   10   15 1     
   21   10   23 1     
   22   12   24 1     
   23   12   25 1     
   24   12   26 1     
   25   13   16 ar    
   26   13   27 1     
   27   14   16 ar    
   28   14   28 1     
   29   15   17 2     
   30   16   29 1     
@<TRIPOS>SUBSTRUCTURE
      1 RES1           1
@<TRIPOS>SET
DONOR_HYDROGENS      STATIC     ATOMS    <user>   **** ""
2 22 23
ATOM$RED        STATIC     ATOMS    COLORGROUP SYSTEM
2 22 23
@<TRIPOS>COMMENT
> <Gold.Version>
2022.3.0

> <Gold.Id.Protein>
unknown|5n23_clean|pdb

> <Gold.Protein.RotatedTorsions>
[ 3769 3760 3759 3757 ] final -159.42 input   59.98 | X-H torsion
[ 3689 3680 3679 3677 ] final  -45.00 input   60.00 | X-H torsion
[ 3966 3957 3956 3954 ] final -152.46 input   59.99 | X-H torsion
[ 2694 2683 2682 2681 ] final  158.01 input   59.97 | X-H torsion
[ 3230 3223 3221 3218 ] final  -13.80 input   59.99 | X-H torsion
[  719  714  712  709 ] final  -85.37 input   60.03 | X-H torsion
[ 2029 2024 2023 2020 ] final -169.13 input   60.01 | X-H torsion
[ 5218 5209 5208 5206 ] final  -87.91 input   59.98 | X-H torsion
[ 3280 3271 3270 3268 ] final  -95.62 input   60.01 | X-H torsion
[  739  734  733  730 ] final  123.83 input   59.99 | X-H torsion
[ 1252 1249 1248 1247 ] final   40.30 input   59.99 | X-H torsion
[ 3406 3401 3400 3397 ] final  102.76 input   59.98 | X-H torsion
[ 1341 1337 1335 1332 ] final  121.31 input   59.99 | X-H torsion

> <Gold.Protein.ActiveResidues>
 LEU49   GLY50   THR51   GLY52   SER53   PHE54   VAL79   LEU82   LYS83   GLN84  
 HIS87   THR88   GLY126  GLU127  MET128  PHE129  SER130  HIS131  LEU132  ARG133 
 ARG134  ILE135  GLY136  ARG137  ARG165  ASP166  LEU167  LYS168  PRO169  GLU170 
 ASN171  LEU173  ASP184  GLY186  PHE187  TRP196  TPO197  LEU198  CYS199  GLY200 
 THR201  PRO202  GLU203  TYR204  LEU205  ILE209  ILE210  SER212  VAL226  LEU227 
 TYR229  GLU230  ALA233  GLY234  TYR235  PRO236  PRO237  PHE238  PHE239  ALA240 
 ASP241  GLN242  PRO243  ILE244  GLN245  ILE246  TYR247  LYS249  ARG256  PHE257 
 PRO258  SER259  ASP328  TYR330 

> <Gold.Protein.RotatedAtoms>
  -20.3391   13.5260    7.3743 H   0  0  0  0  0  0  0  0  0  0  0  0  # atno 719  bound_to 714 
  -16.8919   11.2019   -1.8641 H   0  0  0  0  0  0  0  0  0  0  0  0  # atno 739  bound_to 734 
   -7.4859   11.9975  -11.5600 H   0  0  0  0  0  0  0  0  0  0  0  0  # atno 1252 bound_to 1249
   -8.2118   10.6742  -10.8758 H   0  0  0  0  0  0  0  0  0  0  0  0  # atno 1253 bound_to 1249
   -8.1844   10.8452  -12.5249 H   0  0  0  0  0  0  0  0  0  0  0  0  # atno 1254 bound_to 1249
  -20.2486   14.4962   -9.4264 H   0  0  0  0  0  0  0  0  0  0  0  0  # atno 1341 bound_to 1337
  -26.0264    5.7955   12.0720 H   0  0  0  0  0  0  0  0  0  0  0  0  # atno 2029 bound_to 2024
  -19.1823    4.6609    0.1803 H   0  0  0  0  0  0  0  0  0  0  0  0  # atno 2694 bound_to 2683
  -18.8731    4.2172    1.7473 H   0  0  0  0  0  0  0  0  0  0  0  0  # atno 2695 bound_to 2683
  -18.3883    3.2413    0.4987 H   0  0  0  0  0  0  0  0  0  0  0  0  # atno 2696 bound_to 2683
  -17.1323    2.6310   -1.3764 H   0  0  0  0  0  0  0  0  0  0  0  0  # atno 3230 bound_to 3223
  -20.7135   -5.5236    4.0272 H   0  0  0  0  0  0  0  0  0  0  0  0  # atno 3280 bound_to 3271
   -5.9936   -2.4516  -12.5300 H   0  0  0  0  0  0  0  0  0  0  0  0  # atno 3406 bound_to 3401
  -15.4915  -13.3480    7.7270 H   0  0  0  0  0  0  0  0  0  0  0  0  # atno 3689 bound_to 3680
  -16.9642  -13.8878   12.9992 H   0  0  0  0  0  0  0  0  0  0  0  0  # atno 3769 bound_to 3760
   -8.6868    0.6313   -3.2292 H   0  0  0  0  0  0  0  0  0  0  0  0  # atno 3966 bound_to 3957
  -22.0934   12.6664   11.0520 H   0  0  0  0  0  0  0  0  0  0  0  0  # atno 5218 bound_to 5209
  -15.4072  -13.9815   12.5351 LP  0  0  0  0  0  0  0  0  0  0  0  0  # atno 5548 bound_to 3760
  -16.6017  -14.2560   11.4560 LP  0  0  0  0  0  0  0  0  0  0  0  0  # atno 5549 bound_to 3760
  -15.7214  -14.8250    7.0840 LP  0  0  0  0  0  0  0  0  0  0  0  0  # atno 5556 bound_to 3680
  -16.4987  -14.3983    8.4552 LP  0  0  0  0  0  0  0  0  0  0  0  0  # atno 5557 bound_to 3680
   -9.1072    0.3548   -1.6815 LP  0  0  0  0  0  0  0  0  0  0  0  0  # atno 5612 bound_to 3957
  -10.1273   -0.0468   -2.8918 LP  0  0  0  0  0  0  0  0  0  0  0  0  # atno 5613 bound_to 3957
  -17.7506    2.5815    0.1281 LP  0  0  0  0  0  0  0  0  0  0  0  0  # atno 5616 bound_to 3223
  -18.4616    1.7408   -1.0779 LP  0  0  0  0  0  0  0  0  0  0  0  0  # atno 5617 bound_to 3223
  -18.9452   13.6774    6.5479 LP  0  0  0  0  0  0  0  0  0  0  0  0  # atno 5626 bound_to 714 
  -20.1159   12.6775    6.0034 LP  0  0  0  0  0  0  0  0  0  0  0  0  # atno 5627 bound_to 714 
  -25.6949    4.7842   10.8416 LP  0  0  0  0  0  0  0  0  0  0  0  0  # atno 5630 bound_to 2024
  -24.6248    4.9697   12.0610 LP  0  0  0  0  0  0  0  0  0  0  0  0  # atno 5631 bound_to 2024
  -22.0565   13.2837    9.5470 LP  0  0  0  0  0  0  0  0  0  0  0  0  # atno 5636 bound_to 5209
  -23.4828   12.8820   10.2332 LP  0  0  0  0  0  0  0  0  0  0  0  0  # atno 5637 bound_to 5209
  -22.0025   -4.6749    3.5105 LP  0  0  0  0  0  0  0  0  0  0  0  0  # atno 5660 bound_to 3271
  -20.8211   -3.9341    4.3603 LP  0  0  0  0  0  0  0  0  0  0  0  0  # atno 5661 bound_to 3271
  -16.4914   11.8442   -0.4240 LP  0  0  0  0  0  0  0  0  0  0  0  0  # atno 5668 bound_to 734 
  -15.5063   12.0409   -1.7114 LP  0  0  0  0  0  0  0  0  0  0  0  0  # atno 5669 bound_to 734 
   -7.5065   -1.8532  -12.5462 LP  0  0  0  0  0  0  0  0  0  0  0  0  # atno 5699 bound_to 3401
   -6.3611   -1.2118  -13.5174 LP  0  0  0  0  0  0  0  0  0  0  0  0  # atno 5700 bound_to 3401

> <Gold.Score>
     Fitness  S(hb_ext) S(vdw_ext)  S(hb_int)    S(int)      intcor
     28.76       0.14      21.87       0.00      -1.45      -0.76

> <Gold.Goldscore.Fitness>
28.7571

> <Gold.Goldscore.Internal.Vdw>
-1.7782

> <Gold.Goldscore.Internal.Torsion>
-0.4258

> <Gold.Goldscore.External.Vdw>
21.8675

> <Gold.Goldscore.Internal.HBond>
0.0000

> <Gold.Goldscore.External.HBond>
0.1366

> <Gold.Goldscore.Internal.Correction>
-0.7567

> <Gold.Goldscore.Hbonds>
donor molecule, donor type, donor heavy atom, donor atom, acceptor molecule, acceptor atom, score
      L1  H    10    23       P1   711  0.07

> <Gold.Goldscore.Internal.Vdw.Weighted>
-1.7782

> <Gold.Goldscore.Internal.Torsion.Weighted>
-0.4258

> <Gold.Goldscore.External.Vdw.Weighted>
30.0678

> <Gold.Goldscore.Internal.HBond.Weighted>
0.0000

> <Gold.Goldscore.External.HBond.Weighted>
0.1366

> <Gold.Goldscore.Internal.Correction.Weighted>
-0.7567

> <Gold.Rescore>
     Score     S(PLP)   S(hbond)     S(cho)   S(metal)  DE(clash)   DE(tors)     intcor
     31.94     -32.66       0.32       0.00       0.00       1.08       0.29       ----

> <Gold.PLP.Fitness>
31.9394

> <Gold.PLP.PLP>
-32.6570

> <Gold.PLP.part.hbond>
-0.9490

> <Gold.PLP.part.metal>
0.0000

> <Gold.PLP.part.buried>
-5.5809

> <Gold.PLP.part.nonpolar>
-27.3416

> <Gold.PLP.part.repulsive>
0.4967

> <Gold.PLP.ligand.clash>
1.0843

> <Gold.PLP.ligand.torsion>
0.2904

> <Gold.PLP.Chemscore.Hbond>
0.3159

> <Gold.PLP.Chemscore.CHOScore>
0.0000

> <Gold.PLP.Chemscore.Metal>
0.0000

> <Gold.PLP.Chemscore.Internal.Correction>
   9.000000E+99

