#       Name:                CT1002167954
#       Creating user name   hitesit
#       Creation time:       Sun Apr 16 02:22:01 2023


#       File generated by GOLD software.
#

@<TRIPOS>MOLECULE
CT1002167954|ligand_prepared|mol2|1|dock8
    29    30     1
SMALL
NO_CHARGES


@<TRIPOS>ATOM
      1 C1         -20.1335   8.9485  -2.2892 C.3            1 RES1               0.0000
      2 C2         -21.1077   9.5445  -1.2526 C.ar           1 RES1               0.0000
      3 C3         -18.7521   8.9715  -1.6416 C.2            1 RES1               0.0000
      4 C4         -20.6497   7.5489  -2.6043 C.2            1 RES1               0.0000
      5 C5         -20.0681   9.7431  -3.6143 C.3            1 RES1               0.0000
      6 C6         -21.3220   8.9080  -0.0337 C.ar           1 RES1               0.0000
      7 C7         -21.7961  10.7293  -1.4994 C.ar           1 RES1               0.0000
      8 N8         -18.2332   7.7837  -1.2175 N.am           1 RES1               0.0000
      9 O9         -18.1443  10.0209  -1.4699 O.2            1 RES1               0.0000
     10 N10        -19.8729   6.4807  -2.2391 N.am           1 RES1               0.0000
     11 O11        -21.7298   7.3609  -3.1505 O.2            1 RES1               0.0000
     12 C12        -19.1464   9.1261  -4.6544 C.3            1 RES1               0.0000
     13 C13        -22.1906   9.4383   0.9058 C.ar           1 RES1               0.0000
     14 C14        -22.6645  11.2578  -0.5586 C.ar           1 RES1               0.0000
     15 C15        -18.7024   6.5337  -1.5324 C.2            1 RES1               0.0000
     16 C16        -22.8621  10.6136   0.6442 C.ar           1 RES1               0.0000
     17 O17        -18.0887   5.5259  -1.1935 O.2            1 RES1               0.0000
     18 H18        -21.0789   9.8122  -4.0348 H              1 RES1               0.0000
     19 H19        -19.7245  10.7623  -3.3982 H              1 RES1               0.0000
     20 H20        -20.8043   7.9809   0.1889 H              1 RES1               0.0000
     21 H21        -21.6571  11.2528  -2.4392 H              1 RES1               0.0000
     22 H22        -17.4214   7.8290  -0.6099 H              1 RES1               0.0000
     23 H23        -20.1972   5.5608  -2.5201 H              1 RES1               0.0000
     24 H24        -19.1373   9.7227  -5.5641 H              1 RES1               0.0000
     25 H25        -18.1270   9.0652  -4.2788 H              1 RES1               0.0000
     26 H26        -19.4734   8.1208  -4.9116 H              1 RES1               0.0000
     27 H27        -22.3437   8.9268   1.8503 H              1 RES1               0.0000
     28 H28        -23.1913  12.1827  -0.7690 H              1 RES1               0.0000
     29 H29        -23.5422  11.0290   1.3804 H              1 RES1               0.0000
@<TRIPOS>BOND
    1    1    2 1     
    2    1    3 1     
    3    1    4 1     
    4    1    5 1     
    5    2    6 ar    
    6    2    7 ar    
    7    3    8 1     
    8    3    9 2     
    9    4   10 1     
   10    4   11 2     
   11    5   12 1     
   12    5   18 1     
   13    5   19 1     
   14    6   13 ar    
   15    6   20 1     
   16    7   14 ar    
   17    7   21 1     
   18    8   15 1     
   19    8   22 1     
   20   10   15 1     
   21   10   23 1     
   22   12   24 1     
   23   12   25 1     
   24   12   26 1     
   25   13   16 ar    
   26   13   27 1     
   27   14   16 ar    
   28   14   28 1     
   29   15   17 2     
   30   16   29 1     
@<TRIPOS>SUBSTRUCTURE
      1 RES1           1
@<TRIPOS>SET
DONOR_HYDROGENS      STATIC     ATOMS    <user>   **** ""
2 22 23
ATOM$RED        STATIC     ATOMS    COLORGROUP SYSTEM
2 22 23
@<TRIPOS>COMMENT
> <Gold.Version>
2022.3.0

> <Gold.Id.Protein>
unknown|5n23_clean|pdb

> <Gold.Protein.RotatedTorsions>
[ 3769 3760 3759 3757 ] final   71.25 input   59.98 | X-H torsion
[ 3689 3680 3679 3677 ] final -179.71 input   60.00 | X-H torsion
[ 3966 3957 3956 3954 ] final -164.24 input   59.99 | X-H torsion
[ 2694 2683 2682 2681 ] final  -38.98 input   59.97 | X-H torsion
[ 3230 3223 3221 3218 ] final  -32.71 input   59.99 | X-H torsion
[  719  714  712  709 ] final  -66.31 input   60.03 | X-H torsion
[ 2029 2024 2023 2020 ] final   29.25 input   60.01 | X-H torsion
[ 5218 5209 5208 5206 ] final -119.62 input   59.98 | X-H torsion
[ 3280 3271 3270 3268 ] final   72.02 input   60.01 | X-H torsion
[  739  734  733  730 ] final   97.56 input   59.99 | X-H torsion
[ 1252 1249 1248 1247 ] final  -39.04 input   59.99 | X-H torsion
[ 3406 3401 3400 3397 ] final   72.22 input   59.98 | X-H torsion
[ 1341 1337 1335 1332 ] final  -53.48 input   59.99 | X-H torsion

> <Gold.Protein.ActiveResidues>
 LEU49   GLY50   THR51   GLY52   SER53   PHE54   VAL79   LEU82   LYS83   GLN84  
 HIS87   THR88   GLY126  GLU127  MET128  PHE129  SER130  HIS131  LEU132  ARG133 
 ARG134  ILE135  GLY136  ARG137  ARG165  ASP166  LEU167  LYS168  PRO169  GLU170 
 ASN171  LEU173  ASP184  GLY186  PHE187  TRP196  TPO197  LEU198  CYS199  GLY200 
 THR201  PRO202  GLU203  TYR204  LEU205  ILE209  ILE210  SER212  VAL226  LEU227 
 TYR229  GLU230  ALA233  GLY234  TYR235  PRO236  PRO237  PHE238  PHE239  ALA240 
 ASP241  GLN242  PRO243  ILE244  GLN245  ILE246  TYR247  LYS249  ARG256  PHE257 
 PRO258  SER259  ASP328  TYR330 

> <Gold.Protein.RotatedAtoms>
  -20.5289   13.3261    7.2322 H   0  0  0  0  0  0  0  0  0  0  0  0  # atno 719  bound_to 714 
  -17.0805   11.2031   -1.4829 H   0  0  0  0  0  0  0  0  0  0  0  0  # atno 739  bound_to 734 
   -7.8571   11.4220  -12.5708 H   0  0  0  0  0  0  0  0  0  0  0  0  # atno 1252 bound_to 1249
   -7.6104   11.7345  -10.9622 H   0  0  0  0  0  0  0  0  0  0  0  0  # atno 1253 bound_to 1249
   -8.4143   10.3607  -11.4264 H   0  0  0  0  0  0  0  0  0  0  0  0  # atno 1254 bound_to 1249
  -21.5592   13.5681   -8.4667 H   0  0  0  0  0  0  0  0  0  0  0  0  # atno 1341 bound_to 1337
  -25.0980    4.5695   11.0486 H   0  0  0  0  0  0  0  0  0  0  0  0  # atno 2029 bound_to 2024
  -18.5453    3.6105    1.6204 H   0  0  0  0  0  0  0  0  0  0  0  0  # atno 2694 bound_to 2683
  -18.6243    3.6314   -0.0352 H   0  0  0  0  0  0  0  0  0  0  0  0  # atno 2695 bound_to 2683
  -19.2746    4.8786    0.8411 H   0  0  0  0  0  0  0  0  0  0  0  0  # atno 2696 bound_to 2683
  -17.0351    2.7703   -1.1199 H   0  0  0  0  0  0  0  0  0  0  0  0  # atno 3230 bound_to 3223
  -21.4851   -3.8289    4.0081 H   0  0  0  0  0  0  0  0  0  0  0  0  # atno 3280 bound_to 3271
   -6.4140   -2.5538  -12.2936 H   0  0  0  0  0  0  0  0  0  0  0  0  # atno 3406 bound_to 3401
  -15.8773  -14.9526    7.2154 H   0  0  0  0  0  0  0  0  0  0  0  0  # atno 3689 bound_to 3680
  -15.3916  -14.0150   12.3866 H   0  0  0  0  0  0  0  0  0  0  0  0  # atno 3769 bound_to 3760
   -8.5804    0.6716   -3.0743 H   0  0  0  0  0  0  0  0  0  0  0  0  # atno 3966 bound_to 3957
  -21.7308   12.8290   10.7300 H   0  0  0  0  0  0  0  0  0  0  0  0  # atno 5218 bound_to 5209
  -16.7444  -14.2444   11.5116 LP  0  0  0  0  0  0  0  0  0  0  0  0  # atno 5548 bound_to 3760
  -16.8483  -13.8649   13.0965 LP  0  0  0  0  0  0  0  0  0  0  0  0  # atno 5549 bound_to 3760
  -16.4448  -14.1740    8.5267 LP  0  0  0  0  0  0  0  0  0  0  0  0  # atno 5556 bound_to 3680
  -15.3866  -13.4329    7.5279 LP  0  0  0  0  0  0  0  0  0  0  0  0  # atno 5557 bound_to 3680
   -9.2816    0.2735   -1.6606 LP  0  0  0  0  0  0  0  0  0  0  0  0  # atno 5612 bound_to 3957
  -10.0600   -0.0061   -3.0687 LP  0  0  0  0  0  0  0  0  0  0  0  0  # atno 5613 bound_to 3957
  -18.0016    2.4000    0.1360 LP  0  0  0  0  0  0  0  0  0  0  0  0  # atno 5616 bound_to 3223
  -18.3084    1.7820   -1.3441 LP  0  0  0  0  0  0  0  0  0  0  0  0  # atno 5617 bound_to 3223
  -19.0346   13.8162    6.8127 LP  0  0  0  0  0  0  0  0  0  0  0  0  # atno 5626 bound_to 714 
  -19.8353   12.7399    5.8816 LP  0  0  0  0  0  0  0  0  0  0  0  0  # atno 5627 bound_to 714 
  -24.9616    5.4144   12.4322 LP  0  0  0  0  0  0  0  0  0  0  0  0  # atno 5630 bound_to 2024
  -26.2939    5.5751   11.5017 LP  0  0  0  0  0  0  0  0  0  0  0  0  # atno 5631 bound_to 2024
  -22.5518   13.2996    9.4064 LP  0  0  0  0  0  0  0  0  0  0  0  0  # atno 5636 bound_to 5209
  -23.3526   12.7022   10.6980 LP  0  0  0  0  0  0  0  0  0  0  0  0  # atno 5637 bound_to 5209
  -20.3598   -4.9471    4.3717 LP  0  0  0  0  0  0  0  0  0  0  0  0  # atno 5660 bound_to 3271
  -21.6870   -5.3678    3.5183 LP  0  0  0  0  0  0  0  0  0  0  0  0  # atno 5661 bound_to 3271
  -16.1165   12.0446   -0.4781 LP  0  0  0  0  0  0  0  0  0  0  0  0  # atno 5668 bound_to 734 
  -15.6911   11.8394   -2.0413 LP  0  0  0  0  0  0  0  0  0  0  0  0  # atno 5669 bound_to 734 
   -7.4927   -1.4868  -12.8811 LP  0  0  0  0  0  0  0  0  0  0  0  0  # atno 5699 bound_to 3401
   -5.9514   -1.4752  -13.4205 LP  0  0  0  0  0  0  0  0  0  0  0  0  # atno 5700 bound_to 3401

> <Gold.Score>
     Fitness  S(hb_ext) S(vdw_ext)  S(hb_int)    S(int)      intcor
     31.99       5.54      19.26       0.00      -0.02      -0.76

> <Gold.Goldscore.Fitness>
31.9902

> <Gold.Goldscore.Internal.Vdw>
-0.4064

> <Gold.Goldscore.Internal.Torsion>
-0.3738

> <Gold.Goldscore.External.Vdw>
19.2558

> <Gold.Goldscore.Internal.HBond>
0.0000

> <Gold.Goldscore.External.HBond>
5.5370

> <Gold.Goldscore.Internal.Correction>
-0.7567

> <Gold.Goldscore.Hbonds>
donor molecule, donor type, donor heavy atom, donor atom, acceptor molecule, acceptor atom, score
      P1  H   734   739       L1     9  1.00
      L1  H    10    23       P1  2651  0.59

> <Gold.Goldscore.Internal.Vdw.Weighted>
-0.4064

> <Gold.Goldscore.Internal.Torsion.Weighted>
-0.3738

> <Gold.Goldscore.External.Vdw.Weighted>
26.4767

> <Gold.Goldscore.Internal.HBond.Weighted>
0.0000

> <Gold.Goldscore.External.HBond.Weighted>
5.5370

> <Gold.Goldscore.Internal.Correction.Weighted>
-0.7567

> <Gold.Rescore>
     Score     S(PLP)   S(hbond)     S(cho)   S(metal)  DE(clash)   DE(tors)     intcor
     30.01     -21.38       2.90       0.00       0.00       0.00       0.03       ----

> <Gold.PLP.Fitness>
30.0134

> <Gold.PLP.PLP>
-21.3790

> <Gold.PLP.part.hbond>
-4.0000

> <Gold.PLP.part.metal>
0.0000

> <Gold.PLP.part.buried>
-6.2898

> <Gold.PLP.part.nonpolar>
-12.6421

> <Gold.PLP.part.repulsive>
0.5901

> <Gold.PLP.ligand.clash>
0.0000

> <Gold.PLP.ligand.torsion>
0.0316

> <Gold.PLP.Chemscore.Hbond>
2.8992

> <Gold.PLP.Chemscore.CHOScore>
0.0000

> <Gold.PLP.Chemscore.Metal>
0.0000

> <Gold.Chemscore.Hbonds>
donor molecule, donor type, donor heavy atom, donor atom, acceptor molecule, acceptor atom, score
      L1  H    10    23       P1  2651  0.88
      P1  H  2683  2695       L1    17  0.10
      P1  H   734   739       L1     9  0.98

> <Gold.PLP.Chemscore.Internal.Correction>
   9.000000E+99

