#       Name:                GA Fitting Points
#       Creating user name   hitesit
#       Creation time:       Sun Apr 16 02:24:44 2023


#       Fitting Points Used by GA Software.
#

@<TRIPOS>MOLECULE
GA Fitting Points
  2880    0    0
SMALL
NO_CHARGES


@<TRIPOS>ATOM
      1 ****       119.2500 268.5000 327.2500 Du        
      2 ****       119.2500 268.7500 327.0000 Du        
      3 ****       119.5000 268.5000 327.0000 Du        
      4 ****       119.5000 268.5000 327.2500 Du        
      5 ****       119.5000 268.7500 327.0000 Du        
      6 ****       119.5000 268.7500 327.2500 Du        
      7 ****       119.5000 269.0000 327.0000 Du        
      8 ****       119.7500 268.2500 327.2500 Du        
      9 ****       119.7500 268.5000 327.0000 Du        
     10 ****       119.7500 268.5000 327.2500 Du        
     11 ****       119.7500 268.7500 327.0000 Du        
     12 ****       119.7500 268.7500 327.2500 Du        
     13 ****       119.7500 269.0000 327.0000 Du        
     14 ****       120.0000 268.2500 327.0000 Du        
     15 ****       120.0000 268.2500 327.2500 Du        
     16 ****       120.0000 268.5000 327.0000 Du        
     17 ****       120.0000 268.5000 327.2500 Du        
     18 ****       120.0000 268.7500 326.7500 Du        
     19 ****       120.0000 268.7500 327.0000 Du        
     20 ****       120.0000 268.7500 327.2500 Du        
     21 ****       120.0000 269.0000 327.0000 Du        
     22 ****       120.2500 268.2500 327.0000 Du        
     23 ****       120.2500 268.2500 327.2500 Du        
     24 ****       120.2500 268.5000 326.7500 Du        
     25 ****       120.2500 268.5000 327.0000 Du        
     26 ****       120.2500 268.5000 327.2500 Du        
     27 ****       120.2500 268.7500 326.7500 Du        
     28 ****       120.2500 268.7500 327.0000 Du        
     29 ****       120.2500 269.0000 327.0000 Du        
     30 ****       120.5000 268.2500 326.7500 Du        
     31 ****       120.5000 268.2500 327.0000 Du        
     32 ****       120.5000 268.2500 327.2500 Du        
     33 ****       120.5000 268.5000 326.7500 Du        
     34 ****       120.5000 268.5000 327.0000 Du        
     35 ****       120.5000 268.7500 326.7500 Du        
     36 ****       120.5000 268.7500 327.0000 Du        
     37 ****       120.7500 268.0000 327.0000 Du        
     38 ****       120.7500 268.2500 326.5000 Du        
     39 ****       120.7500 268.2500 326.7500 Du        
     40 ****       120.7500 268.2500 327.0000 Du        
     41 ****       120.7500 268.2500 327.2500 Du        
     42 ****       120.7500 268.5000 326.5000 Du        
     43 ****       120.7500 268.5000 326.7500 Du        
     44 ****       120.7500 268.5000 327.0000 Du        
     45 ****       120.7500 268.7500 326.7500 Du        
     46 ****       120.7500 268.7500 327.0000 Du        
     47 ****       121.0000 268.0000 326.7500 Du        
     48 ****       121.0000 268.0000 327.0000 Du        
     49 ****       121.0000 268.0000 327.2500 Du        
     50 ****       121.0000 268.2500 326.2500 Du        
     51 ****       121.0000 268.2500 326.5000 Du        
     52 ****       121.0000 268.2500 326.7500 Du        
     53 ****       121.0000 268.2500 327.0000 Du        
     54 ****       121.0000 268.2500 327.2500 Du        
     55 ****       121.0000 268.5000 326.5000 Du        
     56 ****       121.0000 268.5000 326.7500 Du        
     57 ****       121.0000 268.5000 327.0000 Du        
     58 ****       121.0000 268.7500 326.5000 Du        
     59 ****       121.0000 268.7500 326.7500 Du        
     60 ****       121.0000 268.7500 327.0000 Du        
     61 ****       121.2500 268.0000 326.2500 Du        
     62 ****       121.2500 268.0000 326.5000 Du        
     63 ****       121.2500 268.0000 326.7500 Du        
     64 ****       121.2500 268.0000 327.0000 Du        
     65 ****       121.2500 268.0000 327.2500 Du        
     66 ****       121.2500 268.2500 326.0000 Du        
     67 ****       121.2500 268.2500 326.2500 Du        
     68 ****       121.2500 268.2500 326.5000 Du        
     69 ****       121.2500 268.2500 326.7500 Du        
     70 ****       121.2500 268.2500 327.0000 Du        
     71 ****       121.2500 268.2500 327.2500 Du        
     72 ****       121.2500 268.5000 326.2500 Du        
     73 ****       121.2500 268.5000 326.5000 Du        
     74 ****       121.2500 268.5000 326.7500 Du        
     75 ****       121.2500 268.5000 327.0000 Du        
     76 ****       121.2500 268.7500 326.5000 Du        
     77 ****       121.2500 268.7500 326.7500 Du        
     78 ****       121.2500 268.7500 327.0000 Du        
     79 ****       121.5000 267.7500 326.2500 Du        
     80 ****       121.5000 267.7500 326.5000 Du        
     81 ****       121.5000 267.7500 326.7500 Du        
     82 ****       121.5000 268.0000 325.7500 Du        
     83 ****       121.5000 268.0000 326.0000 Du        
     84 ****       121.5000 268.0000 326.2500 Du        
     85 ****       121.5000 268.0000 326.5000 Du        
     86 ****       121.5000 268.0000 326.7500 Du        
     87 ****       121.5000 268.0000 327.0000 Du        
     88 ****       121.5000 268.2500 325.5000 Du        
     89 ****       121.5000 268.2500 325.7500 Du        
     90 ****       121.5000 268.2500 326.0000 Du        
     91 ****       121.5000 268.2500 326.2500 Du        
     92 ****       121.5000 268.2500 326.5000 Du        
     93 ****       121.5000 268.2500 326.7500 Du        
     94 ****       121.5000 268.2500 327.0000 Du        
     95 ****       121.5000 268.5000 326.0000 Du        
     96 ****       121.5000 268.5000 326.2500 Du        
     97 ****       121.5000 268.5000 326.5000 Du        
     98 ****       121.5000 268.5000 326.7500 Du        
     99 ****       121.5000 268.5000 327.0000 Du        
    100 ****       121.5000 268.7500 326.2500 Du        
    101 ****       121.5000 268.7500 326.5000 Du        
    102 ****       121.5000 268.7500 326.7500 Du        
    103 ****       121.5000 269.0000 326.5000 Du        
    104 ****       121.7500 267.7500 325.5000 Du        
    105 ****       121.7500 267.7500 325.7500 Du        
    106 ****       121.7500 267.7500 326.0000 Du        
    107 ****       121.7500 267.7500 326.2500 Du        
    108 ****       121.7500 267.7500 326.5000 Du        
    109 ****       121.7500 267.7500 326.7500 Du        
    110 ****       121.7500 268.0000 325.2500 Du        
    111 ****       121.7500 268.0000 325.5000 Du        
    112 ****       121.7500 268.0000 325.7500 Du        
    113 ****       121.7500 268.0000 326.0000 Du        
    114 ****       121.7500 268.0000 326.2500 Du        
    115 ****       121.7500 268.0000 326.5000 Du        
    116 ****       121.7500 268.0000 326.7500 Du        
    117 ****       121.7500 268.0000 327.0000 Du        
    118 ****       121.7500 268.2500 325.2500 Du        
    119 ****       121.7500 268.2500 325.5000 Du        
    120 ****       121.7500 268.2500 325.7500 Du        
    121 ****       121.7500 268.2500 326.0000 Du        
    122 ****       121.7500 268.2500 326.2500 Du        
    123 ****       121.7500 268.2500 326.5000 Du        
    124 ****       121.7500 268.2500 326.7500 Du        
    125 ****       121.7500 268.2500 327.0000 Du        
    126 ****       121.7500 268.5000 325.5000 Du        
    127 ****       121.7500 268.5000 325.7500 Du        
    128 ****       121.7500 268.5000 326.0000 Du        
    129 ****       121.7500 268.5000 326.2500 Du        
    130 ****       121.7500 268.5000 326.5000 Du        
    131 ****       121.7500 268.5000 326.7500 Du        
    132 ****       121.7500 268.5000 327.0000 Du        
    133 ****       121.7500 268.7500 326.0000 Du        
    134 ****       121.7500 268.7500 326.2500 Du        
    135 ****       121.7500 268.7500 326.5000 Du        
    136 ****       121.7500 268.7500 326.7500 Du        
    137 ****       121.7500 269.0000 326.2500 Du        
    138 ****       121.7500 269.0000 326.5000 Du        
    139 ****       121.7500 269.0000 326.7500 Du        
    140 ****       122.0000 267.5000 325.5000 Du        
    141 ****       122.0000 267.5000 325.7500 Du        
    142 ****       122.0000 267.5000 326.0000 Du        
    143 ****       122.0000 267.5000 326.2500 Du        
    144 ****       122.0000 267.5000 326.5000 Du        
    145 ****       122.0000 267.7500 325.2500 Du        
    146 ****       122.0000 267.7500 325.5000 Du        
    147 ****       122.0000 267.7500 325.7500 Du        
    148 ****       122.0000 267.7500 326.0000 Du        
    149 ****       122.0000 267.7500 326.2500 Du        
    150 ****       122.0000 267.7500 326.5000 Du        
    151 ****       122.0000 267.7500 326.7500 Du        
    152 ****       122.0000 268.0000 325.2500 Du        
    153 ****       122.0000 268.0000 325.5000 Du        
    154 ****       122.0000 268.0000 325.7500 Du        
    155 ****       122.0000 268.0000 326.0000 Du        
    156 ****       122.0000 268.0000 326.2500 Du        
    157 ****       122.0000 268.0000 326.5000 Du        
    158 ****       122.0000 268.0000 326.7500 Du        
    159 ****       122.0000 268.0000 327.0000 Du        
    160 ****       122.0000 268.2500 325.2500 Du        
    161 ****       122.0000 268.2500 325.5000 Du        
    162 ****       122.0000 268.2500 325.7500 Du        
    163 ****       122.0000 268.2500 326.0000 Du        
    164 ****       122.0000 268.2500 326.2500 Du        
    165 ****       122.0000 268.2500 326.5000 Du        
    166 ****       122.0000 268.2500 326.7500 Du        
    167 ****       122.0000 268.2500 327.0000 Du        
    168 ****       122.0000 268.5000 325.2500 Du        
    169 ****       122.0000 268.5000 325.5000 Du        
    170 ****       122.0000 268.5000 325.7500 Du        
    171 ****       122.0000 268.5000 326.0000 Du        
    172 ****       122.0000 268.5000 326.2500 Du        
    173 ****       122.0000 268.5000 326.5000 Du        
    174 ****       122.0000 268.5000 326.7500 Du        
    175 ****       122.0000 268.5000 327.0000 Du        
    176 ****       122.0000 268.7500 325.7500 Du        
    177 ****       122.0000 268.7500 326.0000 Du        
    178 ****       122.0000 268.7500 326.2500 Du        
    179 ****       122.0000 268.7500 326.5000 Du        
    180 ****       122.0000 268.7500 326.7500 Du        
    181 ****       122.0000 269.0000 326.0000 Du        
    182 ****       122.0000 269.0000 326.2500 Du        
    183 ****       122.0000 269.0000 326.5000 Du        
    184 ****       122.2500 267.2500 325.7500 Du        
    185 ****       122.2500 267.2500 326.0000 Du        
    186 ****       122.2500 267.2500 326.2500 Du        
    187 ****       122.2500 267.5000 325.5000 Du        
    188 ****       122.2500 267.5000 325.7500 Du        
    189 ****       122.2500 267.5000 326.0000 Du        
    190 ****       122.2500 267.5000 326.2500 Du        
    191 ****       122.2500 267.5000 326.5000 Du        
    192 ****       122.2500 267.7500 325.2500 Du        
    193 ****       122.2500 267.7500 325.5000 Du        
    194 ****       122.2500 267.7500 325.7500 Du        
    195 ****       122.2500 267.7500 326.0000 Du        
    196 ****       122.2500 267.7500 326.2500 Du        
    197 ****       122.2500 267.7500 326.5000 Du        
    198 ****       122.2500 267.7500 326.7500 Du        
    199 ****       122.2500 268.0000 325.2500 Du        
    200 ****       122.2500 268.0000 325.5000 Du        
    201 ****       122.2500 268.0000 325.7500 Du        
    202 ****       122.2500 268.0000 326.0000 Du        
    203 ****       122.2500 268.0000 326.2500 Du        
    204 ****       122.2500 268.0000 326.5000 Du        
    205 ****       122.2500 268.0000 326.7500 Du        
    206 ****       122.2500 268.0000 327.0000 Du        
    207 ****       122.2500 268.2500 325.2500 Du        
    208 ****       122.2500 268.2500 325.5000 Du        
    209 ****       122.2500 268.2500 325.7500 Du        
    210 ****       122.2500 268.2500 326.0000 Du        
    211 ****       122.2500 268.2500 326.2500 Du        
    212 ****       122.2500 268.2500 326.5000 Du        
    213 ****       122.2500 268.2500 326.7500 Du        
    214 ****       122.2500 268.2500 327.0000 Du        
    215 ****       122.2500 268.5000 325.2500 Du        
    216 ****       122.2500 268.5000 325.5000 Du        
    217 ****       122.2500 268.5000 325.7500 Du        
    218 ****       122.2500 268.5000 326.0000 Du        
    219 ****       122.2500 268.5000 326.2500 Du        
    220 ****       122.2500 268.5000 326.5000 Du        
    221 ****       122.2500 268.5000 326.7500 Du        
    222 ****       122.2500 268.7500 325.2500 Du        
    223 ****       122.2500 268.7500 325.5000 Du        
    224 ****       122.2500 268.7500 325.7500 Du        
    225 ****       122.2500 268.7500 326.0000 Du        
    226 ****       122.2500 268.7500 326.2500 Du        
    227 ****       122.2500 268.7500 326.5000 Du        
    228 ****       122.2500 268.7500 326.7500 Du        
    229 ****       122.2500 269.0000 325.7500 Du        
    230 ****       122.2500 269.0000 326.0000 Du        
    231 ****       122.2500 269.0000 326.2500 Du        
    232 ****       122.2500 269.0000 326.5000 Du        
    233 ****       122.2500 269.2500 326.0000 Du        
    234 ****       122.2500 269.2500 326.2500 Du        
    235 ****       122.5000 267.0000 325.5000 Du        
    236 ****       122.5000 267.0000 325.7500 Du        
    237 ****       122.5000 267.0000 326.0000 Du        
    238 ****       122.5000 267.2500 325.5000 Du        
    239 ****       122.5000 267.2500 325.7500 Du        
    240 ****       122.5000 267.2500 326.0000 Du        
    241 ****       122.5000 267.2500 326.2500 Du        
    242 ****       122.5000 267.5000 325.2500 Du        
    243 ****       122.5000 267.5000 325.5000 Du        
    244 ****       122.5000 267.5000 325.7500 Du        
    245 ****       122.5000 267.5000 326.0000 Du        
    246 ****       122.5000 267.5000 326.2500 Du        
    247 ****       122.5000 267.5000 326.5000 Du        
    248 ****       122.5000 267.7500 325.2500 Du        
    249 ****       122.5000 267.7500 325.5000 Du        
    250 ****       122.5000 267.7500 325.7500 Du        
    251 ****       122.5000 267.7500 326.0000 Du        
    252 ****       122.5000 267.7500 326.2500 Du        
    253 ****       122.5000 267.7500 326.5000 Du        
    254 ****       122.5000 267.7500 326.7500 Du        
    255 ****       122.5000 268.0000 325.2500 Du        
    256 ****       122.5000 268.0000 325.5000 Du        
    257 ****       122.5000 268.0000 325.7500 Du        
    258 ****       122.5000 268.0000 326.0000 Du        
    259 ****       122.5000 268.0000 326.2500 Du        
    260 ****       122.5000 268.0000 326.5000 Du        
    261 ****       122.5000 268.0000 326.7500 Du        
    262 ****       122.5000 268.2500 325.2500 Du        
    263 ****       122.5000 268.2500 325.5000 Du        
    264 ****       122.5000 268.2500 325.7500 Du        
    265 ****       122.5000 268.2500 326.0000 Du        
    266 ****       122.5000 268.2500 326.2500 Du        
    267 ****       122.5000 268.2500 326.5000 Du        
    268 ****       122.5000 268.2500 326.7500 Du        
    269 ****       122.5000 268.5000 325.2500 Du        
    270 ****       122.5000 268.5000 325.5000 Du        
    271 ****       122.5000 268.5000 325.7500 Du        
    272 ****       122.5000 268.5000 326.0000 Du        
    273 ****       122.5000 268.5000 326.2500 Du        
    274 ****       122.5000 268.5000 326.5000 Du        
    275 ****       122.5000 268.5000 326.7500 Du        
    276 ****       122.5000 268.7500 325.2500 Du        
    277 ****       122.5000 268.7500 325.5000 Du        
    278 ****       122.5000 268.7500 325.7500 Du        
    279 ****       122.5000 268.7500 326.0000 Du        
    280 ****       122.5000 268.7500 326.2500 Du        
    281 ****       122.5000 268.7500 326.5000 Du        
    282 ****       122.5000 269.0000 325.2500 Du        
    283 ****       122.5000 269.0000 325.5000 Du        
    284 ****       122.5000 269.0000 325.7500 Du        
    285 ****       122.5000 269.0000 326.0000 Du        
    286 ****       122.5000 269.0000 326.2500 Du        
    287 ****       122.5000 269.0000 326.5000 Du        
    288 ****       122.5000 269.2500 325.7500 Du        
    289 ****       122.5000 269.2500 326.0000 Du        
    290 ****       122.5000 269.2500 326.2500 Du        
    291 ****       122.7500 266.7500 325.5000 Du        
    292 ****       122.7500 266.7500 325.7500 Du        
    293 ****       122.7500 267.0000 325.5000 Du        
    294 ****       122.7500 267.0000 325.7500 Du        
    295 ****       122.7500 267.0000 326.0000 Du        
    296 ****       122.7500 267.0000 326.2500 Du        
    297 ****       122.7500 267.2500 325.2500 Du        
    298 ****       122.7500 267.2500 325.5000 Du        
    299 ****       122.7500 267.2500 325.7500 Du        
    300 ****       122.7500 267.2500 326.0000 Du        
    301 ****       122.7500 267.2500 326.2500 Du        
    302 ****       122.7500 267.5000 325.2500 Du        
    303 ****       122.7500 267.5000 325.5000 Du        
    304 ****       122.7500 267.5000 325.7500 Du        
    305 ****       122.7500 267.5000 326.0000 Du        
    306 ****       122.7500 267.5000 326.2500 Du        
    307 ****       122.7500 267.5000 326.5000 Du        
    308 ****       122.7500 267.7500 325.2500 Du        
    309 ****       122.7500 267.7500 325.5000 Du        
    310 ****       122.7500 267.7500 325.7500 Du        
    311 ****       122.7500 267.7500 326.0000 Du        
    312 ****       122.7500 267.7500 326.2500 Du        
    313 ****       122.7500 267.7500 326.5000 Du        
    314 ****       122.7500 267.7500 326.7500 Du        
    315 ****       122.7500 268.0000 325.2500 Du        
    316 ****       122.7500 268.0000 325.5000 Du        
    317 ****       122.7500 268.0000 325.7500 Du        
    318 ****       122.7500 268.0000 326.0000 Du        
    319 ****       122.7500 268.0000 326.2500 Du        
    320 ****       122.7500 268.0000 326.5000 Du        
    321 ****       122.7500 268.0000 326.7500 Du        
    322 ****       122.7500 268.2500 325.2500 Du        
    323 ****       122.7500 268.2500 325.5000 Du        
    324 ****       122.7500 268.2500 325.7500 Du        
    325 ****       122.7500 268.2500 326.0000 Du        
    326 ****       122.7500 268.2500 326.2500 Du        
    327 ****       122.7500 268.2500 326.5000 Du        
    328 ****       122.7500 268.2500 326.7500 Du        
    329 ****       122.7500 268.5000 325.2500 Du        
    330 ****       122.7500 268.5000 325.5000 Du        
    331 ****       122.7500 268.5000 325.7500 Du        
    332 ****       122.7500 268.5000 326.0000 Du        
    333 ****       122.7500 268.5000 326.2500 Du        
    334 ****       122.7500 268.5000 326.5000 Du        
    335 ****       122.7500 268.7500 325.2500 Du        
    336 ****       122.7500 268.7500 325.5000 Du        
    337 ****       122.7500 268.7500 325.7500 Du        
    338 ****       122.7500 268.7500 326.0000 Du        
    339 ****       122.7500 268.7500 326.2500 Du        
    340 ****       122.7500 268.7500 326.5000 Du        
    341 ****       122.7500 269.0000 325.2500 Du        
    342 ****       122.7500 269.0000 325.5000 Du        
    343 ****       122.7500 269.0000 325.7500 Du        
    344 ****       122.7500 269.0000 326.0000 Du        
    345 ****       122.7500 269.0000 326.2500 Du        
    346 ****       122.7500 269.2500 325.2500 Du        
    347 ****       122.7500 269.2500 325.5000 Du        
    348 ****       122.7500 269.2500 325.7500 Du        
    349 ****       122.7500 269.2500 326.0000 Du        
    350 ****       122.7500 269.2500 326.2500 Du        
    351 ****       123.0000 266.5000 325.5000 Du        
    352 ****       123.0000 266.5000 325.7500 Du        
    353 ****       123.0000 266.7500 325.2500 Du        
    354 ****       123.0000 266.7500 325.5000 Du        
    355 ****       123.0000 266.7500 325.7500 Du        
    356 ****       123.0000 266.7500 326.0000 Du        
    357 ****       123.0000 267.0000 325.2500 Du        
    358 ****       123.0000 267.0000 325.5000 Du        
    359 ****       123.0000 267.0000 325.7500 Du        
    360 ****       123.0000 267.0000 326.0000 Du        
    361 ****       123.0000 267.0000 326.2500 Du        
    362 ****       123.0000 267.2500 325.2500 Du        
    363 ****       123.0000 267.2500 325.5000 Du        
    364 ****       123.0000 267.2500 325.7500 Du        
    365 ****       123.0000 267.2500 326.0000 Du        
    366 ****       123.0000 267.2500 326.2500 Du        
    367 ****       123.0000 267.5000 325.2500 Du        
    368 ****       123.0000 267.5000 325.5000 Du        
    369 ****       123.0000 267.5000 325.7500 Du        
    370 ****       123.0000 267.5000 326.0000 Du        
    371 ****       123.0000 267.5000 326.2500 Du        
    372 ****       123.0000 267.5000 326.5000 Du        
    373 ****       123.0000 267.7500 325.2500 Du        
    374 ****       123.0000 267.7500 325.5000 Du        
    375 ****       123.0000 267.7500 325.7500 Du        
    376 ****       123.0000 267.7500 326.0000 Du        
    377 ****       123.0000 267.7500 326.2500 Du        
    378 ****       123.0000 267.7500 326.5000 Du        
    379 ****       123.0000 267.7500 326.7500 Du        
    380 ****       123.0000 268.0000 325.2500 Du        
    381 ****       123.0000 268.0000 325.5000 Du        
    382 ****       123.0000 268.0000 325.7500 Du        
    383 ****       123.0000 268.0000 326.0000 Du        
    384 ****       123.0000 268.0000 326.2500 Du        
    385 ****       123.0000 268.0000 326.5000 Du        
    386 ****       123.0000 268.0000 326.7500 Du        
    387 ****       123.0000 268.2500 325.2500 Du        
    388 ****       123.0000 268.2500 325.5000 Du        
    389 ****       123.0000 268.2500 325.7500 Du        
    390 ****       123.0000 268.2500 326.0000 Du        
    391 ****       123.0000 268.2500 326.2500 Du        
    392 ****       123.0000 268.2500 326.5000 Du        
    393 ****       123.0000 268.5000 325.2500 Du        
    394 ****       123.0000 268.5000 325.5000 Du        
    395 ****       123.0000 268.5000 325.7500 Du        
    396 ****       123.0000 268.5000 326.0000 Du        
    397 ****       123.0000 268.5000 326.2500 Du        
    398 ****       123.0000 268.5000 326.5000 Du        
    399 ****       123.0000 268.7500 325.2500 Du        
    400 ****       123.0000 268.7500 325.5000 Du        
    401 ****       123.0000 268.7500 325.7500 Du        
    402 ****       123.0000 268.7500 326.0000 Du        
    403 ****       123.0000 268.7500 326.2500 Du        
    404 ****       123.0000 269.0000 325.2500 Du        
    405 ****       123.0000 269.0000 325.5000 Du        
    406 ****       123.0000 269.0000 325.7500 Du        
    407 ****       123.0000 269.0000 326.0000 Du        
    408 ****       123.0000 269.0000 326.2500 Du        
    409 ****       123.0000 269.2500 325.2500 Du        
    410 ****       123.0000 269.2500 325.5000 Du        
    411 ****       123.0000 269.2500 325.7500 Du        
    412 ****       123.0000 269.2500 326.0000 Du        
    413 ****       123.0000 269.5000 325.5000 Du        
    414 ****       123.0000 269.5000 325.7500 Du        
    415 ****       123.0000 269.7500 325.7500 Du        
    416 ****       123.2500 266.2500 325.2500 Du        
    417 ****       123.2500 266.2500 325.5000 Du        
    418 ****       123.2500 266.2500 325.7500 Du        
    419 ****       123.2500 266.5000 325.2500 Du        
    420 ****       123.2500 266.5000 325.5000 Du        
    421 ****       123.2500 266.5000 325.7500 Du        
    422 ****       123.2500 266.5000 326.0000 Du        
    423 ****       123.2500 266.7500 325.2500 Du        
    424 ****       123.2500 266.7500 325.5000 Du        
    425 ****       123.2500 266.7500 325.7500 Du        
    426 ****       123.2500 266.7500 326.0000 Du        
    427 ****       123.2500 266.7500 326.2500 Du        
    428 ****       123.2500 267.0000 325.2500 Du        
    429 ****       123.2500 267.0000 325.5000 Du        
    430 ****       123.2500 267.0000 325.7500 Du        
    431 ****       123.2500 267.0000 326.0000 Du        
    432 ****       123.2500 267.0000 326.2500 Du        
    433 ****       123.2500 267.2500 325.2500 Du        
    434 ****       123.2500 267.2500 325.5000 Du        
    435 ****       123.2500 267.2500 325.7500 Du        
    436 ****       123.2500 267.2500 326.0000 Du        
    437 ****       123.2500 267.2500 326.2500 Du        
    438 ****       123.2500 267.2500 326.5000 Du        
    439 ****       123.2500 267.5000 325.2500 Du        
    440 ****       123.2500 267.5000 325.5000 Du        
    441 ****       123.2500 267.5000 325.7500 Du        
    442 ****       123.2500 267.5000 326.0000 Du        
    443 ****       123.2500 267.5000 326.2500 Du        
    444 ****       123.2500 267.5000 326.5000 Du        
    445 ****       123.2500 267.7500 325.2500 Du        
    446 ****       123.2500 267.7500 325.5000 Du        
    447 ****       123.2500 267.7500 325.7500 Du        
    448 ****       123.2500 267.7500 326.0000 Du        
    449 ****       123.2500 267.7500 326.2500 Du        
    450 ****       123.2500 267.7500 326.5000 Du        
    451 ****       123.2500 268.0000 325.2500 Du        
    452 ****       123.2500 268.0000 325.5000 Du        
    453 ****       123.2500 268.0000 325.7500 Du        
    454 ****       123.2500 268.0000 326.0000 Du        
    455 ****       123.2500 268.0000 326.2500 Du        
    456 ****       123.2500 268.0000 326.5000 Du        
    457 ****       123.2500 268.0000 326.7500 Du        
    458 ****       123.2500 268.2500 325.2500 Du        
    459 ****       123.2500 268.2500 325.5000 Du        
    460 ****       123.2500 268.2500 325.7500 Du        
    461 ****       123.2500 268.2500 326.0000 Du        
    462 ****       123.2500 268.2500 326.2500 Du        
    463 ****       123.2500 268.2500 326.5000 Du        
    464 ****       123.2500 268.5000 325.2500 Du        
    465 ****       123.2500 268.5000 325.5000 Du        
    466 ****       123.2500 268.5000 325.7500 Du        
    467 ****       123.2500 268.5000 326.0000 Du        
    468 ****       123.2500 268.5000 326.2500 Du        
    469 ****       123.2500 268.7500 325.2500 Du        
    470 ****       123.2500 268.7500 325.5000 Du        
    471 ****       123.2500 268.7500 325.7500 Du        
    472 ****       123.2500 268.7500 326.0000 Du        
    473 ****       123.2500 268.7500 326.2500 Du        
    474 ****       123.2500 269.0000 325.2500 Du        
    475 ****       123.2500 269.0000 325.5000 Du        
    476 ****       123.2500 269.0000 325.7500 Du        
    477 ****       123.2500 269.0000 326.0000 Du        
    478 ****       123.2500 269.2500 325.2500 Du        
    479 ****       123.2500 269.2500 325.5000 Du        
    480 ****       123.2500 269.2500 325.7500 Du        
    481 ****       123.2500 269.2500 326.0000 Du        
    482 ****       123.2500 269.5000 325.2500 Du        
    483 ****       123.2500 269.5000 325.5000 Du        
    484 ****       123.2500 269.5000 325.7500 Du        
    485 ****       123.2500 269.7500 325.0000 Du        
    486 ****       123.2500 269.7500 325.2500 Du        
    487 ****       123.2500 269.7500 325.5000 Du        
    488 ****       123.2500 269.7500 325.7500 Du        
    489 ****       123.2500 270.0000 325.0000 Du        
    490 ****       123.2500 270.0000 325.2500 Du        
    491 ****       123.5000 265.7500 325.2500 Du        
    492 ****       123.5000 266.0000 325.2500 Du        
    493 ****       123.5000 266.0000 325.5000 Du        
    494 ****       123.5000 266.0000 325.7500 Du        
    495 ****       123.5000 266.2500 325.2500 Du        
    496 ****       123.5000 266.2500 325.5000 Du        
    497 ****       123.5000 266.2500 325.7500 Du        
    498 ****       123.5000 266.5000 325.2500 Du        
    499 ****       123.5000 266.5000 325.5000 Du        
    500 ****       123.5000 266.5000 325.7500 Du        
    501 ****       123.5000 266.5000 326.0000 Du        
    502 ****       123.5000 266.7500 325.2500 Du        
    503 ****       123.5000 266.7500 325.5000 Du        
    504 ****       123.5000 266.7500 325.7500 Du        
    505 ****       123.5000 266.7500 326.0000 Du        
    506 ****       123.5000 266.7500 326.2500 Du        
    507 ****       123.5000 267.0000 325.2500 Du        
    508 ****       123.5000 267.0000 325.5000 Du        
    509 ****       123.5000 267.0000 325.7500 Du        
    510 ****       123.5000 267.0000 326.0000 Du        
    511 ****       123.5000 267.0000 326.2500 Du        
    512 ****       123.5000 267.2500 325.2500 Du        
    513 ****       123.5000 267.2500 325.5000 Du        
    514 ****       123.5000 267.2500 325.7500 Du        
    515 ****       123.5000 267.2500 326.0000 Du        
    516 ****       123.5000 267.2500 326.2500 Du        
    517 ****       123.5000 267.2500 326.5000 Du        
    518 ****       123.5000 267.5000 325.2500 Du        
    519 ****       123.5000 267.5000 325.5000 Du        
    520 ****       123.5000 267.5000 325.7500 Du        
    521 ****       123.5000 267.5000 326.0000 Du        
    522 ****       123.5000 267.5000 326.2500 Du        
    523 ****       123.5000 267.5000 326.5000 Du        
    524 ****       123.5000 267.7500 325.2500 Du        
    525 ****       123.5000 267.7500 325.5000 Du        
    526 ****       123.5000 267.7500 325.7500 Du        
    527 ****       123.5000 267.7500 326.0000 Du        
    528 ****       123.5000 267.7500 326.2500 Du        
    529 ****       123.5000 267.7500 326.5000 Du        
    530 ****       123.5000 268.0000 325.2500 Du        
    531 ****       123.5000 268.0000 325.5000 Du        
    532 ****       123.5000 268.0000 325.7500 Du        
    533 ****       123.5000 268.0000 326.0000 Du        
    534 ****       123.5000 268.0000 326.2500 Du        
    535 ****       123.5000 268.0000 326.5000 Du        
    536 ****       123.5000 268.2500 325.2500 Du        
    537 ****       123.5000 268.2500 325.5000 Du        
    538 ****       123.5000 268.2500 325.7500 Du        
    539 ****       123.5000 268.2500 326.0000 Du        
    540 ****       123.5000 268.2500 326.2500 Du        
    541 ****       123.5000 268.2500 326.5000 Du        
    542 ****       123.5000 268.5000 325.5000 Du        
    543 ****       123.5000 268.5000 325.7500 Du        
    544 ****       123.5000 268.5000 326.0000 Du        
    545 ****       123.5000 268.5000 326.2500 Du        
    546 ****       123.5000 268.7500 325.5000 Du        
    547 ****       123.5000 268.7500 325.7500 Du        
    548 ****       123.5000 268.7500 326.0000 Du        
    549 ****       123.5000 269.0000 325.5000 Du        
    550 ****       123.5000 269.0000 325.7500 Du        
    551 ****       123.5000 269.0000 326.0000 Du        
    552 ****       123.5000 269.2500 325.2500 Du        
    553 ****       123.5000 269.2500 325.5000 Du        
    554 ****       123.5000 269.2500 325.7500 Du        
    555 ****       123.5000 269.2500 326.0000 Du        
    556 ****       123.5000 269.7500 325.0000 Du        
    557 ****       123.5000 269.7500 325.2500 Du        
    558 ****       123.5000 270.0000 325.0000 Du        
    559 ****       123.5000 270.0000 325.2500 Du        
    560 ****       123.5000 270.2500 324.7500 Du        
    561 ****       123.5000 270.2500 325.0000 Du        
    562 ****       123.5000 270.2500 325.2500 Du        
    563 ****       123.5000 270.5000 325.2500 Du        
    564 ****       123.7500 265.5000 325.2500 Du        
    565 ****       123.7500 265.7500 325.0000 Du        
    566 ****       123.7500 265.7500 325.2500 Du        
    567 ****       123.7500 265.7500 325.5000 Du        
    568 ****       123.7500 266.0000 325.0000 Du        
    569 ****       123.7500 266.0000 325.2500 Du        
    570 ****       123.7500 266.0000 325.5000 Du        
    571 ****       123.7500 266.0000 325.7500 Du        
    572 ****       123.7500 266.2500 325.0000 Du        
    573 ****       123.7500 266.2500 325.2500 Du        
    574 ****       123.7500 266.2500 325.5000 Du        
    575 ****       123.7500 266.2500 325.7500 Du        
    576 ****       123.7500 266.2500 326.0000 Du        
    577 ****       123.7500 266.5000 325.0000 Du        
    578 ****       123.7500 266.5000 325.2500 Du        
    579 ****       123.7500 266.5000 325.5000 Du        
    580 ****       123.7500 266.5000 325.7500 Du        
    581 ****       123.7500 266.5000 326.0000 Du        
    582 ****       123.7500 266.5000 326.2500 Du        
    583 ****       123.7500 266.7500 325.0000 Du        
    584 ****       123.7500 266.7500 325.2500 Du        
    585 ****       123.7500 266.7500 325.5000 Du        
    586 ****       123.7500 266.7500 325.7500 Du        
    587 ****       123.7500 266.7500 326.0000 Du        
    588 ****       123.7500 266.7500 326.2500 Du        
    589 ****       123.7500 267.0000 325.2500 Du        
    590 ****       123.7500 267.0000 325.5000 Du        
    591 ****       123.7500 267.0000 325.7500 Du        
    592 ****       123.7500 267.0000 326.0000 Du        
    593 ****       123.7500 267.0000 326.2500 Du        
    594 ****       123.7500 267.0000 326.5000 Du        
    595 ****       123.7500 267.2500 325.2500 Du        
    596 ****       123.7500 267.2500 325.5000 Du        
    597 ****       123.7500 267.2500 325.7500 Du        
    598 ****       123.7500 267.2500 326.0000 Du        
    599 ****       123.7500 267.2500 326.2500 Du        
    600 ****       123.7500 267.2500 326.5000 Du        
    601 ****       123.7500 267.5000 325.2500 Du        
    602 ****       123.7500 267.5000 325.5000 Du        
    603 ****       123.7500 267.5000 325.7500 Du        
    604 ****       123.7500 267.5000 326.0000 Du        
    605 ****       123.7500 267.5000 326.2500 Du        
    606 ****       123.7500 267.5000 326.5000 Du        
    607 ****       123.7500 267.5000 326.7500 Du        
    608 ****       123.7500 267.7500 325.2500 Du        
    609 ****       123.7500 267.7500 325.5000 Du        
    610 ****       123.7500 267.7500 325.7500 Du        
    611 ****       123.7500 267.7500 326.0000 Du        
    612 ****       123.7500 267.7500 326.2500 Du        
    613 ****       123.7500 267.7500 326.5000 Du        
    614 ****       123.7500 267.7500 326.7500 Du        
    615 ****       123.7500 268.0000 325.2500 Du        
    616 ****       123.7500 268.0000 325.5000 Du        
    617 ****       123.7500 268.0000 325.7500 Du        
    618 ****       123.7500 268.0000 326.0000 Du        
    619 ****       123.7500 268.0000 326.2500 Du        
    620 ****       123.7500 268.0000 326.5000 Du        
    621 ****       123.7500 268.2500 325.2500 Du        
    622 ****       123.7500 268.2500 325.5000 Du        
    623 ****       123.7500 268.2500 325.7500 Du        
    624 ****       123.7500 268.2500 326.0000 Du        
    625 ****       123.7500 268.2500 326.2500 Du        
    626 ****       123.7500 268.5000 325.5000 Du        
    627 ****       123.7500 268.5000 325.7500 Du        
    628 ****       123.7500 268.5000 326.0000 Du        
    629 ****       123.7500 268.5000 326.2500 Du        
    630 ****       123.7500 268.7500 325.5000 Du        
    631 ****       123.7500 268.7500 325.7500 Du        
    632 ****       123.7500 268.7500 326.0000 Du        
    633 ****       123.7500 269.0000 325.2500 Du        
    634 ****       123.7500 269.0000 325.5000 Du        
    635 ****       123.7500 269.0000 325.7500 Du        
    636 ****       123.7500 269.0000 326.0000 Du        
    637 ****       123.7500 269.2500 325.2500 Du        
    638 ****       123.7500 269.2500 325.5000 Du        
    639 ****       123.7500 269.2500 325.7500 Du        
    640 ****       123.7500 269.5000 325.2500 Du        
    641 ****       123.7500 269.7500 325.0000 Du        
    642 ****       123.7500 269.7500 325.2500 Du        
    643 ****       123.7500 270.0000 325.0000 Du        
    644 ****       123.7500 270.0000 325.2500 Du        
    645 ****       123.7500 270.2500 324.7500 Du        
    646 ****       123.7500 270.2500 325.0000 Du        
    647 ****       123.7500 270.2500 325.2500 Du        
    648 ****       123.7500 270.5000 324.7500 Du        
    649 ****       123.7500 270.5000 325.0000 Du        
    650 ****       123.7500 270.5000 325.2500 Du        
    651 ****       123.7500 270.7500 324.7500 Du        
    652 ****       123.7500 270.7500 325.0000 Du        
    653 ****       123.7500 270.7500 325.2500 Du        
    654 ****       123.7500 271.0000 325.0000 Du        
    655 ****       123.7500 271.0000 325.2500 Du        
    656 ****       124.0000 265.7500 325.0000 Du        
    657 ****       124.0000 265.7500 325.2500 Du        
    658 ****       124.0000 265.7500 325.5000 Du        
    659 ****       124.0000 265.7500 325.7500 Du        
    660 ****       124.0000 266.0000 325.0000 Du        
    661 ****       124.0000 266.0000 325.2500 Du        
    662 ****       124.0000 266.0000 325.5000 Du        
    663 ****       124.0000 266.0000 325.7500 Du        
    664 ****       124.0000 266.0000 326.0000 Du        
    665 ****       124.0000 266.2500 325.0000 Du        
    666 ****       124.0000 266.2500 325.2500 Du        
    667 ****       124.0000 266.2500 325.5000 Du        
    668 ****       124.0000 266.2500 325.7500 Du        
    669 ****       124.0000 266.2500 326.0000 Du        
    670 ****       124.0000 266.2500 326.2500 Du        
    671 ****       124.0000 266.5000 325.0000 Du        
    672 ****       124.0000 266.5000 325.2500 Du        
    673 ****       124.0000 266.5000 325.5000 Du        
    674 ****       124.0000 266.5000 325.7500 Du        
    675 ****       124.0000 266.5000 326.0000 Du        
    676 ****       124.0000 266.5000 326.2500 Du        
    677 ****       124.0000 266.7500 325.0000 Du        
    678 ****       124.0000 266.7500 325.2500 Du        
    679 ****       124.0000 266.7500 325.5000 Du        
    680 ****       124.0000 266.7500 325.7500 Du        
    681 ****       124.0000 266.7500 326.0000 Du        
    682 ****       124.0000 266.7500 326.2500 Du        
    683 ****       124.0000 266.7500 326.5000 Du        
    684 ****       124.0000 267.0000 325.0000 Du        
    685 ****       124.0000 267.0000 325.2500 Du        
    686 ****       124.0000 267.0000 325.5000 Du        
    687 ****       124.0000 267.0000 325.7500 Du        
    688 ****       124.0000 267.0000 326.0000 Du        
    689 ****       124.0000 267.0000 326.2500 Du        
    690 ****       124.0000 267.0000 326.5000 Du        
    691 ****       124.0000 267.2500 325.2500 Du        
    692 ****       124.0000 267.2500 325.5000 Du        
    693 ****       124.0000 267.2500 325.7500 Du        
    694 ****       124.0000 267.2500 326.0000 Du        
    695 ****       124.0000 267.2500 326.2500 Du        
    696 ****       124.0000 267.2500 326.5000 Du        
    697 ****       124.0000 267.2500 326.7500 Du        
    698 ****       124.0000 267.5000 325.2500 Du        
    699 ****       124.0000 267.5000 325.5000 Du        
    700 ****       124.0000 267.5000 325.7500 Du        
    701 ****       124.0000 267.5000 326.0000 Du        
    702 ****       124.0000 267.5000 326.2500 Du        
    703 ****       124.0000 267.5000 326.5000 Du        
    704 ****       124.0000 267.5000 326.7500 Du        
    705 ****       124.0000 267.7500 325.2500 Du        
    706 ****       124.0000 267.7500 325.5000 Du        
    707 ****       124.0000 267.7500 325.7500 Du        
    708 ****       124.0000 267.7500 326.0000 Du        
    709 ****       124.0000 267.7500 326.2500 Du        
    710 ****       124.0000 267.7500 326.5000 Du        
    711 ****       124.0000 267.7500 326.7500 Du        
    712 ****       124.0000 268.0000 325.2500 Du        
    713 ****       124.0000 268.0000 325.5000 Du        
    714 ****       124.0000 268.0000 325.7500 Du        
    715 ****       124.0000 268.0000 326.0000 Du        
    716 ****       124.0000 268.0000 326.2500 Du        
    717 ****       124.0000 268.0000 326.5000 Du        
    718 ****       124.0000 268.2500 325.2500 Du        
    719 ****       124.0000 268.2500 325.5000 Du        
    720 ****       124.0000 268.2500 325.7500 Du        
    721 ****       124.0000 268.2500 326.0000 Du        
    722 ****       124.0000 268.2500 326.2500 Du        
    723 ****       124.0000 268.5000 325.5000 Du        
    724 ****       124.0000 268.5000 325.7500 Du        
    725 ****       124.0000 268.5000 326.0000 Du        
    726 ****       124.0000 268.7500 325.5000 Du        
    727 ****       124.0000 268.7500 325.7500 Du        
    728 ****       124.0000 268.7500 326.0000 Du        
    729 ****       124.0000 269.0000 325.2500 Du        
    730 ****       124.0000 269.0000 325.5000 Du        
    731 ****       124.0000 269.0000 325.7500 Du        
    732 ****       124.0000 269.2500 325.2500 Du        
    733 ****       124.0000 269.2500 325.5000 Du        
    734 ****       124.0000 269.7500 325.0000 Du        
    735 ****       124.0000 269.7500 325.2500 Du        
    736 ****       124.0000 270.0000 325.0000 Du        
    737 ****       124.0000 270.0000 325.2500 Du        
    738 ****       124.0000 270.2500 324.7500 Du        
    739 ****       124.0000 270.2500 325.0000 Du        
    740 ****       124.0000 270.2500 325.2500 Du        
    741 ****       124.0000 270.5000 324.7500 Du        
    742 ****       124.0000 270.5000 325.0000 Du        
    743 ****       124.0000 270.5000 325.2500 Du        
    744 ****       124.0000 270.7500 324.7500 Du        
    745 ****       124.0000 270.7500 325.0000 Du        
    746 ****       124.0000 270.7500 325.2500 Du        
    747 ****       124.0000 271.0000 324.7500 Du        
    748 ****       124.0000 271.0000 325.0000 Du        
    749 ****       124.0000 271.0000 325.2500 Du        
    750 ****       124.0000 271.2500 324.7500 Du        
    751 ****       124.0000 271.2500 325.0000 Du        
    752 ****       124.0000 271.2500 325.2500 Du        
    753 ****       124.2500 265.7500 325.2500 Du        
    754 ****       124.2500 265.7500 325.5000 Du        
    755 ****       124.2500 266.0000 325.0000 Du        
    756 ****       124.2500 266.0000 325.2500 Du        
    757 ****       124.2500 266.0000 325.5000 Du        
    758 ****       124.2500 266.0000 325.7500 Du        
    759 ****       124.2500 266.0000 326.0000 Du        
    760 ****       124.2500 266.2500 325.0000 Du        
    761 ****       124.2500 266.2500 325.2500 Du        
    762 ****       124.2500 266.2500 325.5000 Du        
    763 ****       124.2500 266.2500 325.7500 Du        
    764 ****       124.2500 266.2500 326.0000 Du        
    765 ****       124.2500 266.2500 326.2500 Du        
    766 ****       124.2500 266.5000 325.0000 Du        
    767 ****       124.2500 266.5000 325.2500 Du        
    768 ****       124.2500 266.5000 325.5000 Du        
    769 ****       124.2500 266.5000 325.7500 Du        
    770 ****       124.2500 266.5000 326.0000 Du        
    771 ****       124.2500 266.5000 326.2500 Du        
    772 ****       124.2500 266.5000 326.5000 Du        
    773 ****       124.2500 266.7500 325.0000 Du        
    774 ****       124.2500 266.7500 325.2500 Du        
    775 ****       124.2500 266.7500 325.5000 Du        
    776 ****       124.2500 266.7500 325.7500 Du        
    777 ****       124.2500 266.7500 326.0000 Du        
    778 ****       124.2500 266.7500 326.2500 Du        
    779 ****       124.2500 266.7500 326.5000 Du        
    780 ****       124.2500 267.0000 325.0000 Du        
    781 ****       124.2500 267.0000 325.2500 Du        
    782 ****       124.2500 267.0000 325.5000 Du        
    783 ****       124.2500 267.0000 325.7500 Du        
    784 ****       124.2500 267.0000 326.0000 Du        
    785 ****       124.2500 267.0000 326.2500 Du        
    786 ****       124.2500 267.0000 326.5000 Du        
    787 ****       124.2500 267.0000 326.7500 Du        
    788 ****       124.2500 267.2500 325.2500 Du        
    789 ****       124.2500 267.2500 325.5000 Du        
    790 ****       124.2500 267.2500 325.7500 Du        
    791 ****       124.2500 267.2500 326.0000 Du        
    792 ****       124.2500 267.2500 326.2500 Du        
    793 ****       124.2500 267.2500 326.5000 Du        
    794 ****       124.2500 267.2500 326.7500 Du        
    795 ****       124.2500 267.5000 325.2500 Du        
    796 ****       124.2500 267.5000 325.5000 Du        
    797 ****       124.2500 267.5000 325.7500 Du        
    798 ****       124.2500 267.5000 326.0000 Du        
    799 ****       124.2500 267.5000 326.2500 Du        
    800 ****       124.2500 267.5000 326.5000 Du        
    801 ****       124.2500 267.5000 326.7500 Du        
    802 ****       124.2500 267.7500 325.2500 Du        
    803 ****       124.2500 267.7500 325.5000 Du        
    804 ****       124.2500 267.7500 325.7500 Du        
    805 ****       124.2500 267.7500 326.0000 Du        
    806 ****       124.2500 267.7500 326.2500 Du        
    807 ****       124.2500 267.7500 326.5000 Du        
    808 ****       124.2500 267.7500 326.7500 Du        
    809 ****       124.2500 268.0000 325.2500 Du        
    810 ****       124.2500 268.0000 325.5000 Du        
    811 ****       124.2500 268.0000 325.7500 Du        
    812 ****       124.2500 268.0000 326.0000 Du        
    813 ****       124.2500 268.0000 326.2500 Du        
    814 ****       124.2500 268.0000 326.5000 Du        
    815 ****       124.2500 268.2500 325.2500 Du        
    816 ****       124.2500 268.2500 325.5000 Du        
    817 ****       124.2500 268.2500 325.7500 Du        
    818 ****       124.2500 268.2500 326.0000 Du        
    819 ****       124.2500 268.2500 326.2500 Du        
    820 ****       124.2500 268.5000 325.5000 Du        
    821 ****       124.2500 268.5000 325.7500 Du        
    822 ****       124.2500 268.5000 326.0000 Du        
    823 ****       124.2500 268.7500 325.5000 Du        
    824 ****       124.2500 268.7500 325.7500 Du        
    825 ****       124.2500 268.7500 326.0000 Du        
    826 ****       124.2500 269.0000 325.5000 Du        
    827 ****       124.2500 269.0000 325.7500 Du        
    828 ****       124.2500 269.7500 325.2500 Du        
    829 ****       124.2500 270.0000 325.0000 Du        
    830 ****       124.2500 270.0000 325.2500 Du        
    831 ****       124.2500 270.2500 325.0000 Du        
    832 ****       124.2500 270.2500 325.2500 Du        
    833 ****       124.2500 270.5000 325.0000 Du        
    834 ****       124.2500 270.5000 325.2500 Du        
    835 ****       124.2500 270.7500 324.7500 Du        
    836 ****       124.2500 270.7500 325.0000 Du        
    837 ****       124.2500 270.7500 325.2500 Du        
    838 ****       124.2500 271.0000 324.7500 Du        
    839 ****       124.2500 271.0000 325.0000 Du        
    840 ****       124.2500 271.0000 325.2500 Du        
    841 ****       124.2500 271.2500 324.7500 Du        
    842 ****       124.2500 271.2500 325.0000 Du        
    843 ****       124.2500 271.5000 324.7500 Du        
    844 ****       124.2500 271.5000 325.0000 Du        
    845 ****       124.2500 271.7500 324.2500 Du        
    846 ****       124.2500 272.5000 323.2500 Du        
    847 ****       124.2500 272.7500 323.0000 Du        
    848 ****       124.2500 272.7500 323.2500 Du        
    849 ****       124.2500 272.7500 323.7500 Du        
    850 ****       124.5000 266.0000 325.2500 Du        
    851 ****       124.5000 266.0000 325.5000 Du        
    852 ****       124.5000 266.0000 325.7500 Du        
    853 ****       124.5000 266.2500 325.0000 Du        
    854 ****       124.5000 266.2500 325.2500 Du        
    855 ****       124.5000 266.2500 325.5000 Du        
    856 ****       124.5000 266.2500 325.7500 Du        
    857 ****       124.5000 266.2500 326.0000 Du        
    858 ****       124.5000 266.2500 326.2500 Du        
    859 ****       124.5000 266.5000 325.2500 Du        
    860 ****       124.5000 266.5000 325.5000 Du        
    861 ****       124.5000 266.5000 325.7500 Du        
    862 ****       124.5000 266.5000 326.0000 Du        
    863 ****       124.5000 266.5000 326.2500 Du        
    864 ****       124.5000 266.5000 326.5000 Du        
    865 ****       124.5000 266.7500 325.0000 Du        
    866 ****       124.5000 266.7500 325.2500 Du        
    867 ****       124.5000 266.7500 325.5000 Du        
    868 ****       124.5000 266.7500 325.7500 Du        
    869 ****       124.5000 266.7500 326.0000 Du        
    870 ****       124.5000 266.7500 326.2500 Du        
    871 ****       124.5000 266.7500 326.5000 Du        
    872 ****       124.5000 266.7500 326.7500 Du        
    873 ****       124.5000 267.0000 325.2500 Du        
    874 ****       124.5000 267.0000 325.5000 Du        
    875 ****       124.5000 267.0000 325.7500 Du        
    876 ****       124.5000 267.0000 326.0000 Du        
    877 ****       124.5000 267.0000 326.2500 Du        
    878 ****       124.5000 267.0000 326.5000 Du        
    879 ****       124.5000 267.0000 326.7500 Du        
    880 ****       124.5000 267.0000 327.0000 Du        
    881 ****       124.5000 267.2500 325.2500 Du        
    882 ****       124.5000 267.2500 325.5000 Du        
    883 ****       124.5000 267.2500 325.7500 Du        
    884 ****       124.5000 267.2500 326.0000 Du        
    885 ****       124.5000 267.2500 326.2500 Du        
    886 ****       124.5000 267.2500 326.5000 Du        
    887 ****       124.5000 267.2500 326.7500 Du        
    888 ****       124.5000 267.2500 327.0000 Du        
    889 ****       124.5000 267.5000 325.2500 Du        
    890 ****       124.5000 267.5000 325.5000 Du        
    891 ****       124.5000 267.5000 325.7500 Du        
    892 ****       124.5000 267.5000 326.0000 Du        
    893 ****       124.5000 267.5000 326.2500 Du        
    894 ****       124.5000 267.5000 326.5000 Du        
    895 ****       124.5000 267.5000 326.7500 Du        
    896 ****       124.5000 267.5000 327.0000 Du        
    897 ****       124.5000 267.7500 325.2500 Du        
    898 ****       124.5000 267.7500 325.5000 Du        
    899 ****       124.5000 267.7500 325.7500 Du        
    900 ****       124.5000 267.7500 326.0000 Du        
    901 ****       124.5000 267.7500 326.2500 Du        
    902 ****       124.5000 267.7500 326.5000 Du        
    903 ****       124.5000 267.7500 326.7500 Du        
    904 ****       124.5000 268.0000 325.2500 Du        
    905 ****       124.5000 268.0000 325.5000 Du        
    906 ****       124.5000 268.0000 325.7500 Du        
    907 ****       124.5000 268.0000 326.0000 Du        
    908 ****       124.5000 268.0000 326.2500 Du        
    909 ****       124.5000 268.0000 326.5000 Du        
    910 ****       124.5000 268.2500 325.2500 Du        
    911 ****       124.5000 268.2500 325.5000 Du        
    912 ****       124.5000 268.2500 325.7500 Du        
    913 ****       124.5000 268.2500 326.0000 Du        
    914 ****       124.5000 268.2500 326.2500 Du        
    915 ****       124.5000 268.5000 325.5000 Du        
    916 ****       124.5000 268.5000 325.7500 Du        
    917 ****       124.5000 268.5000 326.0000 Du        
    918 ****       124.5000 268.7500 325.5000 Du        
    919 ****       124.5000 268.7500 325.7500 Du        
    920 ****       124.5000 269.0000 325.5000 Du        
    921 ****       124.5000 269.0000 325.7500 Du        
    922 ****       124.5000 269.2500 325.5000 Du        
    923 ****       124.5000 270.0000 325.2500 Du        
    924 ****       124.5000 270.5000 325.0000 Du        
    925 ****       124.5000 270.7500 325.0000 Du        
    926 ****       124.5000 271.5000 324.7500 Du        
    927 ****       124.5000 271.5000 325.0000 Du        
    928 ****       124.5000 271.7500 325.0000 Du        
    929 ****       124.5000 272.2500 324.0000 Du        
    930 ****       124.5000 272.5000 323.2500 Du        
    931 ****       124.5000 272.5000 323.7500 Du        
    932 ****       124.5000 272.7500 323.0000 Du        
    933 ****       124.5000 272.7500 323.2500 Du        
    934 ****       124.5000 272.7500 323.5000 Du        
    935 ****       124.5000 272.7500 323.7500 Du        
    936 ****       124.5000 272.7500 324.0000 Du        
    937 ****       124.7500 266.2500 325.0000 Du        
    938 ****       124.7500 266.2500 325.2500 Du        
    939 ****       124.7500 266.2500 325.5000 Du        
    940 ****       124.7500 266.2500 325.7500 Du        
    941 ****       124.7500 266.2500 326.0000 Du        
    942 ****       124.7500 266.2500 326.2500 Du        
    943 ****       124.7500 266.5000 325.0000 Du        
    944 ****       124.7500 266.5000 325.2500 Du        
    945 ****       124.7500 266.5000 325.5000 Du        
    946 ****       124.7500 266.5000 325.7500 Du        
    947 ****       124.7500 266.5000 326.0000 Du        
    948 ****       124.7500 266.5000 326.2500 Du        
    949 ****       124.7500 266.5000 326.5000 Du        
    950 ****       124.7500 266.7500 325.0000 Du        
    951 ****       124.7500 266.7500 325.2500 Du        
    952 ****       124.7500 266.7500 325.5000 Du        
    953 ****       124.7500 266.7500 325.7500 Du        
    954 ****       124.7500 266.7500 326.0000 Du        
    955 ****       124.7500 266.7500 326.2500 Du        
    956 ****       124.7500 266.7500 326.5000 Du        
    957 ****       124.7500 266.7500 326.7500 Du        
    958 ****       124.7500 267.0000 325.0000 Du        
    959 ****       124.7500 267.0000 325.2500 Du        
    960 ****       124.7500 267.0000 325.5000 Du        
    961 ****       124.7500 267.0000 325.7500 Du        
    962 ****       124.7500 267.0000 326.0000 Du        
    963 ****       124.7500 267.0000 326.2500 Du        
    964 ****       124.7500 267.0000 326.5000 Du        
    965 ****       124.7500 267.0000 326.7500 Du        
    966 ****       124.7500 267.0000 327.0000 Du        
    967 ****       124.7500 267.2500 325.2500 Du        
    968 ****       124.7500 267.2500 325.5000 Du        
    969 ****       124.7500 267.2500 325.7500 Du        
    970 ****       124.7500 267.2500 326.0000 Du        
    971 ****       124.7500 267.2500 326.2500 Du        
    972 ****       124.7500 267.2500 326.5000 Du        
    973 ****       124.7500 267.2500 326.7500 Du        
    974 ****       124.7500 267.2500 327.0000 Du        
    975 ****       124.7500 267.5000 325.2500 Du        
    976 ****       124.7500 267.5000 325.5000 Du        
    977 ****       124.7500 267.5000 325.7500 Du        
    978 ****       124.7500 267.5000 326.0000 Du        
    979 ****       124.7500 267.5000 326.2500 Du        
    980 ****       124.7500 267.5000 326.5000 Du        
    981 ****       124.7500 267.5000 326.7500 Du        
    982 ****       124.7500 267.5000 327.0000 Du        
    983 ****       124.7500 267.7500 325.2500 Du        
    984 ****       124.7500 267.7500 325.5000 Du        
    985 ****       124.7500 267.7500 325.7500 Du        
    986 ****       124.7500 267.7500 326.0000 Du        
    987 ****       124.7500 267.7500 326.2500 Du        
    988 ****       124.7500 267.7500 326.5000 Du        
    989 ****       124.7500 267.7500 326.7500 Du        
    990 ****       124.7500 268.0000 325.2500 Du        
    991 ****       124.7500 268.0000 325.5000 Du        
    992 ****       124.7500 268.0000 325.7500 Du        
    993 ****       124.7500 268.0000 326.0000 Du        
    994 ****       124.7500 268.0000 326.2500 Du        
    995 ****       124.7500 268.0000 326.5000 Du        
    996 ****       124.7500 268.2500 325.2500 Du        
    997 ****       124.7500 268.2500 325.5000 Du        
    998 ****       124.7500 268.2500 325.7500 Du        
    999 ****       124.7500 268.2500 326.0000 Du        
   1000 ****       124.7500 268.2500 326.2500 Du        
   1001 ****       124.7500 268.5000 325.5000 Du        
   1002 ****       124.7500 268.5000 325.7500 Du        
   1003 ****       124.7500 268.5000 326.0000 Du        
   1004 ****       124.7500 268.7500 325.5000 Du        
   1005 ****       124.7500 268.7500 325.7500 Du        
   1006 ****       124.7500 268.7500 326.0000 Du        
   1007 ****       124.7500 269.0000 325.5000 Du        
   1008 ****       124.7500 269.0000 325.7500 Du        
   1009 ****       124.7500 269.2500 325.5000 Du        
   1010 ****       124.7500 271.5000 325.0000 Du        
   1011 ****       124.7500 272.2500 324.0000 Du        
   1012 ****       124.7500 272.5000 323.2500 Du        
   1013 ****       124.7500 272.5000 323.7500 Du        
   1014 ****       124.7500 272.5000 324.0000 Du        
   1015 ****       124.7500 272.7500 322.7500 Du        
   1016 ****       124.7500 272.7500 323.0000 Du        
   1017 ****       124.7500 272.7500 323.2500 Du        
   1018 ****       124.7500 272.7500 323.5000 Du        
   1019 ****       124.7500 272.7500 323.7500 Du        
   1020 ****       124.7500 272.7500 324.0000 Du        
   1021 ****       125.0000 266.2500 325.2500 Du        
   1022 ****       125.0000 266.2500 325.5000 Du        
   1023 ****       125.0000 266.2500 325.7500 Du        
   1024 ****       125.0000 266.2500 326.0000 Du        
   1025 ****       125.0000 266.2500 326.2500 Du        
   1026 ****       125.0000 266.5000 325.0000 Du        
   1027 ****       125.0000 266.5000 325.2500 Du        
   1028 ****       125.0000 266.5000 325.5000 Du        
   1029 ****       125.0000 266.5000 325.7500 Du        
   1030 ****       125.0000 266.5000 326.0000 Du        
   1031 ****       125.0000 266.5000 326.2500 Du        
   1032 ****       125.0000 266.5000 326.5000 Du        
   1033 ****       125.0000 266.5000 326.7500 Du        
   1034 ****       125.0000 266.7500 325.0000 Du        
   1035 ****       125.0000 266.7500 325.2500 Du        
   1036 ****       125.0000 266.7500 325.5000 Du        
   1037 ****       125.0000 266.7500 325.7500 Du        
   1038 ****       125.0000 266.7500 326.0000 Du        
   1039 ****       125.0000 266.7500 326.2500 Du        
   1040 ****       125.0000 266.7500 326.5000 Du        
   1041 ****       125.0000 266.7500 326.7500 Du        
   1042 ****       125.0000 267.0000 325.0000 Du        
   1043 ****       125.0000 267.0000 325.2500 Du        
   1044 ****       125.0000 267.0000 325.5000 Du        
   1045 ****       125.0000 267.0000 325.7500 Du        
   1046 ****       125.0000 267.0000 326.0000 Du        
   1047 ****       125.0000 267.0000 326.2500 Du        
   1048 ****       125.0000 267.0000 326.5000 Du        
   1049 ****       125.0000 267.0000 326.7500 Du        
   1050 ****       125.0000 267.0000 327.0000 Du        
   1051 ****       125.0000 267.2500 325.0000 Du        
   1052 ****       125.0000 267.2500 325.2500 Du        
   1053 ****       125.0000 267.2500 325.5000 Du        
   1054 ****       125.0000 267.2500 325.7500 Du        
   1055 ****       125.0000 267.2500 326.0000 Du        
   1056 ****       125.0000 267.2500 326.2500 Du        
   1057 ****       125.0000 267.2500 326.5000 Du        
   1058 ****       125.0000 267.2500 326.7500 Du        
   1059 ****       125.0000 267.2500 327.0000 Du        
   1060 ****       125.0000 267.5000 325.2500 Du        
   1061 ****       125.0000 267.5000 325.5000 Du        
   1062 ****       125.0000 267.5000 325.7500 Du        
   1063 ****       125.0000 267.5000 326.0000 Du        
   1064 ****       125.0000 267.5000 326.2500 Du        
   1065 ****       125.0000 267.5000 326.5000 Du        
   1066 ****       125.0000 267.5000 326.7500 Du        
   1067 ****       125.0000 267.5000 327.0000 Du        
   1068 ****       125.0000 267.7500 325.2500 Du        
   1069 ****       125.0000 267.7500 325.5000 Du        
   1070 ****       125.0000 267.7500 325.7500 Du        
   1071 ****       125.0000 267.7500 326.0000 Du        
   1072 ****       125.0000 267.7500 326.2500 Du        
   1073 ****       125.0000 267.7500 326.5000 Du        
   1074 ****       125.0000 267.7500 326.7500 Du        
   1075 ****       125.0000 267.7500 327.0000 Du        
   1076 ****       125.0000 268.0000 325.2500 Du        
   1077 ****       125.0000 268.0000 325.5000 Du        
   1078 ****       125.0000 268.0000 325.7500 Du        
   1079 ****       125.0000 268.0000 326.0000 Du        
   1080 ****       125.0000 268.0000 326.2500 Du        
   1081 ****       125.0000 268.0000 326.5000 Du        
   1082 ****       125.0000 268.0000 326.7500 Du        
   1083 ****       125.0000 268.2500 325.2500 Du        
   1084 ****       125.0000 268.2500 325.5000 Du        
   1085 ****       125.0000 268.2500 325.7500 Du        
   1086 ****       125.0000 268.2500 326.0000 Du        
   1087 ****       125.0000 268.2500 326.2500 Du        
   1088 ****       125.0000 268.5000 325.5000 Du        
   1089 ****       125.0000 268.5000 325.7500 Du        
   1090 ****       125.0000 268.5000 326.0000 Du        
   1091 ****       125.0000 268.7500 325.5000 Du        
   1092 ****       125.0000 268.7500 325.7500 Du        
   1093 ****       125.0000 268.7500 326.0000 Du        
   1094 ****       125.0000 269.0000 325.5000 Du        
   1095 ****       125.0000 269.0000 325.7500 Du        
   1096 ****       125.0000 269.2500 325.2500 Du        
   1097 ****       125.0000 269.2500 325.5000 Du        
   1098 ****       125.0000 272.2500 324.0000 Du        
   1099 ****       125.0000 272.5000 323.2500 Du        
   1100 ****       125.0000 272.5000 323.7500 Du        
   1101 ****       125.0000 272.5000 324.0000 Du        
   1102 ****       125.0000 272.7500 323.0000 Du        
   1103 ****       125.0000 272.7500 323.2500 Du        
   1104 ****       125.0000 272.7500 323.5000 Du        
   1105 ****       125.0000 272.7500 323.7500 Du        
   1106 ****       125.0000 272.7500 324.0000 Du        
   1107 ****       125.2500 266.5000 325.2500 Du        
   1108 ****       125.2500 266.5000 325.5000 Du        
   1109 ****       125.2500 266.5000 325.7500 Du        
   1110 ****       125.2500 266.5000 326.0000 Du        
   1111 ****       125.2500 266.5000 326.2500 Du        
   1112 ****       125.2500 266.5000 326.5000 Du        
   1113 ****       125.2500 266.7500 325.0000 Du        
   1114 ****       125.2500 266.7500 325.2500 Du        
   1115 ****       125.2500 266.7500 325.5000 Du        
   1116 ****       125.2500 266.7500 325.7500 Du        
   1117 ****       125.2500 266.7500 326.0000 Du        
   1118 ****       125.2500 266.7500 326.2500 Du        
   1119 ****       125.2500 266.7500 326.5000 Du        
   1120 ****       125.2500 266.7500 326.7500 Du        
   1121 ****       125.2500 267.0000 325.0000 Du        
   1122 ****       125.2500 267.0000 325.2500 Du        
   1123 ****       125.2500 267.0000 325.5000 Du        
   1124 ****       125.2500 267.0000 325.7500 Du        
   1125 ****       125.2500 267.0000 326.0000 Du        
   1126 ****       125.2500 267.0000 326.2500 Du        
   1127 ****       125.2500 267.0000 326.5000 Du        
   1128 ****       125.2500 267.0000 326.7500 Du        
   1129 ****       125.2500 267.0000 327.0000 Du        
   1130 ****       125.2500 267.2500 325.0000 Du        
   1131 ****       125.2500 267.2500 325.2500 Du        
   1132 ****       125.2500 267.2500 325.5000 Du        
   1133 ****       125.2500 267.2500 325.7500 Du        
   1134 ****       125.2500 267.2500 326.0000 Du        
   1135 ****       125.2500 267.2500 326.2500 Du        
   1136 ****       125.2500 267.2500 326.5000 Du        
   1137 ****       125.2500 267.2500 326.7500 Du        
   1138 ****       125.2500 267.2500 327.0000 Du        
   1139 ****       125.2500 267.5000 325.2500 Du        
   1140 ****       125.2500 267.5000 325.5000 Du        
   1141 ****       125.2500 267.5000 325.7500 Du        
   1142 ****       125.2500 267.5000 326.0000 Du        
   1143 ****       125.2500 267.5000 326.2500 Du        
   1144 ****       125.2500 267.5000 326.5000 Du        
   1145 ****       125.2500 267.5000 326.7500 Du        
   1146 ****       125.2500 267.5000 327.0000 Du        
   1147 ****       125.2500 267.7500 325.2500 Du        
   1148 ****       125.2500 267.7500 325.5000 Du        
   1149 ****       125.2500 267.7500 325.7500 Du        
   1150 ****       125.2500 267.7500 326.0000 Du        
   1151 ****       125.2500 267.7500 326.2500 Du        
   1152 ****       125.2500 267.7500 326.5000 Du        
   1153 ****       125.2500 267.7500 326.7500 Du        
   1154 ****       125.2500 267.7500 327.0000 Du        
   1155 ****       125.2500 268.0000 325.2500 Du        
   1156 ****       125.2500 268.0000 325.5000 Du        
   1157 ****       125.2500 268.0000 325.7500 Du        
   1158 ****       125.2500 268.0000 326.0000 Du        
   1159 ****       125.2500 268.0000 326.2500 Du        
   1160 ****       125.2500 268.0000 326.5000 Du        
   1161 ****       125.2500 268.0000 326.7500 Du        
   1162 ****       125.2500 268.2500 325.2500 Du        
   1163 ****       125.2500 268.2500 325.5000 Du        
   1164 ****       125.2500 268.2500 325.7500 Du        
   1165 ****       125.2500 268.2500 326.0000 Du        
   1166 ****       125.2500 268.2500 326.2500 Du        
   1167 ****       125.2500 268.5000 325.5000 Du        
   1168 ****       125.2500 268.5000 325.7500 Du        
   1169 ****       125.2500 268.5000 326.0000 Du        
   1170 ****       125.2500 268.7500 325.5000 Du        
   1171 ****       125.2500 268.7500 325.7500 Du        
   1172 ****       125.2500 269.0000 325.5000 Du        
   1173 ****       125.2500 269.2500 325.5000 Du        
   1174 ****       125.2500 272.2500 324.0000 Du        
   1175 ****       125.2500 272.7500 323.0000 Du        
   1176 ****       125.2500 272.7500 323.2500 Du        
   1177 ****       125.2500 272.7500 323.5000 Du        
   1178 ****       125.2500 272.7500 323.7500 Du        
   1179 ****       125.5000 266.5000 326.0000 Du        
   1180 ****       125.5000 266.5000 326.2500 Du        
   1181 ****       125.5000 266.7500 325.0000 Du        
   1182 ****       125.5000 266.7500 325.2500 Du        
   1183 ****       125.5000 266.7500 325.5000 Du        
   1184 ****       125.5000 266.7500 325.7500 Du        
   1185 ****       125.5000 266.7500 326.0000 Du        
   1186 ****       125.5000 266.7500 326.2500 Du        
   1187 ****       125.5000 266.7500 326.5000 Du        
   1188 ****       125.5000 267.0000 325.0000 Du        
   1189 ****       125.5000 267.0000 325.2500 Du        
   1190 ****       125.5000 267.0000 325.5000 Du        
   1191 ****       125.5000 267.0000 325.7500 Du        
   1192 ****       125.5000 267.0000 326.0000 Du        
   1193 ****       125.5000 267.0000 326.2500 Du        
   1194 ****       125.5000 267.0000 326.5000 Du        
   1195 ****       125.5000 267.0000 326.7500 Du        
   1196 ****       125.5000 267.2500 325.0000 Du        
   1197 ****       125.5000 267.2500 325.2500 Du        
   1198 ****       125.5000 267.2500 325.5000 Du        
   1199 ****       125.5000 267.2500 325.7500 Du        
   1200 ****       125.5000 267.2500 326.0000 Du        
   1201 ****       125.5000 267.2500 326.2500 Du        
   1202 ****       125.5000 267.2500 326.5000 Du        
   1203 ****       125.5000 267.2500 326.7500 Du        
   1204 ****       125.5000 267.5000 325.2500 Du        
   1205 ****       125.5000 267.5000 325.5000 Du        
   1206 ****       125.5000 267.5000 325.7500 Du        
   1207 ****       125.5000 267.5000 326.0000 Du        
   1208 ****       125.5000 267.5000 326.2500 Du        
   1209 ****       125.5000 267.5000 326.5000 Du        
   1210 ****       125.5000 267.5000 326.7500 Du        
   1211 ****       125.5000 267.5000 327.0000 Du        
   1212 ****       125.5000 267.7500 325.2500 Du        
   1213 ****       125.5000 267.7500 325.5000 Du        
   1214 ****       125.5000 267.7500 325.7500 Du        
   1215 ****       125.5000 267.7500 326.0000 Du        
   1216 ****       125.5000 267.7500 326.2500 Du        
   1217 ****       125.5000 267.7500 326.5000 Du        
   1218 ****       125.5000 267.7500 326.7500 Du        
   1219 ****       125.5000 268.0000 325.2500 Du        
   1220 ****       125.5000 268.0000 325.5000 Du        
   1221 ****       125.5000 268.0000 325.7500 Du        
   1222 ****       125.5000 268.0000 326.0000 Du        
   1223 ****       125.5000 268.0000 326.2500 Du        
   1224 ****       125.5000 268.0000 326.5000 Du        
   1225 ****       125.5000 268.0000 326.7500 Du        
   1226 ****       125.5000 268.2500 325.5000 Du        
   1227 ****       125.5000 268.2500 325.7500 Du        
   1228 ****       125.5000 268.2500 326.0000 Du        
   1229 ****       125.5000 268.2500 326.2500 Du        
   1230 ****       125.5000 272.5000 323.7500 Du        
   1231 ****       125.5000 272.7500 323.0000 Du        
   1232 ****       125.5000 272.7500 323.2500 Du        
   1233 ****       125.5000 272.7500 323.5000 Du        
   1234 ****       125.5000 272.7500 323.7500 Du        
   1235 ****       125.7500 266.7500 325.0000 Du        
   1236 ****       125.7500 266.7500 325.2500 Du        
   1237 ****       125.7500 266.7500 325.5000 Du        
   1238 ****       125.7500 266.7500 325.7500 Du        
   1239 ****       125.7500 266.7500 326.0000 Du        
   1240 ****       125.7500 266.7500 326.2500 Du        
   1241 ****       125.7500 266.7500 326.5000 Du        
   1242 ****       125.7500 267.0000 325.0000 Du        
   1243 ****       125.7500 267.0000 325.2500 Du        
   1244 ****       125.7500 267.0000 325.5000 Du        
   1245 ****       125.7500 267.0000 325.7500 Du        
   1246 ****       125.7500 267.0000 326.0000 Du        
   1247 ****       125.7500 267.0000 326.2500 Du        
   1248 ****       125.7500 267.0000 326.5000 Du        
   1249 ****       125.7500 267.2500 325.0000 Du        
   1250 ****       125.7500 267.2500 325.2500 Du        
   1251 ****       125.7500 267.2500 325.5000 Du        
   1252 ****       125.7500 267.2500 325.7500 Du        
   1253 ****       125.7500 267.2500 326.0000 Du        
   1254 ****       125.7500 267.2500 326.2500 Du        
   1255 ****       125.7500 267.2500 326.5000 Du        
   1256 ****       125.7500 267.2500 326.7500 Du        
   1257 ****       125.7500 267.5000 325.0000 Du        
   1258 ****       125.7500 267.5000 325.2500 Du        
   1259 ****       125.7500 267.5000 325.5000 Du        
   1260 ****       125.7500 267.5000 325.7500 Du        
   1261 ****       125.7500 267.5000 326.0000 Du        
   1262 ****       125.7500 267.5000 326.2500 Du        
   1263 ****       125.7500 267.5000 326.5000 Du        
   1264 ****       125.7500 267.5000 326.7500 Du        
   1265 ****       125.7500 267.7500 325.2500 Du        
   1266 ****       125.7500 267.7500 325.5000 Du        
   1267 ****       125.7500 267.7500 325.7500 Du        
   1268 ****       125.7500 267.7500 326.0000 Du        
   1269 ****       125.7500 267.7500 326.2500 Du        
   1270 ****       125.7500 267.7500 326.5000 Du        
   1271 ****       125.7500 267.7500 326.7500 Du        
   1272 ****       125.7500 268.0000 325.2500 Du        
   1273 ****       125.7500 268.0000 325.5000 Du        
   1274 ****       125.7500 268.0000 325.7500 Du        
   1275 ****       125.7500 268.0000 326.0000 Du        
   1276 ****       125.7500 268.0000 326.2500 Du        
   1277 ****       125.7500 268.0000 326.5000 Du        
   1278 ****       125.7500 268.0000 326.7500 Du        
   1279 ****       125.7500 268.2500 325.2500 Du        
   1280 ****       125.7500 268.2500 325.5000 Du        
   1281 ****       125.7500 268.2500 325.7500 Du        
   1282 ****       125.7500 268.2500 326.0000 Du        
   1283 ****       125.7500 268.2500 326.2500 Du        
   1284 ****       125.7500 272.7500 323.0000 Du        
   1285 ****       125.7500 272.7500 323.2500 Du        
   1286 ****       125.7500 272.7500 323.5000 Du        
   1287 ****       125.7500 272.7500 323.7500 Du        
   1288 ****       126.0000 266.7500 324.7500 Du        
   1289 ****       126.0000 266.7500 325.0000 Du        
   1290 ****       126.0000 266.7500 325.2500 Du        
   1291 ****       126.0000 266.7500 325.5000 Du        
   1292 ****       126.0000 266.7500 325.7500 Du        
   1293 ****       126.0000 266.7500 326.0000 Du        
   1294 ****       126.0000 266.7500 326.2500 Du        
   1295 ****       126.0000 267.0000 324.7500 Du        
   1296 ****       126.0000 267.0000 325.0000 Du        
   1297 ****       126.0000 267.0000 325.2500 Du        
   1298 ****       126.0000 267.0000 325.5000 Du        
   1299 ****       126.0000 267.0000 325.7500 Du        
   1300 ****       126.0000 267.0000 326.0000 Du        
   1301 ****       126.0000 267.0000 326.2500 Du        
   1302 ****       126.0000 267.0000 326.5000 Du        
   1303 ****       126.0000 267.2500 325.0000 Du        
   1304 ****       126.0000 267.2500 325.2500 Du        
   1305 ****       126.0000 267.2500 325.5000 Du        
   1306 ****       126.0000 267.2500 325.7500 Du        
   1307 ****       126.0000 267.2500 326.0000 Du        
   1308 ****       126.0000 267.2500 326.2500 Du        
   1309 ****       126.0000 267.2500 326.5000 Du        
   1310 ****       126.0000 267.2500 326.7500 Du        
   1311 ****       126.0000 267.5000 325.0000 Du        
   1312 ****       126.0000 267.5000 325.2500 Du        
   1313 ****       126.0000 267.5000 325.5000 Du        
   1314 ****       126.0000 267.5000 325.7500 Du        
   1315 ****       126.0000 267.5000 326.0000 Du        
   1316 ****       126.0000 267.5000 326.2500 Du        
   1317 ****       126.0000 267.5000 326.5000 Du        
   1318 ****       126.0000 267.5000 326.7500 Du        
   1319 ****       126.0000 267.7500 325.0000 Du        
   1320 ****       126.0000 267.7500 325.2500 Du        
   1321 ****       126.0000 267.7500 325.5000 Du        
   1322 ****       126.0000 267.7500 325.7500 Du        
   1323 ****       126.0000 267.7500 326.0000 Du        
   1324 ****       126.0000 267.7500 326.2500 Du        
   1325 ****       126.0000 267.7500 326.5000 Du        
   1326 ****       126.0000 267.7500 326.7500 Du        
   1327 ****       126.0000 268.0000 325.2500 Du        
   1328 ****       126.0000 268.0000 325.5000 Du        
   1329 ****       126.0000 268.0000 325.7500 Du        
   1330 ****       126.0000 268.0000 326.0000 Du        
   1331 ****       126.0000 268.0000 326.2500 Du        
   1332 ****       126.0000 268.0000 326.5000 Du        
   1333 ****       126.0000 268.2500 325.2500 Du        
   1334 ****       126.0000 268.2500 325.5000 Du        
   1335 ****       126.0000 268.2500 325.7500 Du        
   1336 ****       126.0000 268.2500 326.0000 Du        
   1337 ****       126.0000 268.2500 326.2500 Du        
   1338 ****       126.0000 272.5000 323.5000 Du        
   1339 ****       126.0000 272.7500 323.0000 Du        
   1340 ****       126.0000 272.7500 323.2500 Du        
   1341 ****       126.0000 272.7500 323.5000 Du        
   1342 ****       126.0000 272.7500 323.7500 Du        
   1343 ****       126.2500 266.7500 324.7500 Du        
   1344 ****       126.2500 266.7500 325.0000 Du        
   1345 ****       126.2500 266.7500 325.2500 Du        
   1346 ****       126.2500 266.7500 325.5000 Du        
   1347 ****       126.2500 266.7500 325.7500 Du        
   1348 ****       126.2500 266.7500 326.0000 Du        
   1349 ****       126.2500 266.7500 326.2500 Du        
   1350 ****       126.2500 267.0000 324.7500 Du        
   1351 ****       126.2500 267.0000 325.0000 Du        
   1352 ****       126.2500 267.0000 325.2500 Du        
   1353 ****       126.2500 267.0000 325.5000 Du        
   1354 ****       126.2500 267.0000 325.7500 Du        
   1355 ****       126.2500 267.0000 326.0000 Du        
   1356 ****       126.2500 267.0000 326.2500 Du        
   1357 ****       126.2500 267.0000 326.5000 Du        
   1358 ****       126.2500 267.2500 324.7500 Du        
   1359 ****       126.2500 267.2500 325.0000 Du        
   1360 ****       126.2500 267.2500 325.2500 Du        
   1361 ****       126.2500 267.2500 325.5000 Du        
   1362 ****       126.2500 267.2500 325.7500 Du        
   1363 ****       126.2500 267.2500 326.0000 Du        
   1364 ****       126.2500 267.2500 326.2500 Du        
   1365 ****       126.2500 267.2500 326.5000 Du        
   1366 ****       126.2500 267.5000 325.0000 Du        
   1367 ****       126.2500 267.5000 325.2500 Du        
   1368 ****       126.2500 267.5000 325.5000 Du        
   1369 ****       126.2500 267.5000 325.7500 Du        
   1370 ****       126.2500 267.5000 326.0000 Du        
   1371 ****       126.2500 267.5000 326.2500 Du        
   1372 ****       126.2500 267.5000 326.5000 Du        
   1373 ****       126.2500 267.5000 326.7500 Du        
   1374 ****       126.2500 267.7500 325.0000 Du        
   1375 ****       126.2500 267.7500 325.2500 Du        
   1376 ****       126.2500 267.7500 325.5000 Du        
   1377 ****       126.2500 267.7500 325.7500 Du        
   1378 ****       126.2500 267.7500 326.0000 Du        
   1379 ****       126.2500 267.7500 326.2500 Du        
   1380 ****       126.2500 267.7500 326.5000 Du        
   1381 ****       126.2500 267.7500 326.7500 Du        
   1382 ****       126.2500 268.0000 325.2500 Du        
   1383 ****       126.2500 268.0000 325.5000 Du        
   1384 ****       126.2500 268.0000 325.7500 Du        
   1385 ****       126.2500 268.0000 326.0000 Du        
   1386 ****       126.2500 268.0000 326.2500 Du        
   1387 ****       126.2500 268.0000 326.5000 Du        
   1388 ****       126.2500 268.2500 325.5000 Du        
   1389 ****       126.2500 268.2500 325.7500 Du        
   1390 ****       126.2500 268.2500 326.0000 Du        
   1391 ****       126.2500 272.5000 323.5000 Du        
   1392 ****       126.2500 272.5000 323.7500 Du        
   1393 ****       126.2500 272.7500 323.0000 Du        
   1394 ****       126.2500 272.7500 323.2500 Du        
   1395 ****       126.2500 272.7500 323.5000 Du        
   1396 ****       126.2500 272.7500 323.7500 Du        
   1397 ****       126.5000 266.7500 324.5000 Du        
   1398 ****       126.5000 266.7500 324.7500 Du        
   1399 ****       126.5000 266.7500 325.0000 Du        
   1400 ****       126.5000 266.7500 325.5000 Du        
   1401 ****       126.5000 266.7500 325.7500 Du        
   1402 ****       126.5000 266.7500 326.0000 Du        
   1403 ****       126.5000 267.0000 324.5000 Du        
   1404 ****       126.5000 267.0000 324.7500 Du        
   1405 ****       126.5000 267.0000 325.0000 Du        
   1406 ****       126.5000 267.0000 325.2500 Du        
   1407 ****       126.5000 267.0000 325.5000 Du        
   1408 ****       126.5000 267.0000 325.7500 Du        
   1409 ****       126.5000 267.0000 326.0000 Du        
   1410 ****       126.5000 267.0000 326.2500 Du        
   1411 ****       126.5000 267.2500 324.7500 Du        
   1412 ****       126.5000 267.2500 325.0000 Du        
   1413 ****       126.5000 267.2500 325.2500 Du        
   1414 ****       126.5000 267.2500 325.5000 Du        
   1415 ****       126.5000 267.2500 325.7500 Du        
   1416 ****       126.5000 267.2500 326.0000 Du        
   1417 ****       126.5000 267.2500 326.2500 Du        
   1418 ****       126.5000 267.2500 326.5000 Du        
   1419 ****       126.5000 267.5000 325.0000 Du        
   1420 ****       126.5000 267.5000 325.2500 Du        
   1421 ****       126.5000 267.5000 325.5000 Du        
   1422 ****       126.5000 267.5000 325.7500 Du        
   1423 ****       126.5000 267.5000 326.0000 Du        
   1424 ****       126.5000 267.5000 326.2500 Du        
   1425 ****       126.5000 267.5000 326.5000 Du        
   1426 ****       126.5000 267.7500 325.2500 Du        
   1427 ****       126.5000 267.7500 325.5000 Du        
   1428 ****       126.5000 267.7500 325.7500 Du        
   1429 ****       126.5000 267.7500 326.0000 Du        
   1430 ****       126.5000 267.7500 326.2500 Du        
   1431 ****       126.5000 267.7500 326.5000 Du        
   1432 ****       126.5000 267.7500 326.7500 Du        
   1433 ****       126.5000 268.0000 325.5000 Du        
   1434 ****       126.5000 268.0000 325.7500 Du        
   1435 ****       126.5000 268.0000 326.0000 Du        
   1436 ****       126.5000 268.0000 326.2500 Du        
   1437 ****       126.5000 268.0000 326.5000 Du        
   1438 ****       126.5000 268.2500 325.7500 Du        
   1439 ****       126.5000 268.2500 326.0000 Du        
   1440 ****       126.5000 272.7500 323.0000 Du        
   1441 ****       126.5000 272.7500 323.2500 Du        
   1442 ****       126.7500 266.2500 324.0000 Du        
   1443 ****       126.7500 266.7500 324.2500 Du        
   1444 ****       126.7500 266.7500 324.5000 Du        
   1445 ****       126.7500 266.7500 324.7500 Du        
   1446 ****       126.7500 266.7500 325.0000 Du        
   1447 ****       126.7500 266.7500 325.2500 Du        
   1448 ****       126.7500 266.7500 325.5000 Du        
   1449 ****       126.7500 266.7500 325.7500 Du        
   1450 ****       126.7500 266.7500 326.0000 Du        
   1451 ****       126.7500 267.0000 324.5000 Du        
   1452 ****       126.7500 267.0000 324.7500 Du        
   1453 ****       126.7500 267.0000 325.0000 Du        
   1454 ****       126.7500 267.0000 325.2500 Du        
   1455 ****       126.7500 267.0000 325.5000 Du        
   1456 ****       126.7500 267.0000 325.7500 Du        
   1457 ****       126.7500 267.0000 326.0000 Du        
   1458 ****       126.7500 267.0000 326.2500 Du        
   1459 ****       126.7500 267.2500 324.5000 Du        
   1460 ****       126.7500 267.2500 324.7500 Du        
   1461 ****       126.7500 267.2500 325.0000 Du        
   1462 ****       126.7500 267.2500 325.2500 Du        
   1463 ****       126.7500 267.2500 325.5000 Du        
   1464 ****       126.7500 267.2500 325.7500 Du        
   1465 ****       126.7500 267.2500 326.0000 Du        
   1466 ****       126.7500 267.2500 326.2500 Du        
   1467 ****       126.7500 267.2500 326.5000 Du        
   1468 ****       126.7500 267.5000 325.0000 Du        
   1469 ****       126.7500 267.5000 325.2500 Du        
   1470 ****       126.7500 267.5000 325.5000 Du        
   1471 ****       126.7500 267.5000 325.7500 Du        
   1472 ****       126.7500 267.5000 326.0000 Du        
   1473 ****       126.7500 267.5000 326.2500 Du        
   1474 ****       126.7500 267.5000 326.5000 Du        
   1475 ****       126.7500 267.7500 325.0000 Du        
   1476 ****       126.7500 267.7500 325.2500 Du        
   1477 ****       126.7500 267.7500 325.5000 Du        
   1478 ****       126.7500 267.7500 325.7500 Du        
   1479 ****       126.7500 267.7500 326.0000 Du        
   1480 ****       126.7500 267.7500 326.2500 Du        
   1481 ****       126.7500 267.7500 326.5000 Du        
   1482 ****       126.7500 268.0000 325.2500 Du        
   1483 ****       126.7500 268.0000 325.5000 Du        
   1484 ****       126.7500 268.0000 325.7500 Du        
   1485 ****       126.7500 268.0000 326.0000 Du        
   1486 ****       126.7500 268.0000 326.2500 Du        
   1487 ****       126.7500 268.0000 326.5000 Du        
   1488 ****       126.7500 268.2500 326.0000 Du        
   1489 ****       126.7500 272.7500 323.0000 Du        
   1490 ****       126.7500 272.7500 323.2500 Du        
   1491 ****       127.0000 265.7500 323.7500 Du        
   1492 ****       127.0000 266.0000 323.5000 Du        
   1493 ****       127.0000 266.0000 323.7500 Du        
   1494 ****       127.0000 266.0000 324.0000 Du        
   1495 ****       127.0000 266.2500 323.7500 Du        
   1496 ****       127.0000 266.2500 324.0000 Du        
   1497 ****       127.0000 266.2500 324.2500 Du        
   1498 ****       127.0000 266.5000 323.7500 Du        
   1499 ****       127.0000 266.5000 324.0000 Du        
   1500 ****       127.0000 266.5000 324.2500 Du        
   1501 ****       127.0000 266.7500 324.0000 Du        
   1502 ****       127.0000 266.7500 324.2500 Du        
   1503 ****       127.0000 266.7500 324.5000 Du        
   1504 ****       127.0000 266.7500 324.7500 Du        
   1505 ****       127.0000 266.7500 325.0000 Du        
   1506 ****       127.0000 266.7500 325.2500 Du        
   1507 ****       127.0000 266.7500 325.5000 Du        
   1508 ****       127.0000 266.7500 325.7500 Du        
   1509 ****       127.0000 266.7500 326.0000 Du        
   1510 ****       127.0000 267.0000 324.0000 Du        
   1511 ****       127.0000 267.0000 324.5000 Du        
   1512 ****       127.0000 267.0000 324.7500 Du        
   1513 ****       127.0000 267.0000 325.0000 Du        
   1514 ****       127.0000 267.0000 325.2500 Du        
   1515 ****       127.0000 267.0000 325.5000 Du        
   1516 ****       127.0000 267.0000 325.7500 Du        
   1517 ****       127.0000 267.0000 326.0000 Du        
   1518 ****       127.0000 267.0000 326.2500 Du        
   1519 ****       127.0000 267.2500 324.5000 Du        
   1520 ****       127.0000 267.2500 324.7500 Du        
   1521 ****       127.0000 267.2500 325.0000 Du        
   1522 ****       127.0000 267.2500 325.2500 Du        
   1523 ****       127.0000 267.2500 325.5000 Du        
   1524 ****       127.0000 267.2500 325.7500 Du        
   1525 ****       127.0000 267.2500 326.0000 Du        
   1526 ****       127.0000 267.2500 326.2500 Du        
   1527 ****       127.0000 267.2500 326.5000 Du        
   1528 ****       127.0000 267.5000 325.0000 Du        
   1529 ****       127.0000 267.5000 325.2500 Du        
   1530 ****       127.0000 267.5000 325.5000 Du        
   1531 ****       127.0000 267.5000 325.7500 Du        
   1532 ****       127.0000 267.5000 326.0000 Du        
   1533 ****       127.0000 267.5000 326.2500 Du        
   1534 ****       127.0000 267.5000 326.5000 Du        
   1535 ****       127.0000 267.7500 325.0000 Du        
   1536 ****       127.0000 267.7500 325.2500 Du        
   1537 ****       127.0000 267.7500 325.5000 Du        
   1538 ****       127.0000 267.7500 325.7500 Du        
   1539 ****       127.0000 267.7500 326.0000 Du        
   1540 ****       127.0000 267.7500 326.2500 Du        
   1541 ****       127.0000 267.7500 326.5000 Du        
   1542 ****       127.0000 268.0000 325.7500 Du        
   1543 ****       127.0000 268.0000 326.0000 Du        
   1544 ****       127.0000 268.0000 326.2500 Du        
   1545 ****       127.0000 268.0000 326.5000 Du        
   1546 ****       127.0000 272.7500 323.0000 Du        
   1547 ****       127.0000 272.7500 323.2500 Du        
   1548 ****       127.2500 265.5000 323.5000 Du        
   1549 ****       127.2500 265.7500 323.2500 Du        
   1550 ****       127.2500 265.7500 323.5000 Du        
   1551 ****       127.2500 265.7500 323.7500 Du        
   1552 ****       127.2500 265.7500 324.0000 Du        
   1553 ****       127.2500 266.0000 323.2500 Du        
   1554 ****       127.2500 266.0000 323.5000 Du        
   1555 ****       127.2500 266.0000 323.7500 Du        
   1556 ****       127.2500 266.0000 324.0000 Du        
   1557 ****       127.2500 266.0000 324.2500 Du        
   1558 ****       127.2500 266.2500 323.5000 Du        
   1559 ****       127.2500 266.2500 323.7500 Du        
   1560 ****       127.2500 266.2500 324.0000 Du        
   1561 ****       127.2500 266.2500 324.2500 Du        
   1562 ****       127.2500 266.5000 323.5000 Du        
   1563 ****       127.2500 266.5000 323.7500 Du        
   1564 ****       127.2500 266.5000 324.0000 Du        
   1565 ****       127.2500 266.5000 324.2500 Du        
   1566 ****       127.2500 266.5000 324.5000 Du        
   1567 ****       127.2500 266.7500 323.7500 Du        
   1568 ****       127.2500 266.7500 324.0000 Du        
   1569 ****       127.2500 266.7500 324.2500 Du        
   1570 ****       127.2500 266.7500 324.5000 Du        
   1571 ****       127.2500 266.7500 324.7500 Du        
   1572 ****       127.2500 266.7500 325.0000 Du        
   1573 ****       127.2500 266.7500 325.2500 Du        
   1574 ****       127.2500 266.7500 325.5000 Du        
   1575 ****       127.2500 266.7500 325.7500 Du        
   1576 ****       127.2500 266.7500 326.0000 Du        
   1577 ****       127.2500 267.0000 324.0000 Du        
   1578 ****       127.2500 267.0000 324.2500 Du        
   1579 ****       127.2500 267.0000 324.5000 Du        
   1580 ****       127.2500 267.0000 324.7500 Du        
   1581 ****       127.2500 267.0000 325.0000 Du        
   1582 ****       127.2500 267.0000 325.2500 Du        
   1583 ****       127.2500 267.0000 325.5000 Du        
   1584 ****       127.2500 267.0000 325.7500 Du        
   1585 ****       127.2500 267.0000 326.0000 Du        
   1586 ****       127.2500 267.0000 326.2500 Du        
   1587 ****       127.2500 267.2500 324.5000 Du        
   1588 ****       127.2500 267.2500 324.7500 Du        
   1589 ****       127.2500 267.2500 325.0000 Du        
   1590 ****       127.2500 267.2500 325.2500 Du        
   1591 ****       127.2500 267.2500 325.5000 Du        
   1592 ****       127.2500 267.2500 325.7500 Du        
   1593 ****       127.2500 267.2500 326.0000 Du        
   1594 ****       127.2500 267.2500 326.2500 Du        
   1595 ****       127.2500 267.5000 325.2500 Du        
   1596 ****       127.2500 267.5000 325.5000 Du        
   1597 ****       127.2500 267.5000 325.7500 Du        
   1598 ****       127.2500 267.5000 326.0000 Du        
   1599 ****       127.2500 267.5000 326.2500 Du        
   1600 ****       127.2500 267.5000 326.5000 Du        
   1601 ****       127.2500 267.7500 325.2500 Du        
   1602 ****       127.2500 267.7500 325.5000 Du        
   1603 ****       127.2500 267.7500 325.7500 Du        
   1604 ****       127.2500 267.7500 326.0000 Du        
   1605 ****       127.2500 267.7500 326.2500 Du        
   1606 ****       127.2500 267.7500 326.5000 Du        
   1607 ****       127.2500 267.7500 326.7500 Du        
   1608 ****       127.2500 268.0000 326.0000 Du        
   1609 ****       127.2500 268.0000 326.2500 Du        
   1610 ****       127.2500 268.0000 326.5000 Du        
   1611 ****       127.2500 268.0000 326.7500 Du        
   1612 ****       127.2500 272.7500 323.0000 Du        
   1613 ****       127.2500 272.7500 323.2500 Du        
   1614 ****       127.5000 265.2500 323.2500 Du        
   1615 ****       127.5000 265.2500 323.5000 Du        
   1616 ****       127.5000 265.5000 323.2500 Du        
   1617 ****       127.5000 265.5000 323.5000 Du        
   1618 ****       127.5000 265.5000 323.7500 Du        
   1619 ****       127.5000 265.7500 323.2500 Du        
   1620 ****       127.5000 265.7500 323.5000 Du        
   1621 ****       127.5000 265.7500 323.7500 Du        
   1622 ****       127.5000 265.7500 324.0000 Du        
   1623 ****       127.5000 266.0000 323.0000 Du        
   1624 ****       127.5000 266.0000 323.2500 Du        
   1625 ****       127.5000 266.0000 323.5000 Du        
   1626 ****       127.5000 266.0000 323.7500 Du        
   1627 ****       127.5000 266.0000 324.0000 Du        
   1628 ****       127.5000 266.0000 324.2500 Du        
   1629 ****       127.5000 266.2500 323.2500 Du        
   1630 ****       127.5000 266.2500 323.5000 Du        
   1631 ****       127.5000 266.2500 323.7500 Du        
   1632 ****       127.5000 266.2500 324.0000 Du        
   1633 ****       127.5000 266.2500 324.2500 Du        
   1634 ****       127.5000 266.2500 324.5000 Du        
   1635 ****       127.5000 266.5000 323.2500 Du        
   1636 ****       127.5000 266.5000 323.5000 Du        
   1637 ****       127.5000 266.5000 323.7500 Du        
   1638 ****       127.5000 266.5000 324.0000 Du        
   1639 ****       127.5000 266.5000 324.2500 Du        
   1640 ****       127.5000 266.5000 324.5000 Du        
   1641 ****       127.5000 266.7500 323.2500 Du        
   1642 ****       127.5000 266.7500 323.5000 Du        
   1643 ****       127.5000 266.7500 323.7500 Du        
   1644 ****       127.5000 266.7500 324.0000 Du        
   1645 ****       127.5000 266.7500 324.2500 Du        
   1646 ****       127.5000 266.7500 324.5000 Du        
   1647 ****       127.5000 266.7500 324.7500 Du        
   1648 ****       127.5000 266.7500 325.0000 Du        
   1649 ****       127.5000 266.7500 325.7500 Du        
   1650 ****       127.5000 267.0000 323.7500 Du        
   1651 ****       127.5000 267.0000 324.0000 Du        
   1652 ****       127.5000 267.0000 324.2500 Du        
   1653 ****       127.5000 267.0000 324.5000 Du        
   1654 ****       127.5000 267.0000 324.7500 Du        
   1655 ****       127.5000 267.0000 325.0000 Du        
   1656 ****       127.5000 267.0000 325.5000 Du        
   1657 ****       127.5000 267.0000 325.7500 Du        
   1658 ****       127.5000 267.0000 326.0000 Du        
   1659 ****       127.5000 267.0000 326.2500 Du        
   1660 ****       127.5000 267.2500 324.2500 Du        
   1661 ****       127.5000 267.2500 324.5000 Du        
   1662 ****       127.5000 267.2500 324.7500 Du        
   1663 ****       127.5000 267.2500 325.0000 Du        
   1664 ****       127.5000 267.2500 325.5000 Du        
   1665 ****       127.5000 267.2500 325.7500 Du        
   1666 ****       127.5000 267.2500 326.0000 Du        
   1667 ****       127.5000 267.2500 326.2500 Du        
   1668 ****       127.5000 267.5000 325.7500 Du        
   1669 ****       127.5000 267.5000 326.0000 Du        
   1670 ****       127.5000 267.7500 325.7500 Du        
   1671 ****       127.5000 272.7500 323.0000 Du        
   1672 ****       127.5000 272.7500 323.2500 Du        
   1673 ****       127.7500 265.2500 323.0000 Du        
   1674 ****       127.7500 265.2500 323.2500 Du        
   1675 ****       127.7500 265.2500 323.5000 Du        
   1676 ****       127.7500 265.2500 323.7500 Du        
   1677 ****       127.7500 265.5000 323.0000 Du        
   1678 ****       127.7500 265.5000 323.2500 Du        
   1679 ****       127.7500 265.5000 323.5000 Du        
   1680 ****       127.7500 265.5000 323.7500 Du        
   1681 ****       127.7500 265.5000 324.0000 Du        
   1682 ****       127.7500 265.7500 323.0000 Du        
   1683 ****       127.7500 265.7500 323.2500 Du        
   1684 ****       127.7500 265.7500 323.5000 Du        
   1685 ****       127.7500 265.7500 323.7500 Du        
   1686 ****       127.7500 265.7500 324.0000 Du        
   1687 ****       127.7500 265.7500 324.2500 Du        
   1688 ****       127.7500 266.0000 323.0000 Du        
   1689 ****       127.7500 266.0000 323.2500 Du        
   1690 ****       127.7500 266.0000 323.5000 Du        
   1691 ****       127.7500 266.0000 323.7500 Du        
   1692 ****       127.7500 266.0000 324.0000 Du        
   1693 ****       127.7500 266.0000 324.2500 Du        
   1694 ****       127.7500 266.2500 323.0000 Du        
   1695 ****       127.7500 266.2500 323.2500 Du        
   1696 ****       127.7500 266.2500 323.5000 Du        
   1697 ****       127.7500 266.2500 323.7500 Du        
   1698 ****       127.7500 266.2500 324.0000 Du        
   1699 ****       127.7500 266.2500 324.2500 Du        
   1700 ****       127.7500 266.2500 324.5000 Du        
   1701 ****       127.7500 266.5000 323.0000 Du        
   1702 ****       127.7500 266.5000 323.2500 Du        
   1703 ****       127.7500 266.5000 323.5000 Du        
   1704 ****       127.7500 266.5000 323.7500 Du        
   1705 ****       127.7500 266.5000 324.0000 Du        
   1706 ****       127.7500 266.5000 324.2500 Du        
   1707 ****       127.7500 266.5000 324.5000 Du        
   1708 ****       127.7500 266.5000 324.7500 Du        
   1709 ****       127.7500 266.7500 323.0000 Du        
   1710 ****       127.7500 266.7500 323.2500 Du        
   1711 ****       127.7500 266.7500 323.5000 Du        
   1712 ****       127.7500 266.7500 323.7500 Du        
   1713 ****       127.7500 266.7500 324.0000 Du        
   1714 ****       127.7500 266.7500 324.2500 Du        
   1715 ****       127.7500 266.7500 324.5000 Du        
   1716 ****       127.7500 266.7500 324.7500 Du        
   1717 ****       127.7500 266.7500 325.0000 Du        
   1718 ****       127.7500 266.7500 325.7500 Du        
   1719 ****       127.7500 267.0000 323.2500 Du        
   1720 ****       127.7500 267.0000 323.5000 Du        
   1721 ****       127.7500 267.0000 323.7500 Du        
   1722 ****       127.7500 267.0000 324.0000 Du        
   1723 ****       127.7500 267.0000 324.2500 Du        
   1724 ****       127.7500 267.0000 324.5000 Du        
   1725 ****       127.7500 267.0000 324.7500 Du        
   1726 ****       127.7500 267.0000 325.0000 Du        
   1727 ****       127.7500 267.0000 325.5000 Du        
   1728 ****       127.7500 267.0000 325.7500 Du        
   1729 ****       127.7500 267.0000 326.0000 Du        
   1730 ****       127.7500 267.0000 326.2500 Du        
   1731 ****       127.7500 267.2500 323.7500 Du        
   1732 ****       127.7500 267.2500 324.0000 Du        
   1733 ****       127.7500 267.2500 324.2500 Du        
   1734 ****       127.7500 267.2500 324.5000 Du        
   1735 ****       127.7500 267.2500 324.7500 Du        
   1736 ****       127.7500 267.2500 325.0000 Du        
   1737 ****       127.7500 267.2500 325.7500 Du        
   1738 ****       127.7500 267.2500 326.0000 Du        
   1739 ****       127.7500 267.2500 326.2500 Du        
   1740 ****       127.7500 267.5000 325.7500 Du        
   1741 ****       127.7500 272.7500 323.2500 Du        
   1742 ****       128.0000 265.0000 323.2500 Du        
   1743 ****       128.0000 265.0000 323.5000 Du        
   1744 ****       128.0000 265.0000 323.7500 Du        
   1745 ****       128.0000 265.2500 323.0000 Du        
   1746 ****       128.0000 265.2500 323.2500 Du        
   1747 ****       128.0000 265.2500 323.5000 Du        
   1748 ****       128.0000 265.2500 323.7500 Du        
   1749 ****       128.0000 265.2500 324.0000 Du        
   1750 ****       128.0000 265.5000 323.0000 Du        
   1751 ****       128.0000 265.5000 323.2500 Du        
   1752 ****       128.0000 265.5000 323.5000 Du        
   1753 ****       128.0000 265.5000 323.7500 Du        
   1754 ****       128.0000 265.5000 324.0000 Du        
   1755 ****       128.0000 265.7500 323.0000 Du        
   1756 ****       128.0000 265.7500 323.2500 Du        
   1757 ****       128.0000 265.7500 323.5000 Du        
   1758 ****       128.0000 265.7500 323.7500 Du        
   1759 ****       128.0000 265.7500 324.0000 Du        
   1760 ****       128.0000 265.7500 324.2500 Du        
   1761 ****       128.0000 266.0000 323.0000 Du        
   1762 ****       128.0000 266.0000 323.2500 Du        
   1763 ****       128.0000 266.0000 323.5000 Du        
   1764 ****       128.0000 266.0000 323.7500 Du        
   1765 ****       128.0000 266.0000 324.0000 Du        
   1766 ****       128.0000 266.0000 324.2500 Du        
   1767 ****       128.0000 266.2500 323.0000 Du        
   1768 ****       128.0000 266.2500 323.2500 Du        
   1769 ****       128.0000 266.2500 323.5000 Du        
   1770 ****       128.0000 266.2500 323.7500 Du        
   1771 ****       128.0000 266.2500 324.0000 Du        
   1772 ****       128.0000 266.2500 324.2500 Du        
   1773 ****       128.0000 266.2500 324.5000 Du        
   1774 ****       128.0000 266.5000 323.0000 Du        
   1775 ****       128.0000 266.5000 323.2500 Du        
   1776 ****       128.0000 266.5000 323.5000 Du        
   1777 ****       128.0000 266.5000 323.7500 Du        
   1778 ****       128.0000 266.5000 324.0000 Du        
   1779 ****       128.0000 266.5000 324.2500 Du        
   1780 ****       128.0000 266.5000 324.5000 Du        
   1781 ****       128.0000 266.5000 324.7500 Du        
   1782 ****       128.0000 266.7500 323.0000 Du        
   1783 ****       128.0000 266.7500 323.2500 Du        
   1784 ****       128.0000 266.7500 323.5000 Du        
   1785 ****       128.0000 266.7500 323.7500 Du        
   1786 ****       128.0000 266.7500 324.0000 Du        
   1787 ****       128.0000 266.7500 324.2500 Du        
   1788 ****       128.0000 266.7500 324.5000 Du        
   1789 ****       128.0000 266.7500 324.7500 Du        
   1790 ****       128.0000 266.7500 325.0000 Du        
   1791 ****       128.0000 267.0000 323.0000 Du        
   1792 ****       128.0000 267.0000 323.2500 Du        
   1793 ****       128.0000 267.0000 323.5000 Du        
   1794 ****       128.0000 267.0000 323.7500 Du        
   1795 ****       128.0000 267.0000 324.0000 Du        
   1796 ****       128.0000 267.0000 324.2500 Du        
   1797 ****       128.0000 267.0000 324.5000 Du        
   1798 ****       128.0000 267.0000 324.7500 Du        
   1799 ****       128.0000 267.0000 325.0000 Du        
   1800 ****       128.0000 267.0000 325.2500 Du        
   1801 ****       128.0000 267.0000 325.7500 Du        
   1802 ****       128.0000 267.0000 326.0000 Du        
   1803 ****       128.0000 267.0000 326.2500 Du        
   1804 ****       128.0000 267.2500 323.2500 Du        
   1805 ****       128.0000 267.2500 323.5000 Du        
   1806 ****       128.0000 267.2500 323.7500 Du        
   1807 ****       128.0000 267.2500 324.0000 Du        
   1808 ****       128.0000 267.2500 324.2500 Du        
   1809 ****       128.0000 267.2500 326.0000 Du        
   1810 ****       128.0000 267.2500 326.2500 Du        
   1811 ****       128.0000 267.5000 323.7500 Du        
   1812 ****       128.0000 267.5000 324.0000 Du        
   1813 ****       128.0000 267.5000 324.2500 Du        
   1814 ****       128.0000 272.7500 323.2500 Du        
   1815 ****       128.2500 264.7500 323.5000 Du        
   1816 ****       128.2500 264.7500 323.7500 Du        
   1817 ****       128.2500 265.0000 323.0000 Du        
   1818 ****       128.2500 265.0000 323.2500 Du        
   1819 ****       128.2500 265.0000 323.5000 Du        
   1820 ****       128.2500 265.0000 323.7500 Du        
   1821 ****       128.2500 265.0000 324.0000 Du        
   1822 ****       128.2500 265.2500 322.7500 Du        
   1823 ****       128.2500 265.2500 323.0000 Du        
   1824 ****       128.2500 265.2500 323.2500 Du        
   1825 ****       128.2500 265.2500 323.5000 Du        
   1826 ****       128.2500 265.2500 323.7500 Du        
   1827 ****       128.2500 265.2500 324.0000 Du        
   1828 ****       128.2500 265.5000 322.7500 Du        
   1829 ****       128.2500 265.5000 323.0000 Du        
   1830 ****       128.2500 265.5000 323.2500 Du        
   1831 ****       128.2500 265.5000 323.5000 Du        
   1832 ****       128.2500 265.5000 323.7500 Du        
   1833 ****       128.2500 265.5000 324.0000 Du        
   1834 ****       128.2500 265.7500 322.7500 Du        
   1835 ****       128.2500 265.7500 323.0000 Du        
   1836 ****       128.2500 265.7500 323.2500 Du        
   1837 ****       128.2500 265.7500 323.5000 Du        
   1838 ****       128.2500 265.7500 323.7500 Du        
   1839 ****       128.2500 265.7500 324.0000 Du        
   1840 ****       128.2500 265.7500 324.2500 Du        
   1841 ****       128.2500 266.0000 322.7500 Du        
   1842 ****       128.2500 266.0000 323.0000 Du        
   1843 ****       128.2500 266.0000 323.2500 Du        
   1844 ****       128.2500 266.0000 323.5000 Du        
   1845 ****       128.2500 266.0000 323.7500 Du        
   1846 ****       128.2500 266.0000 324.0000 Du        
   1847 ****       128.2500 266.0000 324.2500 Du        
   1848 ****       128.2500 266.0000 324.5000 Du        
   1849 ****       128.2500 266.2500 322.7500 Du        
   1850 ****       128.2500 266.2500 323.0000 Du        
   1851 ****       128.2500 266.2500 323.2500 Du        
   1852 ****       128.2500 266.2500 323.5000 Du        
   1853 ****       128.2500 266.2500 323.7500 Du        
   1854 ****       128.2500 266.2500 324.0000 Du        
   1855 ****       128.2500 266.2500 324.2500 Du        
   1856 ****       128.2500 266.2500 324.5000 Du        
   1857 ****       128.2500 266.2500 324.7500 Du        
   1858 ****       128.2500 266.5000 322.7500 Du        
   1859 ****       128.2500 266.5000 323.0000 Du        
   1860 ****       128.2500 266.5000 323.2500 Du        
   1861 ****       128.2500 266.5000 323.5000 Du        
   1862 ****       128.2500 266.5000 323.7500 Du        
   1863 ****       128.2500 266.5000 324.0000 Du        
   1864 ****       128.2500 266.5000 324.2500 Du        
   1865 ****       128.2500 266.5000 324.5000 Du        
   1866 ****       128.2500 266.7500 322.7500 Du        
   1867 ****       128.2500 266.7500 323.0000 Du        
   1868 ****       128.2500 266.7500 323.2500 Du        
   1869 ****       128.2500 266.7500 323.5000 Du        
   1870 ****       128.2500 266.7500 323.7500 Du        
   1871 ****       128.2500 266.7500 324.0000 Du        
   1872 ****       128.2500 266.7500 324.2500 Du        
   1873 ****       128.2500 266.7500 324.5000 Du        
   1874 ****       128.2500 266.7500 324.7500 Du        
   1875 ****       128.2500 267.0000 322.7500 Du        
   1876 ****       128.2500 267.0000 323.0000 Du        
   1877 ****       128.2500 267.0000 323.2500 Du        
   1878 ****       128.2500 267.0000 323.5000 Du        
   1879 ****       128.2500 267.0000 323.7500 Du        
   1880 ****       128.2500 267.0000 324.0000 Du        
   1881 ****       128.2500 267.0000 324.2500 Du        
   1882 ****       128.2500 267.0000 324.5000 Du        
   1883 ****       128.2500 267.0000 324.7500 Du        
   1884 ****       128.2500 267.2500 323.0000 Du        
   1885 ****       128.2500 267.2500 323.2500 Du        
   1886 ****       128.2500 267.2500 323.5000 Du        
   1887 ****       128.2500 267.2500 323.7500 Du        
   1888 ****       128.2500 267.2500 324.0000 Du        
   1889 ****       128.2500 267.2500 324.2500 Du        
   1890 ****       128.2500 267.2500 326.2500 Du        
   1891 ****       128.2500 267.5000 323.2500 Du        
   1892 ****       128.2500 267.5000 323.5000 Du        
   1893 ****       128.2500 267.5000 323.7500 Du        
   1894 ****       128.2500 267.5000 324.0000 Du        
   1895 ****       128.2500 267.5000 324.2500 Du        
   1896 ****       128.2500 267.7500 324.0000 Du        
   1897 ****       128.2500 268.0000 326.7500 Du        
   1898 ****       128.5000 264.7500 323.2500 Du        
   1899 ****       128.5000 264.7500 323.5000 Du        
   1900 ****       128.5000 264.7500 323.7500 Du        
   1901 ****       128.5000 265.0000 322.7500 Du        
   1902 ****       128.5000 265.0000 323.0000 Du        
   1903 ****       128.5000 265.0000 323.2500 Du        
   1904 ****       128.5000 265.0000 323.5000 Du        
   1905 ****       128.5000 265.0000 323.7500 Du        
   1906 ****       128.5000 265.0000 324.0000 Du        
   1907 ****       128.5000 265.2500 322.7500 Du        
   1908 ****       128.5000 265.2500 323.0000 Du        
   1909 ****       128.5000 265.2500 323.2500 Du        
   1910 ****       128.5000 265.2500 323.5000 Du        
   1911 ****       128.5000 265.2500 323.7500 Du        
   1912 ****       128.5000 265.2500 324.0000 Du        
   1913 ****       128.5000 265.2500 324.2500 Du        
   1914 ****       128.5000 265.5000 322.7500 Du        
   1915 ****       128.5000 265.5000 323.0000 Du        
   1916 ****       128.5000 265.5000 323.2500 Du        
   1917 ****       128.5000 265.5000 323.5000 Du        
   1918 ****       128.5000 265.5000 323.7500 Du        
   1919 ****       128.5000 265.5000 324.0000 Du        
   1920 ****       128.5000 265.5000 324.2500 Du        
   1921 ****       128.5000 265.7500 322.7500 Du        
   1922 ****       128.5000 265.7500 323.0000 Du        
   1923 ****       128.5000 265.7500 323.2500 Du        
   1924 ****       128.5000 265.7500 323.5000 Du        
   1925 ****       128.5000 265.7500 323.7500 Du        
   1926 ****       128.5000 265.7500 324.0000 Du        
   1927 ****       128.5000 265.7500 324.2500 Du        
   1928 ****       128.5000 266.0000 322.7500 Du        
   1929 ****       128.5000 266.0000 323.0000 Du        
   1930 ****       128.5000 266.0000 323.2500 Du        
   1931 ****       128.5000 266.0000 323.5000 Du        
   1932 ****       128.5000 266.0000 323.7500 Du        
   1933 ****       128.5000 266.0000 324.0000 Du        
   1934 ****       128.5000 266.0000 324.2500 Du        
   1935 ****       128.5000 266.2500 322.7500 Du        
   1936 ****       128.5000 266.2500 323.0000 Du        
   1937 ****       128.5000 266.2500 323.2500 Du        
   1938 ****       128.5000 266.2500 323.5000 Du        
   1939 ****       128.5000 266.2500 323.7500 Du        
   1940 ****       128.5000 266.2500 324.0000 Du        
   1941 ****       128.5000 266.2500 324.2500 Du        
   1942 ****       128.5000 266.2500 324.5000 Du        
   1943 ****       128.5000 266.5000 322.7500 Du        
   1944 ****       128.5000 266.5000 323.0000 Du        
   1945 ****       128.5000 266.5000 323.2500 Du        
   1946 ****       128.5000 266.5000 323.5000 Du        
   1947 ****       128.5000 266.5000 323.7500 Du        
   1948 ****       128.5000 266.5000 324.0000 Du        
   1949 ****       128.5000 266.5000 324.2500 Du        
   1950 ****       128.5000 266.5000 324.5000 Du        
   1951 ****       128.5000 266.7500 322.7500 Du        
   1952 ****       128.5000 266.7500 323.0000 Du        
   1953 ****       128.5000 266.7500 323.2500 Du        
   1954 ****       128.5000 266.7500 323.5000 Du        
   1955 ****       128.5000 266.7500 323.7500 Du        
   1956 ****       128.5000 266.7500 324.0000 Du        
   1957 ****       128.5000 266.7500 324.2500 Du        
   1958 ****       128.5000 266.7500 324.5000 Du        
   1959 ****       128.5000 266.7500 324.7500 Du        
   1960 ****       128.5000 267.0000 322.7500 Du        
   1961 ****       128.5000 267.0000 323.0000 Du        
   1962 ****       128.5000 267.0000 323.2500 Du        
   1963 ****       128.5000 267.0000 323.5000 Du        
   1964 ****       128.5000 267.0000 323.7500 Du        
   1965 ****       128.5000 267.0000 324.0000 Du        
   1966 ****       128.5000 267.0000 324.2500 Du        
   1967 ****       128.5000 267.2500 322.7500 Du        
   1968 ****       128.5000 267.2500 323.0000 Du        
   1969 ****       128.5000 267.2500 323.2500 Du        
   1970 ****       128.5000 267.2500 323.5000 Du        
   1971 ****       128.5000 267.2500 323.7500 Du        
   1972 ****       128.5000 267.2500 324.0000 Du        
   1973 ****       128.5000 267.2500 324.2500 Du        
   1974 ****       128.5000 267.5000 322.7500 Du        
   1975 ****       128.5000 267.5000 323.0000 Du        
   1976 ****       128.5000 267.5000 323.2500 Du        
   1977 ****       128.5000 267.7500 323.0000 Du        
   1978 ****       128.5000 267.7500 323.2500 Du        
   1979 ****       128.5000 267.7500 326.7500 Du        
   1980 ****       128.5000 268.0000 326.7500 Du        
   1981 ****       128.5000 268.0000 327.0000 Du        
   1982 ****       128.7500 264.7500 323.0000 Du        
   1983 ****       128.7500 264.7500 323.2500 Du        
   1984 ****       128.7500 264.7500 323.5000 Du        
   1985 ****       128.7500 264.7500 323.7500 Du        
   1986 ****       128.7500 264.7500 324.0000 Du        
   1987 ****       128.7500 265.0000 322.7500 Du        
   1988 ****       128.7500 265.0000 323.0000 Du        
   1989 ****       128.7500 265.0000 323.2500 Du        
   1990 ****       128.7500 265.0000 323.5000 Du        
   1991 ****       128.7500 265.0000 323.7500 Du        
   1992 ****       128.7500 265.0000 324.0000 Du        
   1993 ****       128.7500 265.2500 322.7500 Du        
   1994 ****       128.7500 265.2500 323.0000 Du        
   1995 ****       128.7500 265.2500 323.2500 Du        
   1996 ****       128.7500 265.2500 323.5000 Du        
   1997 ****       128.7500 265.2500 323.7500 Du        
   1998 ****       128.7500 265.2500 324.0000 Du        
   1999 ****       128.7500 265.2500 324.2500 Du        
   2000 ****       128.7500 265.5000 322.7500 Du        
   2001 ****       128.7500 265.5000 323.0000 Du        
   2002 ****       128.7500 265.5000 323.2500 Du        
   2003 ****       128.7500 265.5000 323.5000 Du        
   2004 ****       128.7500 265.5000 323.7500 Du        
   2005 ****       128.7500 265.5000 324.0000 Du        
   2006 ****       128.7500 265.5000 324.2500 Du        
   2007 ****       128.7500 265.7500 322.7500 Du        
   2008 ****       128.7500 265.7500 323.0000 Du        
   2009 ****       128.7500 265.7500 323.2500 Du        
   2010 ****       128.7500 265.7500 323.5000 Du        
   2011 ****       128.7500 265.7500 323.7500 Du        
   2012 ****       128.7500 265.7500 324.0000 Du        
   2013 ****       128.7500 265.7500 324.2500 Du        
   2014 ****       128.7500 266.0000 322.7500 Du        
   2015 ****       128.7500 266.0000 323.0000 Du        
   2016 ****       128.7500 266.0000 323.2500 Du        
   2017 ****       128.7500 266.0000 323.5000 Du        
   2018 ****       128.7500 266.0000 323.7500 Du        
   2019 ****       128.7500 266.0000 324.0000 Du        
   2020 ****       128.7500 266.0000 324.2500 Du        
   2021 ****       128.7500 266.2500 322.7500 Du        
   2022 ****       128.7500 266.2500 323.0000 Du        
   2023 ****       128.7500 266.2500 323.2500 Du        
   2024 ****       128.7500 266.2500 323.5000 Du        
   2025 ****       128.7500 266.2500 323.7500 Du        
   2026 ****       128.7500 266.2500 324.0000 Du        
   2027 ****       128.7500 266.2500 324.2500 Du        
   2028 ****       128.7500 266.5000 322.7500 Du        
   2029 ****       128.7500 266.5000 323.0000 Du        
   2030 ****       128.7500 266.5000 323.2500 Du        
   2031 ****       128.7500 266.5000 323.5000 Du        
   2032 ****       128.7500 266.5000 323.7500 Du        
   2033 ****       128.7500 266.5000 324.0000 Du        
   2034 ****       128.7500 266.5000 324.2500 Du        
   2035 ****       128.7500 266.5000 324.5000 Du        
   2036 ****       128.7500 266.7500 322.7500 Du        
   2037 ****       128.7500 266.7500 323.0000 Du        
   2038 ****       128.7500 266.7500 323.2500 Du        
   2039 ****       128.7500 266.7500 323.5000 Du        
   2040 ****       128.7500 266.7500 323.7500 Du        
   2041 ****       128.7500 266.7500 324.0000 Du        
   2042 ****       128.7500 266.7500 324.2500 Du        
   2043 ****       128.7500 266.7500 324.5000 Du        
   2044 ****       128.7500 266.7500 324.7500 Du        
   2045 ****       128.7500 267.0000 322.5000 Du        
   2046 ****       128.7500 267.0000 322.7500 Du        
   2047 ****       128.7500 267.0000 323.0000 Du        
   2048 ****       128.7500 267.0000 323.2500 Du        
   2049 ****       128.7500 267.0000 323.5000 Du        
   2050 ****       128.7500 267.0000 323.7500 Du        
   2051 ****       128.7500 267.0000 324.0000 Du        
   2052 ****       128.7500 267.0000 324.2500 Du        
   2053 ****       128.7500 267.2500 322.5000 Du        
   2054 ****       128.7500 267.2500 322.7500 Du        
   2055 ****       128.7500 267.2500 323.0000 Du        
   2056 ****       128.7500 267.2500 323.2500 Du        
   2057 ****       128.7500 267.2500 323.5000 Du        
   2058 ****       128.7500 267.2500 323.7500 Du        
   2059 ****       128.7500 267.2500 324.0000 Du        
   2060 ****       128.7500 267.2500 324.2500 Du        
   2061 ****       128.7500 267.5000 322.5000 Du        
   2062 ****       128.7500 267.5000 322.7500 Du        
   2063 ****       128.7500 267.5000 323.0000 Du        
   2064 ****       128.7500 267.5000 323.2500 Du        
   2065 ****       128.7500 267.5000 323.5000 Du        
   2066 ****       128.7500 267.5000 323.7500 Du        
   2067 ****       128.7500 267.5000 326.7500 Du        
   2068 ****       128.7500 267.7500 322.5000 Du        
   2069 ****       128.7500 267.7500 322.7500 Du        
   2070 ****       128.7500 267.7500 323.0000 Du        
   2071 ****       128.7500 267.7500 323.2500 Du        
   2072 ****       128.7500 267.7500 323.5000 Du        
   2073 ****       128.7500 267.7500 323.7500 Du        
   2074 ****       128.7500 267.7500 326.7500 Du        
   2075 ****       128.7500 267.7500 327.0000 Du        
   2076 ****       128.7500 268.0000 322.7500 Du        
   2077 ****       128.7500 268.0000 323.0000 Du        
   2078 ****       128.7500 268.0000 323.2500 Du        
   2079 ****       128.7500 268.0000 326.7500 Du        
   2080 ****       128.7500 268.0000 327.0000 Du        
   2081 ****       128.7500 268.0000 327.2500 Du        
   2082 ****       128.7500 268.2500 323.0000 Du        
   2083 ****       128.7500 268.2500 323.2500 Du        
   2084 ****       128.7500 268.2500 327.0000 Du        
   2085 ****       128.7500 268.2500 327.2500 Du        
   2086 ****       129.0000 264.7500 322.7500 Du        
   2087 ****       129.0000 264.7500 323.0000 Du        
   2088 ****       129.0000 264.7500 323.2500 Du        
   2089 ****       129.0000 264.7500 323.5000 Du        
   2090 ****       129.0000 264.7500 323.7500 Du        
   2091 ****       129.0000 264.7500 324.0000 Du        
   2092 ****       129.0000 265.0000 322.5000 Du        
   2093 ****       129.0000 265.0000 322.7500 Du        
   2094 ****       129.0000 265.0000 323.0000 Du        
   2095 ****       129.0000 265.0000 323.2500 Du        
   2096 ****       129.0000 265.0000 323.5000 Du        
   2097 ****       129.0000 265.0000 323.7500 Du        
   2098 ****       129.0000 265.0000 324.0000 Du        
   2099 ****       129.0000 265.0000 324.2500 Du        
   2100 ****       129.0000 265.2500 322.5000 Du        
   2101 ****       129.0000 265.2500 322.7500 Du        
   2102 ****       129.0000 265.2500 323.0000 Du        
   2103 ****       129.0000 265.2500 323.2500 Du        
   2104 ****       129.0000 265.2500 323.5000 Du        
   2105 ****       129.0000 265.2500 323.7500 Du        
   2106 ****       129.0000 265.2500 324.0000 Du        
   2107 ****       129.0000 265.2500 324.2500 Du        
   2108 ****       129.0000 265.5000 322.5000 Du        
   2109 ****       129.0000 265.5000 322.7500 Du        
   2110 ****       129.0000 265.5000 323.0000 Du        
   2111 ****       129.0000 265.5000 323.2500 Du        
   2112 ****       129.0000 265.5000 323.5000 Du        
   2113 ****       129.0000 265.5000 323.7500 Du        
   2114 ****       129.0000 265.5000 324.0000 Du        
   2115 ****       129.0000 265.5000 324.2500 Du        
   2116 ****       129.0000 265.7500 322.5000 Du        
   2117 ****       129.0000 265.7500 322.7500 Du        
   2118 ****       129.0000 265.7500 323.0000 Du        
   2119 ****       129.0000 265.7500 323.2500 Du        
   2120 ****       129.0000 265.7500 323.5000 Du        
   2121 ****       129.0000 265.7500 323.7500 Du        
   2122 ****       129.0000 265.7500 324.0000 Du        
   2123 ****       129.0000 265.7500 324.2500 Du        
   2124 ****       129.0000 266.0000 322.5000 Du        
   2125 ****       129.0000 266.0000 322.7500 Du        
   2126 ****       129.0000 266.0000 323.0000 Du        
   2127 ****       129.0000 266.0000 323.2500 Du        
   2128 ****       129.0000 266.0000 323.5000 Du        
   2129 ****       129.0000 266.0000 323.7500 Du        
   2130 ****       129.0000 266.0000 324.0000 Du        
   2131 ****       129.0000 266.0000 324.2500 Du        
   2132 ****       129.0000 266.0000 324.5000 Du        
   2133 ****       129.0000 266.2500 322.5000 Du        
   2134 ****       129.0000 266.2500 322.7500 Du        
   2135 ****       129.0000 266.2500 323.0000 Du        
   2136 ****       129.0000 266.2500 323.2500 Du        
   2137 ****       129.0000 266.2500 323.5000 Du        
   2138 ****       129.0000 266.2500 323.7500 Du        
   2139 ****       129.0000 266.2500 324.0000 Du        
   2140 ****       129.0000 266.2500 324.2500 Du        
   2141 ****       129.0000 266.5000 322.5000 Du        
   2142 ****       129.0000 266.5000 322.7500 Du        
   2143 ****       129.0000 266.5000 323.0000 Du        
   2144 ****       129.0000 266.5000 323.2500 Du        
   2145 ****       129.0000 266.5000 323.5000 Du        
   2146 ****       129.0000 266.5000 323.7500 Du        
   2147 ****       129.0000 266.5000 324.0000 Du        
   2148 ****       129.0000 266.5000 324.2500 Du        
   2149 ****       129.0000 266.5000 324.5000 Du        
   2150 ****       129.0000 266.7500 322.5000 Du        
   2151 ****       129.0000 266.7500 322.7500 Du        
   2152 ****       129.0000 266.7500 323.0000 Du        
   2153 ****       129.0000 266.7500 323.2500 Du        
   2154 ****       129.0000 266.7500 323.5000 Du        
   2155 ****       129.0000 266.7500 323.7500 Du        
   2156 ****       129.0000 266.7500 324.0000 Du        
   2157 ****       129.0000 266.7500 324.2500 Du        
   2158 ****       129.0000 267.0000 322.5000 Du        
   2159 ****       129.0000 267.0000 322.7500 Du        
   2160 ****       129.0000 267.0000 323.0000 Du        
   2161 ****       129.0000 267.0000 323.2500 Du        
   2162 ****       129.0000 267.0000 323.5000 Du        
   2163 ****       129.0000 267.0000 323.7500 Du        
   2164 ****       129.0000 267.0000 324.0000 Du        
   2165 ****       129.0000 267.0000 324.2500 Du        
   2166 ****       129.0000 267.2500 322.5000 Du        
   2167 ****       129.0000 267.2500 322.7500 Du        
   2168 ****       129.0000 267.2500 323.0000 Du        
   2169 ****       129.0000 267.2500 323.2500 Du        
   2170 ****       129.0000 267.2500 323.5000 Du        
   2171 ****       129.0000 267.2500 323.7500 Du        
   2172 ****       129.0000 267.2500 324.0000 Du        
   2173 ****       129.0000 267.2500 324.2500 Du        
   2174 ****       129.0000 267.2500 326.7500 Du        
   2175 ****       129.0000 267.5000 322.5000 Du        
   2176 ****       129.0000 267.5000 322.7500 Du        
   2177 ****       129.0000 267.5000 323.0000 Du        
   2178 ****       129.0000 267.5000 323.2500 Du        
   2179 ****       129.0000 267.5000 323.5000 Du        
   2180 ****       129.0000 267.5000 323.7500 Du        
   2181 ****       129.0000 267.5000 326.7500 Du        
   2182 ****       129.0000 267.5000 327.0000 Du        
   2183 ****       129.0000 267.7500 322.5000 Du        
   2184 ****       129.0000 267.7500 322.7500 Du        
   2185 ****       129.0000 267.7500 323.0000 Du        
   2186 ****       129.0000 267.7500 323.2500 Du        
   2187 ****       129.0000 267.7500 323.5000 Du        
   2188 ****       129.0000 267.7500 323.7500 Du        
   2189 ****       129.0000 267.7500 326.7500 Du        
   2190 ****       129.0000 267.7500 327.0000 Du        
   2191 ****       129.0000 267.7500 327.2500 Du        
   2192 ****       129.0000 268.0000 322.5000 Du        
   2193 ****       129.0000 268.0000 322.7500 Du        
   2194 ****       129.0000 268.0000 323.0000 Du        
   2195 ****       129.0000 268.0000 323.2500 Du        
   2196 ****       129.0000 268.0000 323.5000 Du        
   2197 ****       129.0000 268.0000 327.0000 Du        
   2198 ****       129.0000 268.0000 327.2500 Du        
   2199 ****       129.0000 268.2500 322.5000 Du        
   2200 ****       129.0000 268.2500 322.7500 Du        
   2201 ****       129.0000 268.2500 323.0000 Du        
   2202 ****       129.0000 268.2500 323.2500 Du        
   2203 ****       129.0000 268.2500 327.2500 Du        
   2204 ****       129.0000 268.2500 327.5000 Du        
   2205 ****       129.0000 268.5000 322.7500 Du        
   2206 ****       129.0000 268.5000 323.0000 Du        
   2207 ****       129.0000 268.5000 323.2500 Du        
   2208 ****       129.0000 268.7500 323.0000 Du        
   2209 ****       129.0000 268.7500 323.2500 Du        
   2210 ****       129.2500 264.7500 322.5000 Du        
   2211 ****       129.2500 264.7500 322.7500 Du        
   2212 ****       129.2500 264.7500 323.0000 Du        
   2213 ****       129.2500 264.7500 323.2500 Du        
   2214 ****       129.2500 264.7500 323.5000 Du        
   2215 ****       129.2500 264.7500 323.7500 Du        
   2216 ****       129.2500 264.7500 324.0000 Du        
   2217 ****       129.2500 265.0000 322.2500 Du        
   2218 ****       129.2500 265.0000 322.5000 Du        
   2219 ****       129.2500 265.0000 322.7500 Du        
   2220 ****       129.2500 265.0000 323.0000 Du        
   2221 ****       129.2500 265.0000 323.2500 Du        
   2222 ****       129.2500 265.0000 323.5000 Du        
   2223 ****       129.2500 265.0000 323.7500 Du        
   2224 ****       129.2500 265.0000 324.0000 Du        
   2225 ****       129.2500 265.0000 324.2500 Du        
   2226 ****       129.2500 265.2500 322.2500 Du        
   2227 ****       129.2500 265.2500 322.5000 Du        
   2228 ****       129.2500 265.2500 322.7500 Du        
   2229 ****       129.2500 265.2500 323.0000 Du        
   2230 ****       129.2500 265.2500 323.2500 Du        
   2231 ****       129.2500 265.2500 323.5000 Du        
   2232 ****       129.2500 265.2500 323.7500 Du        
   2233 ****       129.2500 265.2500 324.0000 Du        
   2234 ****       129.2500 265.2500 324.2500 Du        
   2235 ****       129.2500 265.5000 322.5000 Du        
   2236 ****       129.2500 265.5000 322.7500 Du        
   2237 ****       129.2500 265.5000 323.0000 Du        
   2238 ****       129.2500 265.5000 323.2500 Du        
   2239 ****       129.2500 265.5000 323.5000 Du        
   2240 ****       129.2500 265.5000 323.7500 Du        
   2241 ****       129.2500 265.5000 324.0000 Du        
   2242 ****       129.2500 265.5000 324.2500 Du        
   2243 ****       129.2500 265.7500 322.5000 Du        
   2244 ****       129.2500 265.7500 322.7500 Du        
   2245 ****       129.2500 265.7500 323.0000 Du        
   2246 ****       129.2500 265.7500 323.2500 Du        
   2247 ****       129.2500 265.7500 323.5000 Du        
   2248 ****       129.2500 265.7500 323.7500 Du        
   2249 ****       129.2500 265.7500 324.0000 Du        
   2250 ****       129.2500 265.7500 324.2500 Du        
   2251 ****       129.2500 265.7500 324.5000 Du        
   2252 ****       129.2500 266.0000 322.5000 Du        
   2253 ****       129.2500 266.0000 322.7500 Du        
   2254 ****       129.2500 266.0000 323.0000 Du        
   2255 ****       129.2500 266.0000 323.2500 Du        
   2256 ****       129.2500 266.0000 323.5000 Du        
   2257 ****       129.2500 266.0000 323.7500 Du        
   2258 ****       129.2500 266.0000 324.0000 Du        
   2259 ****       129.2500 266.0000 324.2500 Du        
   2260 ****       129.2500 266.0000 324.5000 Du        
   2261 ****       129.2500 266.2500 322.5000 Du        
   2262 ****       129.2500 266.2500 322.7500 Du        
   2263 ****       129.2500 266.2500 323.0000 Du        
   2264 ****       129.2500 266.2500 323.2500 Du        
   2265 ****       129.2500 266.2500 323.5000 Du        
   2266 ****       129.2500 266.2500 323.7500 Du        
   2267 ****       129.2500 266.2500 324.0000 Du        
   2268 ****       129.2500 266.2500 324.2500 Du        
   2269 ****       129.2500 266.2500 324.5000 Du        
   2270 ****       129.2500 266.5000 322.5000 Du        
   2271 ****       129.2500 266.5000 322.7500 Du        
   2272 ****       129.2500 266.5000 323.0000 Du        
   2273 ****       129.2500 266.5000 323.2500 Du        
   2274 ****       129.2500 266.5000 323.5000 Du        
   2275 ****       129.2500 266.5000 323.7500 Du        
   2276 ****       129.2500 266.5000 324.0000 Du        
   2277 ****       129.2500 266.5000 324.2500 Du        
   2278 ****       129.2500 266.7500 322.5000 Du        
   2279 ****       129.2500 266.7500 322.7500 Du        
   2280 ****       129.2500 266.7500 323.0000 Du        
   2281 ****       129.2500 266.7500 323.2500 Du        
   2282 ****       129.2500 266.7500 323.5000 Du        
   2283 ****       129.2500 266.7500 323.7500 Du        
   2284 ****       129.2500 266.7500 324.0000 Du        
   2285 ****       129.2500 266.7500 324.2500 Du        
   2286 ****       129.2500 267.0000 322.5000 Du        
   2287 ****       129.2500 267.0000 322.7500 Du        
   2288 ****       129.2500 267.0000 323.0000 Du        
   2289 ****       129.2500 267.0000 323.2500 Du        
   2290 ****       129.2500 267.0000 323.5000 Du        
   2291 ****       129.2500 267.0000 323.7500 Du        
   2292 ****       129.2500 267.0000 324.0000 Du        
   2293 ****       129.2500 267.0000 324.2500 Du        
   2294 ****       129.2500 267.2500 322.5000 Du        
   2295 ****       129.2500 267.2500 322.7500 Du        
   2296 ****       129.2500 267.2500 323.0000 Du        
   2297 ****       129.2500 267.2500 323.2500 Du        
   2298 ****       129.2500 267.2500 323.5000 Du        
   2299 ****       129.2500 267.2500 323.7500 Du        
   2300 ****       129.2500 267.2500 324.0000 Du        
   2301 ****       129.2500 267.2500 324.2500 Du        
   2302 ****       129.2500 267.5000 322.2500 Du        
   2303 ****       129.2500 267.5000 322.5000 Du        
   2304 ****       129.2500 267.5000 322.7500 Du        
   2305 ****       129.2500 267.5000 323.0000 Du        
   2306 ****       129.2500 267.5000 323.2500 Du        
   2307 ****       129.2500 267.5000 323.5000 Du        
   2308 ****       129.2500 267.5000 327.0000 Du        
   2309 ****       129.2500 267.7500 322.2500 Du        
   2310 ****       129.2500 267.7500 322.5000 Du        
   2311 ****       129.2500 267.7500 322.7500 Du        
   2312 ****       129.2500 267.7500 323.0000 Du        
   2313 ****       129.2500 267.7500 323.2500 Du        
   2314 ****       129.2500 267.7500 323.5000 Du        
   2315 ****       129.2500 267.7500 327.0000 Du        
   2316 ****       129.2500 267.7500 327.2500 Du        
   2317 ****       129.2500 268.0000 322.2500 Du        
   2318 ****       129.2500 268.0000 322.5000 Du        
   2319 ****       129.2500 268.0000 322.7500 Du        
   2320 ****       129.2500 268.0000 323.0000 Du        
   2321 ****       129.2500 268.0000 323.2500 Du        
   2322 ****       129.2500 268.0000 323.5000 Du        
   2323 ****       129.2500 268.0000 327.0000 Du        
   2324 ****       129.2500 268.0000 327.2500 Du        
   2325 ****       129.2500 268.0000 327.5000 Du        
   2326 ****       129.2500 268.0000 327.7500 Du        
   2327 ****       129.2500 268.2500 322.2500 Du        
   2328 ****       129.2500 268.2500 322.5000 Du        
   2329 ****       129.2500 268.2500 322.7500 Du        
   2330 ****       129.2500 268.2500 323.0000 Du        
   2331 ****       129.2500 268.2500 323.2500 Du        
   2332 ****       129.2500 268.2500 323.5000 Du        
   2333 ****       129.2500 268.2500 327.5000 Du        
   2334 ****       129.2500 268.2500 327.7500 Du        
   2335 ****       129.2500 268.5000 322.5000 Du        
   2336 ****       129.2500 268.5000 322.7500 Du        
   2337 ****       129.2500 268.5000 323.0000 Du        
   2338 ****       129.2500 268.5000 323.2500 Du        
   2339 ****       129.2500 268.7500 322.7500 Du        
   2340 ****       129.2500 268.7500 323.0000 Du        
   2341 ****       129.2500 268.7500 323.2500 Du        
   2342 ****       129.5000 264.7500 322.2500 Du        
   2343 ****       129.5000 264.7500 322.5000 Du        
   2344 ****       129.5000 264.7500 322.7500 Du        
   2345 ****       129.5000 264.7500 323.0000 Du        
   2346 ****       129.5000 264.7500 323.2500 Du        
   2347 ****       129.5000 264.7500 323.5000 Du        
   2348 ****       129.5000 264.7500 323.7500 Du        
   2349 ****       129.5000 264.7500 324.0000 Du        
   2350 ****       129.5000 265.0000 322.2500 Du        
   2351 ****       129.5000 265.0000 322.5000 Du        
   2352 ****       129.5000 265.0000 322.7500 Du        
   2353 ****       129.5000 265.0000 323.0000 Du        
   2354 ****       129.5000 265.0000 323.2500 Du        
   2355 ****       129.5000 265.0000 323.5000 Du        
   2356 ****       129.5000 265.0000 323.7500 Du        
   2357 ****       129.5000 265.0000 324.0000 Du        
   2358 ****       129.5000 265.0000 324.2500 Du        
   2359 ****       129.5000 265.2500 322.2500 Du        
   2360 ****       129.5000 265.2500 322.5000 Du        
   2361 ****       129.5000 265.2500 322.7500 Du        
   2362 ****       129.5000 265.2500 323.0000 Du        
   2363 ****       129.5000 265.2500 323.2500 Du        
   2364 ****       129.5000 265.2500 323.5000 Du        
   2365 ****       129.5000 265.2500 323.7500 Du        
   2366 ****       129.5000 265.2500 324.0000 Du        
   2367 ****       129.5000 265.2500 324.2500 Du        
   2368 ****       129.5000 265.5000 322.2500 Du        
   2369 ****       129.5000 265.5000 322.5000 Du        
   2370 ****       129.5000 265.5000 322.7500 Du        
   2371 ****       129.5000 265.5000 323.0000 Du        
   2372 ****       129.5000 265.5000 323.2500 Du        
   2373 ****       129.5000 265.5000 323.5000 Du        
   2374 ****       129.5000 265.5000 323.7500 Du        
   2375 ****       129.5000 265.5000 324.0000 Du        
   2376 ****       129.5000 265.5000 324.2500 Du        
   2377 ****       129.5000 265.7500 322.5000 Du        
   2378 ****       129.5000 265.7500 322.7500 Du        
   2379 ****       129.5000 265.7500 323.0000 Du        
   2380 ****       129.5000 265.7500 323.2500 Du        
   2381 ****       129.5000 265.7500 323.5000 Du        
   2382 ****       129.5000 265.7500 323.7500 Du        
   2383 ****       129.5000 265.7500 324.0000 Du        
   2384 ****       129.5000 265.7500 324.2500 Du        
   2385 ****       129.5000 266.0000 322.5000 Du        
   2386 ****       129.5000 266.0000 322.7500 Du        
   2387 ****       129.5000 266.0000 323.0000 Du        
   2388 ****       129.5000 266.0000 323.2500 Du        
   2389 ****       129.5000 266.0000 323.5000 Du        
   2390 ****       129.5000 266.0000 323.7500 Du        
   2391 ****       129.5000 266.0000 324.0000 Du        
   2392 ****       129.5000 266.0000 324.2500 Du        
   2393 ****       129.5000 266.2500 322.5000 Du        
   2394 ****       129.5000 266.2500 322.7500 Du        
   2395 ****       129.5000 266.2500 323.0000 Du        
   2396 ****       129.5000 266.2500 323.2500 Du        
   2397 ****       129.5000 266.2500 323.5000 Du        
   2398 ****       129.5000 266.2500 323.7500 Du        
   2399 ****       129.5000 266.2500 324.0000 Du        
   2400 ****       129.5000 266.2500 324.2500 Du        
   2401 ****       129.5000 266.5000 322.5000 Du        
   2402 ****       129.5000 266.5000 322.7500 Du        
   2403 ****       129.5000 266.5000 323.0000 Du        
   2404 ****       129.5000 266.5000 323.2500 Du        
   2405 ****       129.5000 266.5000 323.5000 Du        
   2406 ****       129.5000 266.5000 323.7500 Du        
   2407 ****       129.5000 266.5000 324.0000 Du        
   2408 ****       129.5000 266.5000 324.2500 Du        
   2409 ****       129.5000 266.7500 322.5000 Du        
   2410 ****       129.5000 266.7500 322.7500 Du        
   2411 ****       129.5000 266.7500 323.0000 Du        
   2412 ****       129.5000 266.7500 323.2500 Du        
   2413 ****       129.5000 266.7500 323.5000 Du        
   2414 ****       129.5000 266.7500 323.7500 Du        
   2415 ****       129.5000 266.7500 324.0000 Du        
   2416 ****       129.5000 266.7500 324.2500 Du        
   2417 ****       129.5000 267.0000 322.5000 Du        
   2418 ****       129.5000 267.0000 322.7500 Du        
   2419 ****       129.5000 267.0000 323.0000 Du        
   2420 ****       129.5000 267.0000 323.2500 Du        
   2421 ****       129.5000 267.0000 323.5000 Du        
   2422 ****       129.5000 267.0000 323.7500 Du        
   2423 ****       129.5000 267.0000 324.0000 Du        
   2424 ****       129.5000 267.0000 324.2500 Du        
   2425 ****       129.5000 267.2500 322.5000 Du        
   2426 ****       129.5000 267.2500 322.7500 Du        
   2427 ****       129.5000 267.2500 323.0000 Du        
   2428 ****       129.5000 267.2500 323.2500 Du        
   2429 ****       129.5000 267.2500 323.5000 Du        
   2430 ****       129.5000 267.2500 323.7500 Du        
   2431 ****       129.5000 267.2500 324.0000 Du        
   2432 ****       129.5000 267.5000 322.5000 Du        
   2433 ****       129.5000 267.5000 322.7500 Du        
   2434 ****       129.5000 267.5000 323.0000 Du        
   2435 ****       129.5000 267.5000 323.2500 Du        
   2436 ****       129.5000 267.7500 322.2500 Du        
   2437 ****       129.5000 267.7500 322.5000 Du        
   2438 ****       129.5000 267.7500 322.7500 Du        
   2439 ****       129.5000 267.7500 323.0000 Du        
   2440 ****       129.5000 267.7500 323.2500 Du        
   2441 ****       129.5000 268.0000 322.2500 Du        
   2442 ****       129.5000 268.0000 322.5000 Du        
   2443 ****       129.5000 268.0000 322.7500 Du        
   2444 ****       129.5000 268.0000 323.0000 Du        
   2445 ****       129.5000 268.0000 323.2500 Du        
   2446 ****       129.5000 268.0000 327.5000 Du        
   2447 ****       129.5000 268.0000 327.7500 Du        
   2448 ****       129.5000 268.2500 322.2500 Du        
   2449 ****       129.5000 268.2500 322.5000 Du        
   2450 ****       129.5000 268.2500 322.7500 Du        
   2451 ****       129.5000 268.2500 323.0000 Du        
   2452 ****       129.5000 268.2500 323.2500 Du        
   2453 ****       129.5000 268.2500 327.5000 Du        
   2454 ****       129.5000 268.2500 327.7500 Du        
   2455 ****       129.5000 268.5000 322.7500 Du        
   2456 ****       129.5000 268.5000 323.0000 Du        
   2457 ****       129.5000 268.5000 323.2500 Du        
   2458 ****       129.5000 268.7500 323.0000 Du        
   2459 ****       129.5000 268.7500 323.2500 Du        
   2460 ****       129.7500 264.7500 322.0000 Du        
   2461 ****       129.7500 264.7500 322.2500 Du        
   2462 ****       129.7500 264.7500 322.5000 Du        
   2463 ****       129.7500 264.7500 322.7500 Du        
   2464 ****       129.7500 264.7500 323.0000 Du        
   2465 ****       129.7500 264.7500 323.2500 Du        
   2466 ****       129.7500 264.7500 323.5000 Du        
   2467 ****       129.7500 264.7500 323.7500 Du        
   2468 ****       129.7500 264.7500 324.0000 Du        
   2469 ****       129.7500 265.0000 322.0000 Du        
   2470 ****       129.7500 265.0000 322.2500 Du        
   2471 ****       129.7500 265.0000 322.5000 Du        
   2472 ****       129.7500 265.0000 322.7500 Du        
   2473 ****       129.7500 265.0000 323.0000 Du        
   2474 ****       129.7500 265.0000 323.2500 Du        
   2475 ****       129.7500 265.0000 323.5000 Du        
   2476 ****       129.7500 265.0000 323.7500 Du        
   2477 ****       129.7500 265.0000 324.0000 Du        
   2478 ****       129.7500 265.0000 324.2500 Du        
   2479 ****       129.7500 265.2500 322.2500 Du        
   2480 ****       129.7500 265.2500 322.5000 Du        
   2481 ****       129.7500 265.2500 322.7500 Du        
   2482 ****       129.7500 265.2500 323.0000 Du        
   2483 ****       129.7500 265.2500 323.2500 Du        
   2484 ****       129.7500 265.2500 323.5000 Du        
   2485 ****       129.7500 265.2500 323.7500 Du        
   2486 ****       129.7500 265.2500 324.0000 Du        
   2487 ****       129.7500 265.2500 324.2500 Du        
   2488 ****       129.7500 265.5000 322.2500 Du        
   2489 ****       129.7500 265.5000 322.5000 Du        
   2490 ****       129.7500 265.5000 322.7500 Du        
   2491 ****       129.7500 265.5000 323.0000 Du        
   2492 ****       129.7500 265.5000 323.2500 Du        
   2493 ****       129.7500 265.5000 323.5000 Du        
   2494 ****       129.7500 265.5000 323.7500 Du        
   2495 ****       129.7500 265.5000 324.0000 Du        
   2496 ****       129.7500 265.5000 324.2500 Du        
   2497 ****       129.7500 265.7500 322.2500 Du        
   2498 ****       129.7500 265.7500 322.5000 Du        
   2499 ****       129.7500 265.7500 322.7500 Du        
   2500 ****       129.7500 265.7500 323.0000 Du        
   2501 ****       129.7500 265.7500 323.2500 Du        
   2502 ****       129.7500 265.7500 323.5000 Du        
   2503 ****       129.7500 265.7500 323.7500 Du        
   2504 ****       129.7500 265.7500 324.0000 Du        
   2505 ****       129.7500 265.7500 324.2500 Du        
   2506 ****       129.7500 266.0000 322.5000 Du        
   2507 ****       129.7500 266.0000 322.7500 Du        
   2508 ****       129.7500 266.0000 323.0000 Du        
   2509 ****       129.7500 266.0000 323.2500 Du        
   2510 ****       129.7500 266.0000 323.5000 Du        
   2511 ****       129.7500 266.0000 323.7500 Du        
   2512 ****       129.7500 266.0000 324.0000 Du        
   2513 ****       129.7500 266.0000 324.2500 Du        
   2514 ****       129.7500 266.2500 322.5000 Du        
   2515 ****       129.7500 266.2500 322.7500 Du        
   2516 ****       129.7500 266.2500 323.0000 Du        
   2517 ****       129.7500 266.2500 323.2500 Du        
   2518 ****       129.7500 266.2500 323.5000 Du        
   2519 ****       129.7500 266.2500 323.7500 Du        
   2520 ****       129.7500 266.2500 324.0000 Du        
   2521 ****       129.7500 266.2500 324.2500 Du        
   2522 ****       129.7500 266.5000 322.5000 Du        
   2523 ****       129.7500 266.5000 322.7500 Du        
   2524 ****       129.7500 266.5000 323.0000 Du        
   2525 ****       129.7500 266.5000 323.2500 Du        
   2526 ****       129.7500 266.5000 323.5000 Du        
   2527 ****       129.7500 266.5000 323.7500 Du        
   2528 ****       129.7500 266.5000 324.0000 Du        
   2529 ****       129.7500 266.7500 322.5000 Du        
   2530 ****       129.7500 266.7500 322.7500 Du        
   2531 ****       129.7500 266.7500 323.0000 Du        
   2532 ****       129.7500 266.7500 323.2500 Du        
   2533 ****       129.7500 266.7500 323.5000 Du        
   2534 ****       129.7500 266.7500 323.7500 Du        
   2535 ****       129.7500 266.7500 324.0000 Du        
   2536 ****       129.7500 267.0000 322.5000 Du        
   2537 ****       129.7500 267.0000 322.7500 Du        
   2538 ****       129.7500 267.0000 323.0000 Du        
   2539 ****       129.7500 267.0000 323.2500 Du        
   2540 ****       129.7500 267.0000 323.5000 Du        
   2541 ****       129.7500 267.0000 323.7500 Du        
   2542 ****       129.7500 267.0000 324.0000 Du        
   2543 ****       129.7500 267.2500 322.5000 Du        
   2544 ****       129.7500 267.2500 322.7500 Du        
   2545 ****       129.7500 267.2500 323.0000 Du        
   2546 ****       129.7500 267.2500 323.2500 Du        
   2547 ****       129.7500 267.2500 323.5000 Du        
   2548 ****       129.7500 267.2500 323.7500 Du        
   2549 ****       129.7500 267.2500 324.0000 Du        
   2550 ****       129.7500 267.2500 327.5000 Du        
   2551 ****       129.7500 267.5000 322.5000 Du        
   2552 ****       129.7500 267.5000 322.7500 Du        
   2553 ****       129.7500 267.5000 323.0000 Du        
   2554 ****       129.7500 267.5000 323.2500 Du        
   2555 ****       129.7500 267.5000 327.5000 Du        
   2556 ****       129.7500 267.7500 322.2500 Du        
   2557 ****       129.7500 267.7500 322.5000 Du        
   2558 ****       129.7500 267.7500 322.7500 Du        
   2559 ****       129.7500 267.7500 323.0000 Du        
   2560 ****       129.7500 267.7500 323.2500 Du        
   2561 ****       129.7500 267.7500 327.5000 Du        
   2562 ****       129.7500 267.7500 327.7500 Du        
   2563 ****       129.7500 268.0000 322.2500 Du        
   2564 ****       129.7500 268.0000 322.5000 Du        
   2565 ****       129.7500 268.0000 322.7500 Du        
   2566 ****       129.7500 268.0000 323.0000 Du        
   2567 ****       129.7500 268.0000 323.2500 Du        
   2568 ****       129.7500 268.0000 327.5000 Du        
   2569 ****       129.7500 268.0000 327.7500 Du        
   2570 ****       129.7500 268.0000 328.0000 Du        
   2571 ****       129.7500 268.2500 322.2500 Du        
   2572 ****       129.7500 268.2500 322.5000 Du        
   2573 ****       129.7500 268.2500 322.7500 Du        
   2574 ****       129.7500 268.2500 323.0000 Du        
   2575 ****       129.7500 268.2500 323.2500 Du        
   2576 ****       129.7500 268.2500 327.7500 Du        
   2577 ****       129.7500 268.2500 328.0000 Du        
   2578 ****       129.7500 268.2500 328.2500 Du        
   2579 ****       129.7500 268.2500 328.5000 Du        
   2580 ****       129.7500 268.5000 322.7500 Du        
   2581 ****       129.7500 268.5000 323.0000 Du        
   2582 ****       129.7500 268.5000 323.2500 Du        
   2583 ****       130.0000 264.7500 322.0000 Du        
   2584 ****       130.0000 264.7500 322.2500 Du        
   2585 ****       130.0000 264.7500 322.5000 Du        
   2586 ****       130.0000 264.7500 322.7500 Du        
   2587 ****       130.0000 264.7500 323.0000 Du        
   2588 ****       130.0000 265.0000 322.2500 Du        
   2589 ****       130.0000 265.0000 322.5000 Du        
   2590 ****       130.0000 265.0000 322.7500 Du        
   2591 ****       130.0000 265.0000 323.0000 Du        
   2592 ****       130.0000 265.0000 323.2500 Du        
   2593 ****       130.0000 265.0000 323.5000 Du        
   2594 ****       130.0000 265.0000 323.7500 Du        
   2595 ****       130.0000 265.0000 324.0000 Du        
   2596 ****       130.0000 265.0000 324.2500 Du        
   2597 ****       130.0000 265.2500 322.2500 Du        
   2598 ****       130.0000 265.2500 322.5000 Du        
   2599 ****       130.0000 265.2500 322.7500 Du        
   2600 ****       130.0000 265.2500 323.0000 Du        
   2601 ****       130.0000 265.2500 323.2500 Du        
   2602 ****       130.0000 265.2500 323.5000 Du        
   2603 ****       130.0000 265.2500 323.7500 Du        
   2604 ****       130.0000 265.2500 324.0000 Du        
   2605 ****       130.0000 265.2500 324.2500 Du        
   2606 ****       130.0000 265.2500 324.5000 Du        
   2607 ****       130.0000 265.5000 322.2500 Du        
   2608 ****       130.0000 265.5000 322.5000 Du        
   2609 ****       130.0000 265.5000 322.7500 Du        
   2610 ****       130.0000 265.5000 323.0000 Du        
   2611 ****       130.0000 265.5000 323.2500 Du        
   2612 ****       130.0000 265.5000 323.5000 Du        
   2613 ****       130.0000 265.5000 323.7500 Du        
   2614 ****       130.0000 265.5000 324.0000 Du        
   2615 ****       130.0000 265.5000 324.2500 Du        
   2616 ****       130.0000 265.7500 322.2500 Du        
   2617 ****       130.0000 265.7500 322.5000 Du        
   2618 ****       130.0000 265.7500 322.7500 Du        
   2619 ****       130.0000 265.7500 323.0000 Du        
   2620 ****       130.0000 265.7500 323.2500 Du        
   2621 ****       130.0000 265.7500 323.5000 Du        
   2622 ****       130.0000 265.7500 323.7500 Du        
   2623 ****       130.0000 265.7500 324.0000 Du        
   2624 ****       130.0000 265.7500 324.2500 Du        
   2625 ****       130.0000 266.0000 322.5000 Du        
   2626 ****       130.0000 266.0000 322.7500 Du        
   2627 ****       130.0000 266.0000 323.0000 Du        
   2628 ****       130.0000 266.0000 323.2500 Du        
   2629 ****       130.0000 266.0000 323.5000 Du        
   2630 ****       130.0000 266.0000 323.7500 Du        
   2631 ****       130.0000 266.0000 324.0000 Du        
   2632 ****       130.0000 266.0000 324.2500 Du        
   2633 ****       130.0000 266.2500 322.5000 Du        
   2634 ****       130.0000 266.2500 322.7500 Du        
   2635 ****       130.0000 266.2500 323.0000 Du        
   2636 ****       130.0000 266.2500 323.2500 Du        
   2637 ****       130.0000 266.2500 323.5000 Du        
   2638 ****       130.0000 266.2500 323.7500 Du        
   2639 ****       130.0000 266.2500 324.0000 Du        
   2640 ****       130.0000 266.2500 324.2500 Du        
   2641 ****       130.0000 266.5000 322.5000 Du        
   2642 ****       130.0000 266.5000 322.7500 Du        
   2643 ****       130.0000 266.5000 323.0000 Du        
   2644 ****       130.0000 266.5000 323.2500 Du        
   2645 ****       130.0000 266.5000 323.5000 Du        
   2646 ****       130.0000 266.5000 323.7500 Du        
   2647 ****       130.0000 266.7500 322.5000 Du        
   2648 ****       130.0000 266.7500 322.7500 Du        
   2649 ****       130.0000 266.7500 323.0000 Du        
   2650 ****       130.0000 266.7500 323.2500 Du        
   2651 ****       130.0000 266.7500 323.5000 Du        
   2652 ****       130.0000 266.7500 323.7500 Du        
   2653 ****       130.0000 267.0000 322.5000 Du        
   2654 ****       130.0000 267.0000 322.7500 Du        
   2655 ****       130.0000 267.0000 323.0000 Du        
   2656 ****       130.0000 267.0000 323.2500 Du        
   2657 ****       130.0000 267.0000 323.5000 Du        
   2658 ****       130.0000 267.0000 323.7500 Du        
   2659 ****       130.0000 267.2500 322.5000 Du        
   2660 ****       130.0000 267.2500 322.7500 Du        
   2661 ****       130.0000 267.2500 323.0000 Du        
   2662 ****       130.0000 267.2500 323.2500 Du        
   2663 ****       130.0000 267.2500 323.5000 Du        
   2664 ****       130.0000 267.2500 327.0000 Du        
   2665 ****       130.0000 267.2500 327.2500 Du        
   2666 ****       130.0000 267.2500 327.5000 Du        
   2667 ****       130.0000 267.5000 322.5000 Du        
   2668 ****       130.0000 267.5000 322.7500 Du        
   2669 ****       130.0000 267.5000 323.0000 Du        
   2670 ****       130.0000 267.5000 323.2500 Du        
   2671 ****       130.0000 267.5000 327.5000 Du        
   2672 ****       130.0000 267.5000 327.7500 Du        
   2673 ****       130.0000 267.7500 322.5000 Du        
   2674 ****       130.0000 267.7500 322.7500 Du        
   2675 ****       130.0000 267.7500 323.0000 Du        
   2676 ****       130.0000 267.7500 323.2500 Du        
   2677 ****       130.0000 267.7500 327.5000 Du        
   2678 ****       130.0000 267.7500 327.7500 Du        
   2679 ****       130.0000 267.7500 328.0000 Du        
   2680 ****       130.0000 267.7500 328.2500 Du        
   2681 ****       130.0000 267.7500 328.5000 Du        
   2682 ****       130.0000 268.0000 322.5000 Du        
   2683 ****       130.0000 268.0000 322.7500 Du        
   2684 ****       130.0000 268.0000 323.0000 Du        
   2685 ****       130.0000 268.0000 323.2500 Du        
   2686 ****       130.0000 268.0000 327.5000 Du        
   2687 ****       130.0000 268.0000 327.7500 Du        
   2688 ****       130.0000 268.0000 328.0000 Du        
   2689 ****       130.0000 268.0000 328.2500 Du        
   2690 ****       130.0000 268.0000 328.5000 Du        
   2691 ****       130.0000 268.0000 328.7500 Du        
   2692 ****       130.0000 268.0000 329.0000 Du        
   2693 ****       130.0000 268.2500 322.5000 Du        
   2694 ****       130.0000 268.2500 322.7500 Du        
   2695 ****       130.0000 268.2500 323.0000 Du        
   2696 ****       130.0000 268.2500 323.2500 Du        
   2697 ****       130.0000 268.2500 327.7500 Du        
   2698 ****       130.0000 268.2500 328.0000 Du        
   2699 ****       130.0000 268.2500 328.2500 Du        
   2700 ****       130.0000 268.2500 328.5000 Du        
   2701 ****       130.0000 268.2500 328.7500 Du        
   2702 ****       130.0000 268.2500 329.0000 Du        
   2703 ****       130.0000 268.2500 329.2500 Du        
   2704 ****       130.2500 264.7500 322.0000 Du        
   2705 ****       130.2500 264.7500 322.2500 Du        
   2706 ****       130.2500 264.7500 322.5000 Du        
   2707 ****       130.2500 264.7500 322.7500 Du        
   2708 ****       130.2500 265.0000 322.2500 Du        
   2709 ****       130.2500 265.0000 322.5000 Du        
   2710 ****       130.2500 265.0000 322.7500 Du        
   2711 ****       130.2500 265.0000 323.0000 Du        
   2712 ****       130.2500 265.0000 323.2500 Du        
   2713 ****       130.2500 265.0000 323.5000 Du        
   2714 ****       130.2500 265.0000 323.7500 Du        
   2715 ****       130.2500 265.0000 324.0000 Du        
   2716 ****       130.2500 265.0000 324.2500 Du        
   2717 ****       130.2500 265.2500 322.2500 Du        
   2718 ****       130.2500 265.2500 322.5000 Du        
   2719 ****       130.2500 265.2500 322.7500 Du        
   2720 ****       130.2500 265.2500 323.0000 Du        
   2721 ****       130.2500 265.2500 323.2500 Du        
   2722 ****       130.2500 265.2500 323.5000 Du        
   2723 ****       130.2500 265.2500 323.7500 Du        
   2724 ****       130.2500 265.2500 324.0000 Du        
   2725 ****       130.2500 265.2500 324.2500 Du        
   2726 ****       130.2500 265.2500 324.5000 Du        
   2727 ****       130.2500 265.5000 322.5000 Du        
   2728 ****       130.2500 265.5000 322.7500 Du        
   2729 ****       130.2500 265.5000 323.0000 Du        
   2730 ****       130.2500 265.5000 323.2500 Du        
   2731 ****       130.2500 265.5000 323.5000 Du        
   2732 ****       130.2500 265.5000 323.7500 Du        
   2733 ****       130.2500 265.5000 324.0000 Du        
   2734 ****       130.2500 265.5000 324.2500 Du        
   2735 ****       130.2500 265.7500 322.5000 Du        
   2736 ****       130.2500 265.7500 322.7500 Du        
   2737 ****       130.2500 265.7500 323.0000 Du        
   2738 ****       130.2500 265.7500 323.2500 Du        
   2739 ****       130.2500 265.7500 323.5000 Du        
   2740 ****       130.2500 265.7500 323.7500 Du        
   2741 ****       130.2500 265.7500 324.0000 Du        
   2742 ****       130.2500 265.7500 324.2500 Du        
   2743 ****       130.2500 266.0000 322.5000 Du        
   2744 ****       130.2500 266.0000 322.7500 Du        
   2745 ****       130.2500 266.0000 323.0000 Du        
   2746 ****       130.2500 266.0000 323.2500 Du        
   2747 ****       130.2500 266.0000 323.5000 Du        
   2748 ****       130.2500 266.0000 323.7500 Du        
   2749 ****       130.2500 266.0000 324.0000 Du        
   2750 ****       130.2500 266.2500 322.5000 Du        
   2751 ****       130.2500 266.2500 322.7500 Du        
   2752 ****       130.2500 266.2500 323.0000 Du        
   2753 ****       130.2500 266.2500 323.2500 Du        
   2754 ****       130.2500 266.2500 323.5000 Du        
   2755 ****       130.2500 266.2500 323.7500 Du        
   2756 ****       130.2500 266.2500 324.0000 Du        
   2757 ****       130.2500 266.5000 322.7500 Du        
   2758 ****       130.2500 266.5000 323.0000 Du        
   2759 ****       130.2500 266.5000 323.2500 Du        
   2760 ****       130.2500 266.5000 323.5000 Du        
   2761 ****       130.2500 266.7500 322.7500 Du        
   2762 ****       130.2500 266.7500 323.0000 Du        
   2763 ****       130.2500 266.7500 323.2500 Du        
   2764 ****       130.2500 266.7500 323.5000 Du        
   2765 ****       130.2500 267.0000 322.7500 Du        
   2766 ****       130.2500 267.0000 323.0000 Du        
   2767 ****       130.2500 267.0000 323.2500 Du        
   2768 ****       130.2500 267.2500 322.7500 Du        
   2769 ****       130.2500 267.2500 323.0000 Du        
   2770 ****       130.2500 267.2500 323.2500 Du        
   2771 ****       130.2500 267.5000 322.7500 Du        
   2772 ****       130.2500 267.5000 323.0000 Du        
   2773 ****       130.2500 267.5000 323.2500 Du        
   2774 ****       130.2500 267.7500 322.7500 Du        
   2775 ****       130.2500 267.7500 323.0000 Du        
   2776 ****       130.2500 268.0000 322.7500 Du        
   2777 ****       130.2500 268.0000 323.0000 Du        
   2778 ****       130.2500 268.0000 323.2500 Du        
   2779 ****       130.2500 268.2500 322.7500 Du        
   2780 ****       130.2500 268.2500 323.0000 Du        
   2781 ****       130.5000 265.0000 322.5000 Du        
   2782 ****       130.5000 265.0000 322.7500 Du        
   2783 ****       130.5000 265.0000 323.0000 Du        
   2784 ****       130.5000 265.0000 323.2500 Du        
   2785 ****       130.5000 265.0000 323.7500 Du        
   2786 ****       130.5000 265.0000 324.0000 Du        
   2787 ****       130.5000 265.2500 322.5000 Du        
   2788 ****       130.5000 265.2500 322.7500 Du        
   2789 ****       130.5000 265.2500 323.0000 Du        
   2790 ****       130.5000 265.2500 323.2500 Du        
   2791 ****       130.5000 265.2500 323.5000 Du        
   2792 ****       130.5000 265.2500 323.7500 Du        
   2793 ****       130.5000 265.2500 324.0000 Du        
   2794 ****       130.5000 265.2500 324.2500 Du        
   2795 ****       130.5000 265.5000 322.5000 Du        
   2796 ****       130.5000 265.5000 322.7500 Du        
   2797 ****       130.5000 265.5000 323.0000 Du        
   2798 ****       130.5000 265.5000 323.2500 Du        
   2799 ****       130.5000 265.5000 323.5000 Du        
   2800 ****       130.5000 265.5000 323.7500 Du        
   2801 ****       130.5000 265.5000 324.0000 Du        
   2802 ****       130.5000 265.7500 322.7500 Du        
   2803 ****       130.5000 265.7500 323.0000 Du        
   2804 ****       130.5000 265.7500 323.2500 Du        
   2805 ****       130.5000 265.7500 323.5000 Du        
   2806 ****       130.5000 265.7500 323.7500 Du        
   2807 ****       130.5000 266.0000 322.7500 Du        
   2808 ****       130.5000 266.0000 323.0000 Du        
   2809 ****       130.5000 266.0000 323.2500 Du        
   2810 ****       130.5000 266.0000 323.5000 Du        
   2811 ****       130.5000 266.0000 323.7500 Du        
   2812 ****       130.5000 266.2500 322.7500 Du        
   2813 ****       130.5000 266.2500 323.0000 Du        
   2814 ****       130.5000 266.2500 323.2500 Du        
   2815 ****       130.7500 265.0000 322.5000 Du        
   2816 ****       130.7500 265.0000 322.7500 Du        
   2817 ****       130.7500 265.0000 323.0000 Du        
   2818 ****       130.7500 265.0000 323.2500 Du        
   2819 ****       130.7500 265.0000 324.0000 Du        
   2820 ****       130.7500 265.2500 322.7500 Du        
   2821 ****       130.7500 265.2500 323.0000 Du        
   2822 ****       130.7500 265.2500 323.2500 Du        
   2823 ****       130.7500 265.2500 323.5000 Du        
   2824 ****       130.7500 265.2500 323.7500 Du        
   2825 ****       130.7500 265.2500 324.0000 Du        
   2826 ****       130.7500 265.2500 324.2500 Du        
   2827 ****       130.7500 265.5000 322.5000 Du        
   2828 ****       130.7500 265.5000 322.7500 Du        
   2829 ****       130.7500 265.5000 323.0000 Du        
   2830 ****       130.7500 265.5000 323.2500 Du        
   2831 ****       130.7500 265.5000 323.5000 Du        
   2832 ****       130.7500 265.5000 323.7500 Du        
   2833 ****       130.7500 265.7500 322.7500 Du        
   2834 ****       130.7500 265.7500 323.0000 Du        
   2835 ****       130.7500 265.7500 323.2500 Du        
   2836 ****       130.7500 265.7500 323.5000 Du        
   2837 ****       130.7500 265.7500 323.7500 Du        
   2838 ****       130.7500 265.7500 324.0000 Du        
   2839 ****       130.7500 266.0000 322.7500 Du        
   2840 ****       130.7500 266.0000 323.0000 Du        
   2841 ****       130.7500 266.0000 323.2500 Du        
   2842 ****       130.7500 266.0000 323.7500 Du        
   2843 ****       130.7500 266.2500 323.0000 Du        
   2844 ****       130.7500 266.2500 323.2500 Du        
   2845 ****       131.0000 265.0000 322.7500 Du        
   2846 ****       131.0000 265.0000 323.0000 Du        
   2847 ****       131.0000 265.0000 323.2500 Du        
   2848 ****       131.0000 265.2500 322.7500 Du        
   2849 ****       131.0000 265.2500 323.0000 Du        
   2850 ****       131.0000 265.2500 323.2500 Du        
   2851 ****       131.0000 265.2500 323.7500 Du        
   2852 ****       131.0000 265.2500 324.0000 Du        
   2853 ****       131.0000 265.2500 324.2500 Du        
   2854 ****       131.0000 265.5000 322.7500 Du        
   2855 ****       131.0000 265.5000 323.0000 Du        
   2856 ****       131.0000 265.5000 323.2500 Du        
   2857 ****       131.0000 265.5000 323.5000 Du        
   2858 ****       131.0000 265.5000 323.7500 Du        
   2859 ****       131.0000 265.7500 322.7500 Du        
   2860 ****       131.0000 265.7500 323.0000 Du        
   2861 ****       131.0000 265.7500 323.2500 Du        
   2862 ****       131.0000 265.7500 323.5000 Du        
   2863 ****       131.0000 265.7500 323.7500 Du        
   2864 ****       131.0000 266.0000 323.0000 Du        
   2865 ****       131.0000 266.0000 323.2500 Du        
   2866 ****       131.2500 265.0000 323.0000 Du        
   2867 ****       131.2500 265.0000 323.2500 Du        
   2868 ****       131.2500 265.2500 323.0000 Du        
   2869 ****       131.2500 265.2500 323.2500 Du        
   2870 ****       131.2500 265.2500 324.5000 Du        
   2871 ****       131.2500 265.5000 323.0000 Du        
   2872 ****       131.2500 265.5000 323.5000 Du        
   2873 ****       131.2500 265.7500 323.0000 Du        
   2874 ****       132.0000 265.0000 324.7500 Du        
   2875 ****       132.2500 264.5000 324.5000 Du        
   2876 ****       132.2500 264.7500 324.5000 Du        
   2877 ****       132.2500 264.7500 324.7500 Du        
   2878 ****       132.2500 265.0000 324.7500 Du        
   2879 ****       132.7500 264.7500 325.0000 Du        
   2880 ****       133.0000 264.7500 325.0000 Du        
