#       Name:                CT1002167954
#       Creating user name   hitesit
#       Creation time:       Sun Apr 16 02:24:51 2023


#       File generated by GOLD software.
#

@<TRIPOS>MOLECULE
CT1002167954|ligand_prepared|mol2|1|dock10
    29    30     1
SMALL
NO_CHARGES


@<TRIPOS>ATOM
      1 C1         128.1742 267.1653 324.1191 C.3            1 RES1               0.0000
      2 C2         126.9531 267.4741 325.0093 C.ar           1 RES1               0.0000
      3 C3         129.3604 266.9938 325.0634 C.2            1 RES1               0.0000
      4 C4         127.8203 265.9095 323.3302 C.2            1 RES1               0.0000
      5 C5         128.5095 268.2862 323.1078 C.3            1 RES1               0.0000
      6 C6         126.3099 268.7054 324.9277 C.ar           1 RES1               0.0000
      7 C7         126.4577 266.5383 325.9134 C.ar           1 RES1               0.0000
      8 N8         129.8252 265.7285 325.2706 N.am           1 RES1               0.0000
      9 O9         129.8552 267.9496 325.6480 O.2            1 RES1               0.0000
     10 N10        128.5432 264.7717 323.5763 N.am           1 RES1               0.0000
     11 O11        126.9112 265.8907 322.5096 O.2            1 RES1               0.0000
     12 C12        129.6713 267.9523 322.1854 C.3            1 RES1               0.0000
     13 C13        125.2094 268.9900 325.7190 C.ar           1 RES1               0.0000
     14 C14        125.3571 266.8250 326.7040 C.ar           1 RES1               0.0000
     15 C15        129.5092 264.6161 324.5327 C.2            1 RES1               0.0000
     16 C16        124.7320 268.0500 326.6073 C.ar           1 RES1               0.0000
     17 O17        130.0769 263.5457 324.7308 O.2            1 RES1               0.0000
     18 H18        127.6208 268.4885 322.4974 H              1 RES1               0.0000
     19 H19        128.7508 269.2015 323.6623 H              1 RES1               0.0000
     20 H20        126.6728 269.4586 324.2362 H              1 RES1               0.0000
     21 H21        126.9342 265.5684 326.0073 H              1 RES1               0.0000
     22 H22        130.4671 265.5972 326.0459 H              1 RES1               0.0000
     23 H23        128.3426 263.9660 322.9923 H              1 RES1               0.0000
     24 H24        129.8646 268.7718 321.4963 H              1 RES1               0.0000
     25 H25        130.5783 267.7699 322.7579 H              1 RES1               0.0000
     26 H26        129.4550 267.0611 321.5998 H              1 RES1               0.0000
     27 H27        124.7218 269.9561 325.6400 H              1 RES1               0.0000
     28 H28        124.9852 266.0824 327.4022 H              1 RES1               0.0000
     29 H29        123.8696 268.2730 327.2268 H              1 RES1               0.0000
@<TRIPOS>BOND
    1    1    2 1     
    2    1    3 1     
    3    1    4 1     
    4    1    5 1     
    5    2    6 ar    
    6    2    7 ar    
    7    3    8 1     
    8    3    9 2     
    9    4   10 1     
   10    4   11 2     
   11    5   12 1     
   12    5   18 1     
   13    5   19 1     
   14    6   13 ar    
   15    6   20 1     
   16    7   14 ar    
   17    7   21 1     
   18    8   15 1     
   19    8   22 1     
   20   10   15 1     
   21   10   23 1     
   22   12   24 1     
   23   12   25 1     
   24   12   26 1     
   25   13   16 ar    
   26   13   27 1     
   27   14   16 ar    
   28   14   28 1     
   29   15   17 2     
   30   16   29 1     
@<TRIPOS>SUBSTRUCTURE
      1 RES1           1
@<TRIPOS>SET
DONOR_HYDROGENS      STATIC     ATOMS    <user>   **** ""
2 22 23
ATOM$RED        STATIC     ATOMS    COLORGROUP SYSTEM
2 22 23
@<TRIPOS>COMMENT
> <Gold.Version>
2022.3.0

> <Gold.Id.Protein>
unknown|5uo4_clean|pdb

> <Gold.Protein.RotatedTorsions>
[  761  739  740  741 ] final -102.97 input   85.38 | X-H torsion
[  791  780  781  782 ] final   92.44 input   98.79 | X-H torsion
[ 1906 1895 1896 1897 ] final -161.59 input  105.28 | X-H torsion
[ 3221 3203 3202 3200 ] final   -2.58 input   59.99 | X-H torsion
[ 12734 12725 12726 12727 ] final  145.37 input   72.11 | X-H torsion
[ 12769 12762 12763 12764 ] final  164.91 input   62.98 | X-H torsion
[ 12775 12768 12766 12763 ] final  -68.97 input   59.99 | X-H torsion
[  817  803  804  805 ] final  -69.76 input   48.10 | X-H torsion
[  823  809  807  804 ] final   74.98 input   60.00 | X-H torsion
[ 2020 2015 2014 2011 ] final    8.37 input   59.99 | X-H torsion
[ 1953 1932 1933 1934 ] final  -45.90 input  111.26 | X-H torsion
[ 2042 2032 2033 2034 ] final   99.18 input  116.25 | X-H torsion
[ 2046 2037 2036 2033 ] final   97.47 input   60.01 | X-H torsion
[ 11769 11758 11759 11760 ] final   -2.54 input   53.32 | X-H torsion
[ 13520  631  630  629 ] final -102.15 input    0.00 | X-H torsion
[ 13523  742  741  740 ] final  176.97 input    0.00 | X-H torsion
[ 13526 1766 1765 1764 ] final  -36.89 input    0.00 | X-H torsion
[ 13533 1898 1897 1896 ] final -158.91 input   -0.00 | X-H torsion
[ 13537 3313 3312 3311 ] final -151.27 input   -0.00 | X-H torsion
[ 13540 12683 12682 12681 ] final   52.53 input   -0.00 | X-H torsion
[ 13543 12728 12727 12726 ] final  151.82 input   -0.00 | X-H torsion
[ 13546 12765 12764 12763 ] final  -20.37 input   -0.00 | X-H torsion
[ 13551 12793 12792 12791 ] final   44.41 input    0.00 | X-H torsion
[ 13553  703  702  701 ] final   82.22 input    0.00 | X-H torsion
[ 13555  783  782  781 ] final  -68.11 input    0.00 | X-H torsion
[ 13562 11761 11760 11759 ] final    4.25 input   -0.00 | X-H torsion
[ 13568 11734 11733 11732 ] final  -80.95 input   -0.00 | X-H torsion

> <Gold.Protein.ActiveResidues>
 LEU321  HIS322  LEU323  LYS324  SER325  THR326  GLU365  PHE366  ASP368  GLN369 
 TYR370  SER372  SER373  TYR408  HIS412  ARG415  ASN416  CYS673  ARG674  PRO678 
 TYR703  ARG704  LEU705  THR706  PRO707 

> <Gold.Protein.RotatedAtoms>
  123.8476  270.9744  332.6567 H   0  0  0  0  0  0  0  0  0  0  0  0  # atno 761  bound_to 739 
  121.7431  269.2455  332.1414 H   0  0  0  0  0  0  0  0  0  0  0  0  # atno 791  bound_to 780 
  118.1004  269.2287  331.0995 H   0  0  0  0  0  0  0  0  0  0  0  0  # atno 817  bound_to 803 
  116.4697  270.2659  327.5352 H   0  0  0  0  0  0  0  0  0  0  0  0  # atno 823  bound_to 809 
  125.5456  272.1666  320.1186 H   0  0  0  0  0  0  0  0  0  0  0  0  # atno 1906 bound_to 1895
  127.2205  269.6525  318.8126 H   0  0  0  0  0  0  0  0  0  0  0  0  # atno 1953 bound_to 1932
  131.8868  270.8315  321.4805 H   0  0  0  0  0  0  0  0  0  0  0  0  # atno 2020 bound_to 2015
  130.2168  269.0296  318.6252 H   0  0  0  0  0  0  0  0  0  0  0  0  # atno 2042 bound_to 2032
  130.7223  265.6193  317.2275 H   0  0  0  0  0  0  0  0  0  0  0  0  # atno 2046 bound_to 2037
  128.0196  265.4818  320.5229 H   0  0  0  0  0  0  0  0  0  0  0  0  # atno 3221 bound_to 3203
  134.1260  263.2609  330.4190 H   0  0  0  0  0  0  0  0  0  0  0  0  # atno 11769 bound_to 11758
  119.8129  263.2800  329.7526 H   0  0  0  0  0  0  0  0  0  0  0  0  # atno 12734 bound_to 12725
  118.8093  265.1684  326.3914 H   0  0  0  0  0  0  0  0  0  0  0  0  # atno 12769 bound_to 12762
  117.8555  265.4791  321.9538 H   0  0  0  0  0  0  0  0  0  0  0  0  # atno 12775 bound_to 12768
  124.9860  268.7226  332.1614 LP  0  0  0  0  0  0  0  0  0  0  0  0  # atno 13520 bound_to 631 
  124.8867  267.2184  331.3083 LP  0  0  0  0  0  0  0  0  0  0  0  0  # atno 13521 bound_to 631 
  124.0948  269.2889  332.2689 LP  0  0  0  0  0  0  0  0  0  0  0  0  # atno 13522 bound_to 739 
  120.6190  269.9579  328.9596 LP  0  0  0  0  0  0  0  0  0  0  0  0  # atno 13523 bound_to 742 
  122.0355  270.8623  328.5402 LP  0  0  0  0  0  0  0  0  0  0  0  0  # atno 13524 bound_to 742 
  121.9160  269.7607  330.4853 LP  0  0  0  0  0  0  0  0  0  0  0  0  # atno 13525 bound_to 780 
  123.5055  272.6138  320.3041 LP  0  0  0  0  0  0  0  0  0  0  0  0  # atno 13526 bound_to 1766
  123.2462  270.9031  320.3816 LP  0  0  0  0  0  0  0  0  0  0  0  0  # atno 13527 bound_to 1766
  125.5579  271.2161  318.6588 LP  0  0  0  0  0  0  0  0  0  0  0  0  # atno 13532 bound_to 1895
  128.8545  268.4303  318.7771 LP  0  0  0  0  0  0  0  0  0  0  0  0  # atno 13533 bound_to 1898
  128.5013  268.5844  320.4657 LP  0  0  0  0  0  0  0  0  0  0  0  0  # atno 13534 bound_to 1898
  126.4280  265.3785  320.8434 LP  0  0  0  0  0  0  0  0  0  0  0  0  # atno 13535 bound_to 3203
  127.0127  266.6457  319.9955 LP  0  0  0  0  0  0  0  0  0  0  0  0  # atno 13536 bound_to 3203
  122.1159  258.9833  323.7222 LP  0  0  0  0  0  0  0  0  0  0  0  0  # atno 13537 bound_to 3313
  123.3789  260.1685  323.7078 LP  0  0  0  0  0  0  0  0  0  0  0  0  # atno 13538 bound_to 3313
  118.4158  265.9956  330.6167 LP  0  0  0  0  0  0  0  0  0  0  0  0  # atno 13540 bound_to 12683
  118.0337  265.9123  328.9294 LP  0  0  0  0  0  0  0  0  0  0  0  0  # atno 13541 bound_to 12683
  118.3137  263.4699  328.8713 LP  0  0  0  0  0  0  0  0  0  0  0  0  # atno 13542 bound_to 12725
  118.1287  262.8557  325.6695 LP  0  0  0  0  0  0  0  0  0  0  0  0  # atno 13543 bound_to 12728
  119.1702  262.1193  326.8413 LP  0  0  0  0  0  0  0  0  0  0  0  0  # atno 13544 bound_to 12728
  120.4479  264.9534  325.8287 LP  0  0  0  0  0  0  0  0  0  0  0  0  # atno 13545 bound_to 12762
  120.9413  266.3954  324.2012 LP  0  0  0  0  0  0  0  0  0  0  0  0  # atno 13546 bound_to 12765
  121.9733  265.5113  323.1273 LP  0  0  0  0  0  0  0  0  0  0  0  0  # atno 13547 bound_to 12765
  116.3846  265.8480  322.5451 LP  0  0  0  0  0  0  0  0  0  0  0  0  # atno 13548 bound_to 12768
  116.9882  264.3421  322.7312 LP  0  0  0  0  0  0  0  0  0  0  0  0  # atno 13549 bound_to 12768
  120.1611  262.2187  324.0193 LP  0  0  0  0  0  0  0  0  0  0  0  0  # atno 13551 bound_to 12793
  119.8303  260.5746  323.5863 LP  0  0  0  0  0  0  0  0  0  0  0  0  # atno 13552 bound_to 12793
  123.7834  273.0320  332.5058 LP  0  0  0  0  0  0  0  0  0  0  0  0  # atno 13553 bound_to 703 
  122.2041  272.3420  332.6788 LP  0  0  0  0  0  0  0  0  0  0  0  0  # atno 13554 bound_to 703 
  119.1234  270.5948  332.8070 LP  0  0  0  0  0  0  0  0  0  0  0  0  # atno 13555 bound_to 783 
  119.2585  271.7054  331.4847 LP  0  0  0  0  0  0  0  0  0  0  0  0  # atno 13556 bound_to 783 
  118.4615  269.5478  329.4183 LP  0  0  0  0  0  0  0  0  0  0  0  0  # atno 13557 bound_to 803 
  118.0135  270.1847  328.0420 LP  0  0  0  0  0  0  0  0  0  0  0  0  # atno 13558 bound_to 809 
  117.5423  271.3838  327.0387 LP  0  0  0  0  0  0  0  0  0  0  0  0  # atno 13559 bound_to 809 
  130.4614  270.3904  322.1295 LP  0  0  0  0  0  0  0  0  0  0  0  0  # atno 13560 bound_to 2015
  131.0554  271.8877  322.3975 LP  0  0  0  0  0  0  0  0  0  0  0  0  # atno 13561 bound_to 2015
  130.4198  265.4853  329.5312 LP  0  0  0  0  0  0  0  0  0  0  0  0  # atno 13562 bound_to 11761
  130.5327  265.8642  331.2176 LP  0  0  0  0  0  0  0  0  0  0  0  0  # atno 13563 bound_to 11761
  125.6866  269.5264  317.9905 LP  0  0  0  0  0  0  0  0  0  0  0  0  # atno 13564 bound_to 1932
  131.5307  269.6399  319.6049 LP  0  0  0  0  0  0  0  0  0  0  0  0  # atno 13565 bound_to 2032
  130.5103  267.2307  317.1507 LP  0  0  0  0  0  0  0  0  0  0  0  0  # atno 13566 bound_to 2037
  129.2471  266.2533  317.4908 LP  0  0  0  0  0  0  0  0  0  0  0  0  # atno 13567 bound_to 2037
  135.1935  265.2257  328.1599 LP  0  0  0  0  0  0  0  0  0  0  0  0  # atno 13568 bound_to 11734
  134.3437  264.2330  327.0231 LP  0  0  0  0  0  0  0  0  0  0  0  0  # atno 13569 bound_to 11734
  134.1180  262.6799  328.7710 LP  0  0  0  0  0  0  0  0  0  0  0  0  # atno 13570 bound_to 11758

> <Gold.Score>
     Fitness  S(hb_ext) S(vdw_ext)  S(hb_int)    S(int)      intcor
     27.71       2.46      18.92       0.00      -0.77      -0.76

> <Gold.Goldscore.Fitness>
27.7115

> <Gold.Goldscore.Internal.Vdw>
-1.1506

> <Gold.Goldscore.Internal.Torsion>
-0.3784

> <Gold.Goldscore.External.Vdw>
18.9250

> <Gold.Goldscore.Internal.HBond>
0.0000

> <Gold.Goldscore.External.HBond>
2.4601

> <Gold.Goldscore.Internal.Correction>
-0.7585

> <Gold.Goldscore.Hbonds>
donor molecule, donor type, donor heavy atom, donor atom, acceptor molecule, acceptor atom, score
      L1  H    10    23       P1  3319  0.41

> <Gold.Goldscore.Internal.Vdw.Weighted>
-1.1506

> <Gold.Goldscore.Internal.Torsion.Weighted>
-0.3784

> <Gold.Goldscore.External.Vdw.Weighted>
26.0218

> <Gold.Goldscore.Internal.HBond.Weighted>
0.0000

> <Gold.Goldscore.External.HBond.Weighted>
2.4601

> <Gold.Goldscore.Internal.Correction.Weighted>
-0.7585

> <Gold.Rescore>
     Score     S(PLP)   S(hbond)     S(cho)   S(metal)  DE(clash)   DE(tors)     intcor
     30.37     -29.91       0.17       0.00       0.00       0.00       0.03       ----

> <Gold.PLP.Fitness>
30.3693

> <Gold.PLP.PLP>
-29.9058

> <Gold.PLP.part.hbond>
-3.2992

> <Gold.PLP.part.metal>
0.0000

> <Gold.PLP.part.buried>
-2.6037

> <Gold.PLP.part.nonpolar>
-24.0668

> <Gold.PLP.part.repulsive>
0.4193

> <Gold.PLP.ligand.clash>
0.0000

> <Gold.PLP.ligand.torsion>
0.0257

> <Gold.PLP.Chemscore.Hbond>
0.1716

> <Gold.PLP.Chemscore.CHOScore>
0.0000

> <Gold.PLP.Chemscore.Metal>
0.0000

> <Gold.Chemscore.Hbonds>
donor molecule, donor type, donor heavy atom, donor atom, acceptor molecule, acceptor atom, score
      L1  H    10    23       P1  3319  0.39

> <Gold.PLP.Chemscore.Internal.Correction>
   9.000000E+99

