#       Name:                CT1002167954
#       Creating user name   hitesit
#       Creation time:       Sun Apr 16 02:24:46 2023


#       File generated by GOLD software.
#

@<TRIPOS>MOLECULE
CT1002167954|ligand_prepared|mol2|1|dock1
    29    30     1
SMALL
NO_CHARGES


@<TRIPOS>ATOM
      1 C1         128.1143 266.3915 323.9006 C.3            1 RES1               0.0000
      2 C2         126.6988 266.6745 324.4438 C.ar           1 RES1               0.0000
      3 C3         128.4446 267.5369 322.9481 C.2            1 RES1               0.0000
      4 C4         129.0297 266.3104 325.1171 C.2            1 RES1               0.0000
      5 C5         128.2310 265.0586 323.1251 C.3            1 RES1               0.0000
      6 C6         126.4440 267.8168 325.1969 C.ar           1 RES1               0.0000
      7 C7         125.6389 265.8056 324.1983 C.ar           1 RES1               0.0000
      8 N8         129.3411 268.4729 323.3724 N.am           1 RES1               0.0000
      9 O9         127.8970 267.6389 321.8572 O.2            1 RES1               0.0000
     10 N10        129.9941 267.2733 325.2603 N.am           1 RES1               0.0000
     11 O11        128.9139 265.4309 325.9617 O.2            1 RES1               0.0000
     12 C12        129.6412 264.7479 322.6487 C.3            1 RES1               0.0000
     13 C13        125.1751 268.0823 325.6844 C.ar           1 RES1               0.0000
     14 C14        124.3707 266.0730 324.6869 C.ar           1 RES1               0.0000
     15 C15        130.1714 268.3683 324.4593 C.2            1 RES1               0.0000
     16 C16        124.1377 267.2110 325.4294 C.ar           1 RES1               0.0000
     17 O17        131.0265 269.2201 324.6839 O.2            1 RES1               0.0000
     18 H18        127.8892 264.2421 323.7730 H              1 RES1               0.0000
     19 H19        127.5647 265.0972 322.2544 H              1 RES1               0.0000
     20 H20        127.2486 268.5128 325.4098 H              1 RES1               0.0000
     21 H21        125.7992 264.9037 323.6174 H              1 RES1               0.0000
     22 H22        129.3996 269.3299 322.8315 H              1 RES1               0.0000
     23 H23        130.6398 267.1635 326.0358 H              1 RES1               0.0000
     24 H24        129.6670 263.8025 322.1108 H              1 RES1               0.0000
     25 H25        130.0035 265.5274 321.9816 H              1 RES1               0.0000
     26 H26        130.3261 264.6774 323.4912 H              1 RES1               0.0000
     27 H27        124.9972 268.9786 326.2694 H              1 RES1               0.0000
     28 H28        123.5573 265.3841 324.4844 H              1 RES1               0.0000
     29 H29        123.1436 267.4194 325.8111 H              1 RES1               0.0000
@<TRIPOS>BOND
    1    1    2 1     
    2    1    3 1     
    3    1    4 1     
    4    1    5 1     
    5    2    6 ar    
    6    2    7 ar    
    7    3    8 1     
    8    3    9 2     
    9    4   10 1     
   10    4   11 2     
   11    5   12 1     
   12    5   18 1     
   13    5   19 1     
   14    6   13 ar    
   15    6   20 1     
   16    7   14 ar    
   17    7   21 1     
   18    8   15 1     
   19    8   22 1     
   20   10   15 1     
   21   10   23 1     
   22   12   24 1     
   23   12   25 1     
   24   12   26 1     
   25   13   16 ar    
   26   13   27 1     
   27   14   16 ar    
   28   14   28 1     
   29   15   17 2     
   30   16   29 1     
@<TRIPOS>SUBSTRUCTURE
      1 RES1           1
@<TRIPOS>SET
DONOR_HYDROGENS      STATIC     ATOMS    <user>   **** ""
2 22 23
ATOM$RED        STATIC     ATOMS    COLORGROUP SYSTEM
2 22 23
@<TRIPOS>COMMENT
> <Gold.Version>
2022.3.0

> <Gold.Id.Protein>
unknown|5uo4_clean|pdb

> <Gold.Protein.RotatedTorsions>
[  761  739  740  741 ] final  -62.07 input   85.38 | X-H torsion
[  791  780  781  782 ] final  104.47 input   98.79 | X-H torsion
[ 1906 1895 1896 1897 ] final -150.60 input  105.28 | X-H torsion
[ 3221 3203 3202 3200 ] final   51.38 input   59.99 | X-H torsion
[ 12734 12725 12726 12727 ] final  157.52 input   72.11 | X-H torsion
[ 12769 12762 12763 12764 ] final  -44.20 input   62.98 | X-H torsion
[ 12775 12768 12766 12763 ] final -162.62 input   59.99 | X-H torsion
[  817  803  804  805 ] final  157.41 input   48.10 | X-H torsion
[  823  809  807  804 ] final   49.56 input   60.00 | X-H torsion
[ 2020 2015 2014 2011 ] final  -14.70 input   59.99 | X-H torsion
[ 1953 1932 1933 1934 ] final  -75.33 input  111.26 | X-H torsion
[ 2042 2032 2033 2034 ] final  155.14 input  116.25 | X-H torsion
[ 2046 2037 2036 2033 ] final   31.81 input   60.01 | X-H torsion
[ 11769 11758 11759 11760 ] final   51.81 input   53.32 | X-H torsion
[ 13520  631  630  629 ] final   12.34 input    0.00 | X-H torsion
[ 13523  742  741  740 ] final  157.05 input    0.00 | X-H torsion
[ 13526 1766 1765 1764 ] final  -71.02 input    0.00 | X-H torsion
[ 13533 1898 1897 1896 ] final  -28.63 input   -0.00 | X-H torsion
[ 13537 3313 3312 3311 ] final  119.33 input   -0.00 | X-H torsion
[ 13540 12683 12682 12681 ] final  -94.58 input   -0.00 | X-H torsion
[ 13543 12728 12727 12726 ] final    6.65 input   -0.00 | X-H torsion
[ 13546 12765 12764 12763 ] final  170.91 input   -0.00 | X-H torsion
[ 13551 12793 12792 12791 ] final  -63.24 input    0.00 | X-H torsion
[ 13553  703  702  701 ] final   -5.11 input    0.00 | X-H torsion
[ 13555  783  782  781 ] final -132.80 input    0.00 | X-H torsion
[ 13562 11761 11760 11759 ] final    6.09 input   -0.00 | X-H torsion
[ 13568 11734 11733 11732 ] final  -20.09 input   -0.00 | X-H torsion

> <Gold.Protein.ActiveResidues>
 LEU321  HIS322  LEU323  LYS324  SER325  THR326  GLU365  PHE366  ASP368  GLN369 
 TYR370  SER372  SER373  TYR408  HIS412  ARG415  ASN416  CYS673  ARG674  PRO678 
 TYR703  ARG704  LEU705  THR706  PRO707 

> <Gold.Protein.RotatedAtoms>
  123.3269  270.6550  332.7423 H   0  0  0  0  0  0  0  0  0  0  0  0  # atno 761  bound_to 739 
  121.8212  269.0908  332.0811 H   0  0  0  0  0  0  0  0  0  0  0  0  # atno 791  bound_to 780 
  118.8293  269.9631  329.8456 H   0  0  0  0  0  0  0  0  0  0  0  0  # atno 817  bound_to 803 
  116.6697  270.0044  327.7825 H   0  0  0  0  0  0  0  0  0  0  0  0  # atno 823  bound_to 809 
  125.6877  272.2310  320.0588 H   0  0  0  0  0  0  0  0  0  0  0  0  # atno 1906 bound_to 1895
  127.0342  269.2813  318.9763 H   0  0  0  0  0  0  0  0  0  0  0  0  # atno 1953 bound_to 1932
  131.6934  270.5116  321.4619 H   0  0  0  0  0  0  0  0  0  0  0  0  # atno 2020 bound_to 2015
  130.1150  269.0421  319.4506 H   0  0  0  0  0  0  0  0  0  0  0  0  # atno 2042 bound_to 2032
  131.0523  266.5687  317.0871 H   0  0  0  0  0  0  0  0  0  0  0  0  # atno 2046 bound_to 2037
  127.9349  266.2137  320.1013 H   0  0  0  0  0  0  0  0  0  0  0  0  # atno 3221 bound_to 3203
  133.7736  262.5472  330.2811 H   0  0  0  0  0  0  0  0  0  0  0  0  # atno 11769 bound_to 11758
  119.7640  263.4434  329.8314 H   0  0  0  0  0  0  0  0  0  0  0  0  # atno 12734 bound_to 12725
  120.3329  264.5470  325.9486 H   0  0  0  0  0  0  0  0  0  0  0  0  # atno 12769 bound_to 12762
  116.6834  266.0696  322.3326 H   0  0  0  0  0  0  0  0  0  0  0  0  # atno 12775 bound_to 12768
  125.5758  267.8374  331.1662 LP  0  0  0  0  0  0  0  0  0  0  0  0  # atno 13520 bound_to 631 
  124.2968  268.1036  332.3035 LP  0  0  0  0  0  0  0  0  0  0  0  0  # atno 13521 bound_to 631 
  124.6046  269.6016  332.1852 LP  0  0  0  0  0  0  0  0  0  0  0  0  # atno 13522 bound_to 739 
  120.7813  269.7425  328.8292 LP  0  0  0  0  0  0  0  0  0  0  0  0  # atno 13523 bound_to 742 
  121.8732  271.0776  328.6706 LP  0  0  0  0  0  0  0  0  0  0  0  0  # atno 13524 bound_to 742 
  121.8385  269.9141  330.5450 LP  0  0  0  0  0  0  0  0  0  0  0  0  # atno 13525 bound_to 780 
  123.5818  272.4301  319.8364 LP  0  0  0  0  0  0  0  0  0  0  0  0  # atno 13526 bound_to 1766
  123.1699  271.0869  320.8493 LP  0  0  0  0  0  0  0  0  0  0  0  0  # atno 13527 bound_to 1766
  125.4165  271.1520  318.7183 LP  0  0  0  0  0  0  0  0  0  0  0  0  # atno 13532 bound_to 1895
  128.8983  269.1266  320.1853 LP  0  0  0  0  0  0  0  0  0  0  0  0  # atno 13533 bound_to 1898
  128.4575  267.8881  319.0576 LP  0  0  0  0  0  0  0  0  0  0  0  0  # atno 13534 bound_to 1898
  127.2007  265.0221  320.9307 LP  0  0  0  0  0  0  0  0  0  0  0  0  # atno 13535 bound_to 3203
  126.3254  266.2644  320.3331 LP  0  0  0  0  0  0  0  0  0  0  0  0  # atno 13536 bound_to 3203
  122.1490  260.1996  323.6603 LP  0  0  0  0  0  0  0  0  0  0  0  0  # atno 13537 bound_to 3313
  123.3457  258.9522  323.7697 LP  0  0  0  0  0  0  0  0  0  0  0  0  # atno 13538 bound_to 3313
  117.6114  265.8496  329.1707 LP  0  0  0  0  0  0  0  0  0  0  0  0  # atno 13540 bound_to 12683
  118.8381  266.0583  330.3755 LP  0  0  0  0  0  0  0  0  0  0  0  0  # atno 13541 bound_to 12683
  118.3611  263.3112  328.7947 LP  0  0  0  0  0  0  0  0  0  0  0  0  # atno 13542 bound_to 12725
  118.7448  262.2793  327.0906 LP  0  0  0  0  0  0  0  0  0  0  0  0  # atno 13543 bound_to 12728
  118.5541  262.6957  325.4202 LP  0  0  0  0  0  0  0  0  0  0  0  0  # atno 13544 bound_to 12728
  118.9498  265.5645  326.2642 LP  0  0  0  0  0  0  0  0  0  0  0  0  # atno 13545 bound_to 12762
  121.9140  265.6185  323.0091 LP  0  0  0  0  0  0  0  0  0  0  0  0  # atno 13546 bound_to 12765
  121.0005  266.2882  324.3194 LP  0  0  0  0  0  0  0  0  0  0  0  0  # atno 13547 bound_to 12765
  116.6196  264.5279  322.8504 LP  0  0  0  0  0  0  0  0  0  0  0  0  # atno 13548 bound_to 12768
  117.9333  265.0677  322.0445 LP  0  0  0  0  0  0  0  0  0  0  0  0  # atno 13549 bound_to 12768
  120.5456  261.1757  323.1713 LP  0  0  0  0  0  0  0  0  0  0  0  0  # atno 13551 bound_to 12793
  119.4458  261.6176  324.4343 LP  0  0  0  0  0  0  0  0  0  0  0  0  # atno 13552 bound_to 12793
  123.0423  272.8879  333.4333 LP  0  0  0  0  0  0  0  0  0  0  0  0  # atno 13553 bound_to 703 
  122.9452  272.4861  331.7513 LP  0  0  0  0  0  0  0  0  0  0  0  0  # atno 13554 bound_to 703 
  118.3872  271.0237  332.4426 LP  0  0  0  0  0  0  0  0  0  0  0  0  # atno 13555 bound_to 783 
  119.9946  271.2764  331.8491 LP  0  0  0  0  0  0  0  0  0  0  0  0  # atno 13556 bound_to 783 
  117.7531  268.8342  330.6368 LP  0  0  0  0  0  0  0  0  0  0  0  0  # atno 13557 bound_to 803 
  118.2156  270.5039  327.8706 LP  0  0  0  0  0  0  0  0  0  0  0  0  # atno 13558 bound_to 809 
  117.1387  271.3281  326.9610 LP  0  0  0  0  0  0  0  0  0  0  0  0  # atno 13559 bound_to 809 
  130.3259  270.6814  322.3272 LP  0  0  0  0  0  0  0  0  0  0  0  0  # atno 13560 bound_to 2015
  131.3858  271.9189  322.2185 LP  0  0  0  0  0  0  0  0  0  0  0  0  # atno 13561 bound_to 2015
  130.4023  265.4647  329.5375 LP  0  0  0  0  0  0  0  0  0  0  0  0  # atno 13562 bound_to 11761
  130.5502  265.8849  331.2113 LP  0  0  0  0  0  0  0  0  0  0  0  0  # atno 13563 bound_to 11761
  125.8703  269.8924  317.8291 LP  0  0  0  0  0  0  0  0  0  0  0  0  # atno 13564 bound_to 1932
  131.6298  269.6278  318.8018 LP  0  0  0  0  0  0  0  0  0  0  0  0  # atno 13565 bound_to 2032
  129.5270  267.0587  317.3717 LP  0  0  0  0  0  0  0  0  0  0  0  0  # atno 13566 bound_to 2037
  129.8979  265.4688  317.4111 LP  0  0  0  0  0  0  0  0  0  0  0  0  # atno 13567 bound_to 2037
  135.6345  264.7158  327.5987 LP  0  0  0  0  0  0  0  0  0  0  0  0  # atno 13568 bound_to 11734
  133.9027  264.7429  327.5844 LP  0  0  0  0  0  0  0  0  0  0  0  0  # atno 13569 bound_to 11734
  134.4620  263.3765  328.9056 LP  0  0  0  0  0  0  0  0  0  0  0  0  # atno 13570 bound_to 11758

> <Gold.Score>
     Fitness  S(hb_ext) S(vdw_ext)  S(hb_int)    S(int)      intcor
     36.96       6.12      22.48       0.00      -0.07      -0.77

> <Gold.Goldscore.Fitness>
36.9604

> <Gold.Goldscore.Internal.Vdw>
-0.4546

> <Gold.Goldscore.Internal.Torsion>
-0.3790

> <Gold.Goldscore.External.Vdw>
22.4814

> <Gold.Goldscore.Internal.HBond>
0.0000

> <Gold.Goldscore.External.HBond>
6.1169

> <Gold.Goldscore.Internal.Correction>
-0.7653

> <Gold.Goldscore.Hbonds>
donor molecule, donor type, donor heavy atom, donor atom, acceptor molecule, acceptor atom, score
      P1  H 11765 11777       L1    11  1.00
      L1  H     8    22       P1  2015  0.06

> <Gold.Goldscore.Internal.Vdw.Weighted>
-0.4546

> <Gold.Goldscore.Internal.Torsion.Weighted>
-0.3790

> <Gold.Goldscore.External.Vdw.Weighted>
30.9119

> <Gold.Goldscore.Internal.HBond.Weighted>
0.0000

> <Gold.Goldscore.External.HBond.Weighted>
6.1169

> <Gold.Goldscore.Internal.Correction.Weighted>
-0.7653

> <Gold.Rescore>
     Score     S(PLP)   S(hbond)     S(cho)   S(metal)  DE(clash)   DE(tors)     intcor
     27.66     -27.78       0.00       0.00       0.00       0.00       0.06       ----

> <Gold.PLP.Fitness>
27.6646

> <Gold.PLP.PLP>
-27.7830

> <Gold.PLP.part.hbond>
-2.3737

> <Gold.PLP.part.metal>
0.0000

> <Gold.PLP.part.buried>
-2.4388

> <Gold.PLP.part.nonpolar>
-22.6969

> <Gold.PLP.part.repulsive>
0.1859

> <Gold.PLP.ligand.clash>
0.0000

> <Gold.PLP.ligand.torsion>
0.0592

> <Gold.PLP.Chemscore.Hbond>
0.0000

> <Gold.PLP.Chemscore.CHOScore>
0.0000

> <Gold.PLP.Chemscore.Metal>
0.0000

> <Gold.Chemscore.Hbonds>
donor molecule, donor type, donor heavy atom, donor atom, acceptor molecule, acceptor atom, score
      P1  H  3203  3221       L1     9  0.08
      P1  H 11765 11777       L1    11  1.00

> <Gold.PLP.Chemscore.Internal.Correction>
   9.000000E+99

