#       Name:                CT1002167954
#       Creating user name   hitesit
#       Creation time:       Sun Apr 16 02:24:47 2023


#       File generated by GOLD software.
#

@<TRIPOS>MOLECULE
CT1002167954|ligand_prepared|mol2|1|dock3
    29    30     1
SMALL
NO_CHARGES


@<TRIPOS>ATOM
      1 C1         127.7808 267.4943 325.0822 C.3            1 RES1               0.0000
      2 C2         126.2558 267.4755 325.3123 C.ar           1 RES1               0.0000
      3 C3         128.2259 266.0354 325.0409 C.2            1 RES1               0.0000
      4 C4         128.0061 268.2507 323.7777 C.2            1 RES1               0.0000
      5 C5         128.5719 268.2178 326.1967 C.3            1 RES1               0.0000
      6 C6         125.6077 268.5799 325.8574 C.ar           1 RES1               0.0000
      7 C7         125.4848 266.3640 324.9827 C.ar           1 RES1               0.0000
      8 N8         128.5565 265.5099 323.8266 N.am           1 RES1               0.0000
      9 O9         128.2485 265.3453 326.0525 O.2            1 RES1               0.0000
     10 N10        128.5195 267.5567 322.7135 N.am           1 RES1               0.0000
     11 O11        127.7280 269.4374 323.6568 O.2            1 RES1               0.0000
     12 C12        130.0752 268.0025 326.1201 C.3            1 RES1               0.0000
     13 C13        124.2380 268.5745 326.0627 C.ar           1 RES1               0.0000
     14 C14        124.1151 266.3607 325.1891 C.ar           1 RES1               0.0000
     15 C15        128.7762 266.2134 322.6697 C.2            1 RES1               0.0000
     16 C16        123.4908 267.4653 325.7283 C.ar           1 RES1               0.0000
     17 O17        129.1861 265.6514 321.6581 O.2            1 RES1               0.0000
     18 H18        128.3657 269.2935 326.1348 H              1 RES1               0.0000
     19 H19        128.2137 267.8633 327.1711 H              1 RES1               0.0000
     20 H20        126.1796 269.4609 326.1289 H              1 RES1               0.0000
     21 H21        125.9547 265.4834 324.5581 H              1 RES1               0.0000
     22 H22        128.6490 264.5004 323.7739 H              1 RES1               0.0000
     23 H23        128.7300 268.0910 321.8765 H              1 RES1               0.0000
     24 H24        130.5821 268.5315 326.9244 H              1 RES1               0.0000
     25 H25        130.3183 266.9453 326.2038 H              1 RES1               0.0000
     26 H26        130.4693 268.3670 325.1737 H              1 RES1               0.0000
     27 H27        123.7517 269.4458 326.4887 H              1 RES1               0.0000
     28 H28        123.5311 265.4852 324.9250 H              1 RES1               0.0000
     29 H29        122.4178 267.4615 325.8889 H              1 RES1               0.0000
@<TRIPOS>BOND
    1    1    2 1     
    2    1    3 1     
    3    1    4 1     
    4    1    5 1     
    5    2    6 ar    
    6    2    7 ar    
    7    3    8 1     
    8    3    9 2     
    9    4   10 1     
   10    4   11 2     
   11    5   12 1     
   12    5   18 1     
   13    5   19 1     
   14    6   13 ar    
   15    6   20 1     
   16    7   14 ar    
   17    7   21 1     
   18    8   15 1     
   19    8   22 1     
   20   10   15 1     
   21   10   23 1     
   22   12   24 1     
   23   12   25 1     
   24   12   26 1     
   25   13   16 ar    
   26   13   27 1     
   27   14   16 ar    
   28   14   28 1     
   29   15   17 2     
   30   16   29 1     
@<TRIPOS>SUBSTRUCTURE
      1 RES1           1
@<TRIPOS>SET
DONOR_HYDROGENS      STATIC     ATOMS    <user>   **** ""
2 22 23
ATOM$RED        STATIC     ATOMS    COLORGROUP SYSTEM
2 22 23
@<TRIPOS>COMMENT
> <Gold.Version>
2022.3.0

> <Gold.Id.Protein>
unknown|5uo4_clean|pdb

> <Gold.Protein.RotatedTorsions>
[  761  739  740  741 ] final    5.61 input   85.38 | X-H torsion
[  791  780  781  782 ] final  -39.47 input   98.79 | X-H torsion
[ 1906 1895 1896 1897 ] final  141.66 input  105.28 | X-H torsion
[ 3221 3203 3202 3200 ] final  -32.92 input   59.99 | X-H torsion
[ 12734 12725 12726 12727 ] final   20.29 input   72.11 | X-H torsion
[ 12769 12762 12763 12764 ] final -103.93 input   62.98 | X-H torsion
[ 12775 12768 12766 12763 ] final   25.25 input   59.99 | X-H torsion
[  817  803  804  805 ] final  -16.58 input   48.10 | X-H torsion
[  823  809  807  804 ] final   26.47 input   60.00 | X-H torsion
[ 2020 2015 2014 2011 ] final -126.96 input   59.99 | X-H torsion
[ 1953 1932 1933 1934 ] final  -63.44 input  111.26 | X-H torsion
[ 2042 2032 2033 2034 ] final   69.51 input  116.25 | X-H torsion
[ 2046 2037 2036 2033 ] final   49.87 input   60.01 | X-H torsion
[ 11769 11758 11759 11760 ] final   16.32 input   53.32 | X-H torsion
[ 13520  631  630  629 ] final  -63.81 input    0.00 | X-H torsion
[ 13523  742  741  740 ] final  146.58 input    0.00 | X-H torsion
[ 13526 1766 1765 1764 ] final  149.72 input    0.00 | X-H torsion
[ 13533 1898 1897 1896 ] final -148.45 input   -0.00 | X-H torsion
[ 13537 3313 3312 3311 ] final   86.59 input   -0.00 | X-H torsion
[ 13540 12683 12682 12681 ] final -148.46 input   -0.00 | X-H torsion
[ 13543 12728 12727 12726 ] final   90.94 input   -0.00 | X-H torsion
[ 13546 12765 12764 12763 ] final  117.38 input   -0.00 | X-H torsion
[ 13551 12793 12792 12791 ] final -126.13 input    0.00 | X-H torsion
[ 13553  703  702  701 ] final   73.35 input    0.00 | X-H torsion
[ 13555  783  782  781 ] final  137.05 input    0.00 | X-H torsion
[ 13562 11761 11760 11759 ] final  -20.99 input   -0.00 | X-H torsion
[ 13568 11734 11733 11732 ] final   -4.83 input   -0.00 | X-H torsion

> <Gold.Protein.ActiveResidues>
 LEU321  HIS322  LEU323  LYS324  SER325  THR326  GLU365  PHE366  ASP368  GLN369 
 TYR370  SER372  SER373  TYR408  HIS412  ARG415  ASN416  CYS673  ARG674  PRO678 
 TYR703  ARG704  LEU705  THR706  PRO707 

> <Gold.Protein.RotatedAtoms>
  123.2141  269.6900  332.5908 H   0  0  0  0  0  0  0  0  0  0  0  0  # atno 761  bound_to 739 
  121.6288  270.2547  330.9073 H   0  0  0  0  0  0  0  0  0  0  0  0  # atno 791  bound_to 780 
  117.7022  268.7999  330.5629 H   0  0  0  0  0  0  0  0  0  0  0  0  # atno 817  bound_to 803 
  116.9654  269.8678  327.9675 H   0  0  0  0  0  0  0  0  0  0  0  0  # atno 823  bound_to 809 
  124.9219  271.6351  319.9889 H   0  0  0  0  0  0  0  0  0  0  0  0  # atno 1906 bound_to 1895
  127.1315  269.4268  318.9264 H   0  0  0  0  0  0  0  0  0  0  0  0  # atno 1953 bound_to 1932
  130.3624  270.5788  322.2619 H   0  0  0  0  0  0  0  0  0  0  0  0  # atno 2020 bound_to 2015
  130.5410  269.1420  318.3280 H   0  0  0  0  0  0  0  0  0  0  0  0  # atno 2042 bound_to 2032
  131.0743  266.2762  317.1042 H   0  0  0  0  0  0  0  0  0  0  0  0  # atno 2046 bound_to 2037
  127.7320  265.1631  320.7588 H   0  0  0  0  0  0  0  0  0  0  0  0  # atno 3221 bound_to 3203
  133.9866  263.0097  330.4578 H   0  0  0  0  0  0  0  0  0  0  0  0  # atno 11769 bound_to 11758
  118.7447  262.8107  328.6947 H   0  0  0  0  0  0  0  0  0  0  0  0  # atno 12734 bound_to 12725
  119.5995  264.1970  326.2772 H   0  0  0  0  0  0  0  0  0  0  0  0  # atno 12769 bound_to 12762
  117.3665  264.3439  322.5501 H   0  0  0  0  0  0  0  0  0  0  0  0  # atno 12775 bound_to 12768
  125.4251  268.6822  331.8023 LP  0  0  0  0  0  0  0  0  0  0  0  0  # atno 13520 bound_to 631 
  124.4475  267.2588  331.6673 LP  0  0  0  0  0  0  0  0  0  0  0  0  # atno 13521 bound_to 631 
  124.7150  270.5464  332.3334 LP  0  0  0  0  0  0  0  0  0  0  0  0  # atno 13522 bound_to 739 
  120.8944  269.6600  328.7558 LP  0  0  0  0  0  0  0  0  0  0  0  0  # atno 13523 bound_to 742 
  121.7601  271.1602  328.7440 LP  0  0  0  0  0  0  0  0  0  0  0  0  # atno 13524 bound_to 742 
  122.0294  268.7599  331.7091 LP  0  0  0  0  0  0  0  0  0  0  0  0  # atno 13525 bound_to 780 
  123.2673  270.9013  320.2841 LP  0  0  0  0  0  0  0  0  0  0  0  0  # atno 13526 bound_to 1766
  123.4844  272.6156  320.4016 LP  0  0  0  0  0  0  0  0  0  0  0  0  # atno 13527 bound_to 1766
  126.1789  271.7455  318.7879 LP  0  0  0  0  0  0  0  0  0  0  0  0  # atno 13532 bound_to 1895
  128.9312  268.5670  318.7954 LP  0  0  0  0  0  0  0  0  0  0  0  0  # atno 13533 bound_to 1898
  128.4247  268.4477  320.4474 LP  0  0  0  0  0  0  0  0  0  0  0  0  # atno 13534 bound_to 1898
  126.2320  265.7809  320.6357 LP  0  0  0  0  0  0  0  0  0  0  0  0  # atno 13535 bound_to 3203
  127.4985  266.5643  319.9656 LP  0  0  0  0  0  0  0  0  0  0  0  0  # atno 13536 bound_to 3203
  122.5824  260.4246  323.6648 LP  0  0  0  0  0  0  0  0  0  0  0  0  # atno 13537 bound_to 3313
  122.9124  258.7272  323.7652 LP  0  0  0  0  0  0  0  0  0  0  0  0  # atno 13538 bound_to 3313
  118.3451  265.9608  328.9155 LP  0  0  0  0  0  0  0  0  0  0  0  0  # atno 13540 bound_to 12683
  118.1044  265.9471  330.6307 LP  0  0  0  0  0  0  0  0  0  0  0  0  # atno 13541 bound_to 12683
  119.3511  263.9256  329.8987 LP  0  0  0  0  0  0  0  0  0  0  0  0  # atno 13542 bound_to 12725
  117.8880  262.8106  326.5122 LP  0  0  0  0  0  0  0  0  0  0  0  0  # atno 13543 bound_to 12728
  119.4108  262.1645  325.9987 LP  0  0  0  0  0  0  0  0  0  0  0  0  # atno 13544 bound_to 12728
  119.6710  265.9087  325.9410 LP  0  0  0  0  0  0  0  0  0  0  0  0  # atno 13545 bound_to 12762
  122.0087  265.2870  323.7088 LP  0  0  0  0  0  0  0  0  0  0  0  0  # atno 13546 bound_to 12765
  120.9059  266.6197  323.6197 LP  0  0  0  0  0  0  0  0  0  0  0  0  # atno 13547 bound_to 12765
  117.6304  265.8329  321.9481 LP  0  0  0  0  0  0  0  0  0  0  0  0  # atno 13548 bound_to 12768
  116.2348  265.5001  322.7278 LP  0  0  0  0  0  0  0  0  0  0  0  0  # atno 13549 bound_to 12768
  119.9360  260.5906  323.4917 LP  0  0  0  0  0  0  0  0  0  0  0  0  # atno 13551 bound_to 12793
  120.0554  262.2026  324.1139 LP  0  0  0  0  0  0  0  0  0  0  0  0  # atno 13552 bound_to 12793
  123.7757  273.0564  332.6374 LP  0  0  0  0  0  0  0  0  0  0  0  0  # atno 13553 bound_to 703 
  122.2118  272.3176  332.5473 LP  0  0  0  0  0  0  0  0  0  0  0  0  # atno 13554 bound_to 703 
  118.8876  271.7049  331.5541 LP  0  0  0  0  0  0  0  0  0  0  0  0  # atno 13555 bound_to 783 
  119.4942  270.5952  332.7376 LP  0  0  0  0  0  0  0  0  0  0  0  0  # atno 13556 bound_to 783 
  118.8484  269.9646  329.9397 LP  0  0  0  0  0  0  0  0  0  0  0  0  # atno 13557 bound_to 803 
  118.2526  270.8134  327.6580 LP  0  0  0  0  0  0  0  0  0  0  0  0  # atno 13558 bound_to 809 
  116.8038  271.1562  326.9872 LP  0  0  0  0  0  0  0  0  0  0  0  0  # atno 13559 bound_to 809 
  131.2770  271.9244  322.2839 LP  0  0  0  0  0  0  0  0  0  0  0  0  # atno 13560 bound_to 2015
  131.7756  270.6082  321.4559 LP  0  0  0  0  0  0  0  0  0  0  0  0  # atno 13561 bound_to 2015
  130.6581  265.7795  329.5342 LP  0  0  0  0  0  0  0  0  0  0  0  0  # atno 13562 bound_to 11761
  130.2945  265.5701  331.2146 LP  0  0  0  0  0  0  0  0  0  0  0  0  # atno 13563 bound_to 11761
  125.7743  269.7490  317.8782 LP  0  0  0  0  0  0  0  0  0  0  0  0  # atno 13564 bound_to 1932
  131.2153  269.5306  319.8941 LP  0  0  0  0  0  0  0  0  0  0  0  0  # atno 13565 bound_to 2032
  129.7661  267.2217  317.3090 LP  0  0  0  0  0  0  0  0  0  0  0  0  # atno 13566 bound_to 2037
  129.6367  265.6006  317.4567 LP  0  0  0  0  0  0  0  0  0  0  0  0  # atno 13567 bound_to 2037
  135.6030  264.5648  327.4282 LP  0  0  0  0  0  0  0  0  0  0  0  0  # atno 13568 bound_to 11734
  133.9342  264.8940  327.7548 LP  0  0  0  0  0  0  0  0  0  0  0  0  # atno 13569 bound_to 11734
  134.2540  262.9251  328.7330 LP  0  0  0  0  0  0  0  0  0  0  0  0  # atno 13570 bound_to 11758

> <Gold.Score>
     Fitness  S(hb_ext) S(vdw_ext)  S(hb_int)    S(int)      intcor
     33.62       6.92      20.11       0.00      -0.95      -0.77

> <Gold.Goldscore.Fitness>
33.6211

> <Gold.Goldscore.Internal.Vdw>
-1.1314

> <Gold.Goldscore.Internal.Torsion>
-0.5792

> <Gold.Goldscore.External.Vdw>
20.1087

> <Gold.Goldscore.Internal.HBond>
0.0000

> <Gold.Goldscore.External.HBond>
6.9169

> <Gold.Goldscore.Internal.Correction>
-0.7653

> <Gold.Goldscore.Hbonds>
donor molecule, donor type, donor heavy atom, donor atom, acceptor molecule, acceptor atom, score
      P1  H  3203  3221       L1    17  0.08
      P1  H 11765 11777       L1     9  1.00
      P1  H  2015  2020       L1    11  0.09
      L1  H    10    23       P1  1898  0.29

> <Gold.Goldscore.Internal.Vdw.Weighted>
-1.1314

> <Gold.Goldscore.Internal.Torsion.Weighted>
-0.5792

> <Gold.Goldscore.External.Vdw.Weighted>
27.6494

> <Gold.Goldscore.Internal.HBond.Weighted>
0.0000

> <Gold.Goldscore.External.HBond.Weighted>
6.9169

> <Gold.Goldscore.Internal.Correction.Weighted>
-0.7653

> <Gold.Rescore>
     Score     S(PLP)   S(hbond)     S(cho)   S(metal)  DE(clash)   DE(tors)     intcor
     36.08     -34.12       1.24       0.00       0.00       1.38       0.19       ----

> <Gold.PLP.Fitness>
36.0770

> <Gold.PLP.PLP>
-34.1213

> <Gold.PLP.part.hbond>
-2.6641

> <Gold.PLP.part.metal>
0.0000

> <Gold.PLP.part.buried>
-4.7786

> <Gold.PLP.part.nonpolar>
-27.2962

> <Gold.PLP.part.repulsive>
0.3227

> <Gold.PLP.ligand.clash>
1.3796

> <Gold.PLP.ligand.torsion>
0.1925

> <Gold.PLP.Chemscore.Hbond>
1.2401

> <Gold.PLP.Chemscore.CHOScore>
0.0000

> <Gold.PLP.Chemscore.Metal>
0.0000

> <Gold.Chemscore.Hbonds>
donor molecule, donor type, donor heavy atom, donor atom, acceptor molecule, acceptor atom, score
      P1  H  3203  3221       L1    17  0.64
      P1  H 11765 11777       L1     9  0.76

> <Gold.PLP.Chemscore.Internal.Correction>
   9.000000E+99

