#       Name:                CT1002167954
#       Creating user name   hitesit
#       Creation time:       Sun Apr 16 02:24:51 2023


#       File generated by GOLD software.
#

@<TRIPOS>MOLECULE
CT1002167954|ligand_prepared|mol2|1|dock9
    29    30     1
SMALL
NO_CHARGES


@<TRIPOS>ATOM
      1 C1         127.0798 267.8273 325.7646 C.3            1 RES1               0.0000
      2 C2         127.7371 267.2622 324.4889 C.ar           1 RES1               0.0000
      3 C3         128.1587 267.8157 326.8436 C.2            1 RES1               0.0000
      4 C4         126.5759 269.2203 325.4037 C.2            1 RES1               0.0000
      5 C5         125.8745 266.9983 326.2662 C.3            1 RES1               0.0000
      6 C6         127.9301 265.8922 324.3385 C.ar           1 RES1               0.0000
      7 C7         128.1524 268.0967 323.4545 C.ar           1 RES1               0.0000
      8 N8         128.7064 269.0120 327.2023 N.am           1 RES1               0.0000
      9 O9         128.5509 266.7687 327.3437 O.2            1 RES1               0.0000
     10 N10        127.1586 270.2945 326.0236 N.am           1 RES1               0.0000
     11 O11        125.6909 269.3983 324.5758 O.2            1 RES1               0.0000
     12 C12        124.8935 266.6168 325.1688 C.3            1 RES1               0.0000
     13 C13        128.5144 265.3749 323.1943 C.ar           1 RES1               0.0000
     14 C14        128.7367 267.5772 322.3112 C.ar           1 RES1               0.0000
     15 C15        128.2220 270.2552 326.8838 C.2            1 RES1               0.0000
     16 C16        128.9177 266.2168 322.1798 C.ar           1 RES1               0.0000
     17 O17        128.7260 271.2690 327.3584 O.2            1 RES1               0.0000
     18 H18        126.2486 266.0822 326.7396 H              1 RES1               0.0000
     19 H19        125.3415 267.5771 327.0306 H              1 RES1               0.0000
     20 H20        127.6214 265.2144 325.1273 H              1 RES1               0.0000
     21 H21        128.0210 269.1703 323.5366 H              1 RES1               0.0000
     22 H22        129.5546 268.9793 327.7589 H              1 RES1               0.0000
     23 H23        126.7629 271.2081 325.8256 H              1 RES1               0.0000
     24 H24        124.0674 266.0366 325.5746 H              1 RES1               0.0000
     25 H25        124.4825 267.5048 324.6931 H              1 RES1               0.0000
     26 H26        125.3842 266.0187 324.4037 H              1 RES1               0.0000
     27 H27        128.6559 264.3036 323.0963 H              1 RES1               0.0000
     28 H28        129.0531 268.2436 321.5156 H              1 RES1               0.0000
     29 H29        129.3751 265.8112 321.2834 H              1 RES1               0.0000
@<TRIPOS>BOND
    1    1    2 1     
    2    1    3 1     
    3    1    4 1     
    4    1    5 1     
    5    2    6 ar    
    6    2    7 ar    
    7    3    8 1     
    8    3    9 2     
    9    4   10 1     
   10    4   11 2     
   11    5   12 1     
   12    5   18 1     
   13    5   19 1     
   14    6   13 ar    
   15    6   20 1     
   16    7   14 ar    
   17    7   21 1     
   18    8   15 1     
   19    8   22 1     
   20   10   15 1     
   21   10   23 1     
   22   12   24 1     
   23   12   25 1     
   24   12   26 1     
   25   13   16 ar    
   26   13   27 1     
   27   14   16 ar    
   28   14   28 1     
   29   15   17 2     
   30   16   29 1     
@<TRIPOS>SUBSTRUCTURE
      1 RES1           1
@<TRIPOS>SET
DONOR_HYDROGENS      STATIC     ATOMS    <user>   **** ""
2 22 23
ATOM$RED        STATIC     ATOMS    COLORGROUP SYSTEM
2 22 23
@<TRIPOS>COMMENT
> <Gold.Version>
2022.3.0

> <Gold.Id.Protein>
unknown|5uo4_clean|pdb

> <Gold.Protein.RotatedTorsions>
[  761  739  740  741 ] final   -6.20 input   85.38 | X-H torsion
[  791  780  781  782 ] final -146.85 input   98.79 | X-H torsion
[ 1906 1895 1896 1897 ] final -101.16 input  105.28 | X-H torsion
[ 3221 3203 3202 3200 ] final -122.94 input   59.99 | X-H torsion
[ 12734 12725 12726 12727 ] final   99.14 input   72.11 | X-H torsion
[ 12769 12762 12763 12764 ] final   54.09 input   62.98 | X-H torsion
[ 12775 12768 12766 12763 ] final   66.42 input   59.99 | X-H torsion
[  817  803  804  805 ] final  -47.00 input   48.10 | X-H torsion
[  823  809  807  804 ] final  -81.96 input   60.00 | X-H torsion
[ 2020 2015 2014 2011 ] final -120.51 input   59.99 | X-H torsion
[ 1953 1932 1933 1934 ] final  117.60 input  111.26 | X-H torsion
[ 2042 2032 2033 2034 ] final   93.35 input  116.25 | X-H torsion
[ 2046 2037 2036 2033 ] final -113.60 input   60.01 | X-H torsion
[ 11769 11758 11759 11760 ] final  114.65 input   53.32 | X-H torsion
[ 13520  631  630  629 ] final -112.94 input    0.00 | X-H torsion
[ 13523  742  741  740 ] final  -39.64 input    0.00 | X-H torsion
[ 13526 1766 1765 1764 ] final -102.10 input    0.00 | X-H torsion
[ 13533 1898 1897 1896 ] final -159.95 input   -0.00 | X-H torsion
[ 13537 3313 3312 3311 ] final -115.00 input   -0.00 | X-H torsion
[ 13540 12683 12682 12681 ] final   -5.19 input   -0.00 | X-H torsion
[ 13543 12728 12727 12726 ] final  -15.70 input   -0.00 | X-H torsion
[ 13546 12765 12764 12763 ] final  -88.31 input   -0.00 | X-H torsion
[ 13551 12793 12792 12791 ] final   49.27 input    0.00 | X-H torsion
[ 13553  703  702  701 ] final   52.20 input    0.00 | X-H torsion
[ 13555  783  782  781 ] final -173.44 input    0.00 | X-H torsion
[ 13562 11761 11760 11759 ] final   16.43 input   -0.00 | X-H torsion
[ 13568 11734 11733 11732 ] final   86.57 input   -0.00 | X-H torsion

> <Gold.Protein.ActiveResidues>
 LEU321  HIS322  LEU323  LYS324  SER325  THR326  GLU365  PHE366  ASP368  GLN369 
 TYR370  SER372  SER373  TYR408  HIS412  ARG415  ASN416  CYS673  ARG674  PRO678 
 TYR703  ARG704  LEU705  THR706  PRO707 

> <Gold.Protein.RotatedAtoms>
  123.1510  269.8533  332.6395 H   0  0  0  0  0  0  0  0  0  0  0  0  # atno 761  bound_to 739 
  122.1992  268.9794  330.7148 H   0  0  0  0  0  0  0  0  0  0  0  0  # atno 791  bound_to 780 
  117.8873  269.0021  330.9389 H   0  0  0  0  0  0  0  0  0  0  0  0  # atno 817  bound_to 803 
  118.2452  270.6603  327.7692 H   0  0  0  0  0  0  0  0  0  0  0  0  # atno 823  bound_to 809 
  126.1941  272.2629  319.5340 H   0  0  0  0  0  0  0  0  0  0  0  0  # atno 1906 bound_to 1895
  125.7539  269.7427  317.8826 H   0  0  0  0  0  0  0  0  0  0  0  0  # atno 1953 bound_to 1932
  130.3994  270.4970  322.2069 H   0  0  0  0  0  0  0  0  0  0  0  0  # atno 2020 bound_to 2015
  130.2688  269.0460  318.5534 H   0  0  0  0  0  0  0  0  0  0  0  0  # atno 2042 bound_to 2032
  129.3076  266.7165  317.4457 H   0  0  0  0  0  0  0  0  0  0  0  0  # atno 2046 bound_to 2037
  126.4296  265.3851  320.8368 H   0  0  0  0  0  0  0  0  0  0  0  0  # atno 3221 bound_to 3203
  133.7329  262.1874  329.4333 H   0  0  0  0  0  0  0  0  0  0  0  0  # atno 11769 bound_to 11758
  119.6889  262.7580  329.3080 H   0  0  0  0  0  0  0  0  0  0  0  0  # atno 12734 bound_to 12725
  119.9806  265.8273  325.8487 H   0  0  0  0  0  0  0  0  0  0  0  0  # atno 12769 bound_to 12762
  116.7684  264.4358  322.8099 H   0  0  0  0  0  0  0  0  0  0  0  0  # atno 12775 bound_to 12768
  124.8493  268.6725  332.2345 LP  0  0  0  0  0  0  0  0  0  0  0  0  # atno 13520 bound_to 631 
  125.0233  267.2685  331.2352 LP  0  0  0  0  0  0  0  0  0  0  0  0  # atno 13521 bound_to 631 
  124.7768  270.3865  332.2858 LP  0  0  0  0  0  0  0  0  0  0  0  0  # atno 13522 bound_to 739 
  121.6859  271.1974  328.7878 LP  0  0  0  0  0  0  0  0  0  0  0  0  # atno 13523 bound_to 742 
  120.9686  269.6227  328.7120 LP  0  0  0  0  0  0  0  0  0  0  0  0  # atno 13524 bound_to 742 
  121.4637  270.0246  331.8999 LP  0  0  0  0  0  0  0  0  0  0  0  0  # atno 13525 bound_to 780 
  123.5898  272.0582  319.5590 LP  0  0  0  0  0  0  0  0  0  0  0  0  # atno 13526 bound_to 1766
  123.1619  271.4587  321.1267 LP  0  0  0  0  0  0  0  0  0  0  0  0  # atno 13527 bound_to 1766
  124.9122  271.1203  319.2409 LP  0  0  0  0  0  0  0  0  0  0  0  0  # atno 13532 bound_to 1895
  128.8465  268.4166  318.7768 LP  0  0  0  0  0  0  0  0  0  0  0  0  # atno 13533 bound_to 1898
  128.5094  268.5981  320.4660 LP  0  0  0  0  0  0  0  0  0  0  0  0  # atno 13534 bound_to 1898
  127.0187  266.6460  319.9943 LP  0  0  0  0  0  0  0  0  0  0  0  0  # atno 13535 bound_to 3203
  128.0244  265.4755  320.5283 LP  0  0  0  0  0  0  0  0  0  0  0  0  # atno 13536 bound_to 3203
  122.5883  258.7255  323.7532 LP  0  0  0  0  0  0  0  0  0  0  0  0  # atno 13537 bound_to 3313
  122.9065  260.4263  323.6768 LP  0  0  0  0  0  0  0  0  0  0  0  0  # atno 13538 bound_to 3313
  117.6217  265.8683  330.3887 LP  0  0  0  0  0  0  0  0  0  0  0  0  # atno 13540 bound_to 12683
  118.8278  266.0396  329.1575 LP  0  0  0  0  0  0  0  0  0  0  0  0  # atno 13541 bound_to 12683
  118.4341  263.9769  329.3030 LP  0  0  0  0  0  0  0  0  0  0  0  0  # atno 13542 bound_to 12725
  119.0322  262.1636  326.9615 LP  0  0  0  0  0  0  0  0  0  0  0  0  # atno 13543 bound_to 12728
  118.2666  262.8115  325.5494 LP  0  0  0  0  0  0  0  0  0  0  0  0  # atno 13544 bound_to 12728
  119.2961  264.3056  326.3623 LP  0  0  0  0  0  0  0  0  0  0  0  0  # atno 13545 bound_to 12762
  121.0299  266.5868  323.2567 LP  0  0  0  0  0  0  0  0  0  0  0  0  # atno 13546 bound_to 12765
  121.8846  265.3199  324.0718 LP  0  0  0  0  0  0  0  0  0  0  0  0  # atno 13547 bound_to 12765
  117.9243  265.2404  321.9940 LP  0  0  0  0  0  0  0  0  0  0  0  0  # atno 13548 bound_to 12768
  116.5430  266.0000  322.4204 LP  0  0  0  0  0  0  0  0  0  0  0  0  # atno 13549 bound_to 12768
  120.1072  262.2132  324.0689 LP  0  0  0  0  0  0  0  0  0  0  0  0  # atno 13551 bound_to 12793
  119.8842  260.5801  323.5368 LP  0  0  0  0  0  0  0  0  0  0  0  0  # atno 13552 bound_to 12793
  123.6833  273.0783  332.9407 LP  0  0  0  0  0  0  0  0  0  0  0  0  # atno 13553 bound_to 703 
  122.3042  272.2957  332.2439 LP  0  0  0  0  0  0  0  0  0  0  0  0  # atno 13554 bound_to 703 
  118.3821  271.4153  331.9862 LP  0  0  0  0  0  0  0  0  0  0  0  0  # atno 13555 bound_to 783 
  119.9997  270.8848  332.3055 LP  0  0  0  0  0  0  0  0  0  0  0  0  # atno 13556 bound_to 783 
  118.6685  269.7680  329.5744 LP  0  0  0  0  0  0  0  0  0  0  0  0  # atno 13557 bound_to 803 
  116.9638  271.2553  326.9624 LP  0  0  0  0  0  0  0  0  0  0  0  0  # atno 13558 bound_to 809 
  116.8030  269.9158  327.8825 LP  0  0  0  0  0  0  0  0  0  0  0  0  # atno 13559 bound_to 809 
  131.1842  271.9167  322.3346 LP  0  0  0  0  0  0  0  0  0  0  0  0  # atno 13560 bound_to 2015
  131.8312  270.6984  321.4606 LP  0  0  0  0  0  0  0  0  0  0  0  0  # atno 13561 bound_to 2015
  130.3059  265.3531  329.5886 LP  0  0  0  0  0  0  0  0  0  0  0  0  # atno 13562 bound_to 11761
  130.6466  265.9964  331.1602 LP  0  0  0  0  0  0  0  0  0  0  0  0  # atno 13563 bound_to 11761
  127.1327  269.4375  318.9074 LP  0  0  0  0  0  0  0  0  0  0  0  0  # atno 13564 bound_to 1932
  131.4802  269.6239  319.6747 LP  0  0  0  0  0  0  0  0  0  0  0  0  # atno 13565 bound_to 2032
  130.3027  265.4345  317.3279 LP  0  0  0  0  0  0  0  0  0  0  0  0  # atno 13566 bound_to 2037
  130.8798  266.9441  317.0937 LP  0  0  0  0  0  0  0  0  0  0  0  0  # atno 13567 bound_to 2037
  134.5169  264.1815  326.9698 LP  0  0  0  0  0  0  0  0  0  0  0  0  # atno 13568 bound_to 11734
  135.0203  265.2772  328.2133 LP  0  0  0  0  0  0  0  0  0  0  0  0  # atno 13569 bound_to 11734
  134.5017  263.7278  329.7332 LP  0  0  0  0  0  0  0  0  0  0  0  0  # atno 13570 bound_to 11758

> <Gold.Score>
     Fitness  S(hb_ext) S(vdw_ext)  S(hb_int)    S(int)      intcor
     26.73       0.00      21.56       0.00      -2.92      -0.76

> <Gold.Goldscore.Fitness>
26.7272

> <Gold.Goldscore.Internal.Vdw>
-3.0312

> <Gold.Goldscore.Internal.Torsion>
-0.6456

> <Gold.Goldscore.External.Vdw>
21.5604

> <Gold.Goldscore.Internal.HBond>
0.0000

> <Gold.Goldscore.External.HBond>
0.0000

> <Gold.Goldscore.Internal.Correction>
-0.7585

> <Gold.Goldscore.Internal.Vdw.Weighted>
-3.0312

> <Gold.Goldscore.Internal.Torsion.Weighted>
-0.6456

> <Gold.Goldscore.External.Vdw.Weighted>
29.6455

> <Gold.Goldscore.Internal.HBond.Weighted>
0.0000

> <Gold.Goldscore.External.HBond.Weighted>
0.0000

> <Gold.Goldscore.Internal.Correction.Weighted>
-0.7585

> <Gold.Rescore>
     Score     S(PLP)   S(hbond)     S(cho)   S(metal)  DE(clash)   DE(tors)     intcor
     25.36     -27.29       0.00       0.00       0.00       0.00       0.97       ----

> <Gold.PLP.Fitness>
25.3591

> <Gold.PLP.PLP>
-27.2902

> <Gold.PLP.part.hbond>
0.0000

> <Gold.PLP.part.metal>
0.0000

> <Gold.PLP.part.buried>
-4.8813

> <Gold.PLP.part.nonpolar>
-22.8117

> <Gold.PLP.part.repulsive>
0.1267

> <Gold.PLP.ligand.clash>
0.0000

> <Gold.PLP.ligand.torsion>
0.9656

> <Gold.PLP.Chemscore.Hbond>
0.0000

> <Gold.PLP.Chemscore.CHOScore>
0.0000

> <Gold.PLP.Chemscore.Metal>
0.0000

> <Gold.PLP.Chemscore.Internal.Correction>
   9.000000E+99

