#       Name:                CT1002167954
#       Creating user name   hitesit
#       Creation time:       Sun Apr 16 02:24:48 2023


#       File generated by GOLD software.
#

@<TRIPOS>MOLECULE
CT1002167954|ligand_prepared|mol2|1|dock4
    29    30     1
SMALL
NO_CHARGES


@<TRIPOS>ATOM
      1 C1         127.1019 267.4059 325.0323 C.3            1 RES1               0.0000
      2 C2         125.6204 267.1004 325.3335 C.ar           1 RES1               0.0000
      3 C3         127.2808 268.9069 325.2406 C.2            1 RES1               0.0000
      4 C4         127.9183 266.5435 325.9886 C.2            1 RES1               0.0000
      5 C5         127.5311 267.0558 323.5884 C.3            1 RES1               0.0000
      6 C6         124.9723 266.0433 324.7017 C.ar           1 RES1               0.0000
      7 C7         124.8909 267.8638 326.2410 C.ar           1 RES1               0.0000
      8 N8         127.9463 269.3147 326.3589 N.am           1 RES1               0.0000
      9 O9         126.8106 269.7214 324.4559 O.2            1 RES1               0.0000
     10 N10        128.6670 267.1777 326.9451 N.am           1 RES1               0.0000
     11 O11        127.9069 265.3200 325.9329 O.2            1 RES1               0.0000
     12 C12        128.8460 267.6933 323.1680 C.3            1 RES1               0.0000
     13 C13        123.6437 265.7578 324.9696 C.ar           1 RES1               0.0000
     14 C14        123.5623 267.5767 326.5073 C.ar           1 RES1               0.0000
     15 C15        128.6939 268.5231 327.1932 C.2            1 RES1               0.0000
     16 C16        122.9380 266.5238 325.8728 C.ar           1 RES1               0.0000
     17 O17        129.3504 269.0137 328.1072 O.2            1 RES1               0.0000
     18 H18        127.6233 265.9661 323.5019 H              1 RES1               0.0000
     19 H19        126.7439 267.3816 322.8973 H              1 RES1               0.0000
     20 H20        125.5108 265.4310 323.9861 H              1 RES1               0.0000
     21 H21        125.3611 268.6976 326.7512 H              1 RES1               0.0000
     22 H22        127.8821 270.2994 326.5969 H              1 RES1               0.0000
     23 H23        129.2592 266.5927 327.5260 H              1 RES1               0.0000
     24 H24        129.1004 267.4154 322.1473 H              1 RES1               0.0000
     25 H25        128.7820 268.7783 323.2178 H              1 RES1               0.0000
     26 H26        129.6562 267.3712 323.8189 H              1 RES1               0.0000
     27 H27        123.1567 264.9290 324.4665 H              1 RES1               0.0000
     28 H28        123.0106 268.1826 327.2184 H              1 RES1               0.0000
     29 H29        121.8974 266.2997 326.0828 H              1 RES1               0.0000
@<TRIPOS>BOND
    1    1    2 1     
    2    1    3 1     
    3    1    4 1     
    4    1    5 1     
    5    2    6 ar    
    6    2    7 ar    
    7    3    8 1     
    8    3    9 2     
    9    4   10 1     
   10    4   11 2     
   11    5   12 1     
   12    5   18 1     
   13    5   19 1     
   14    6   13 ar    
   15    6   20 1     
   16    7   14 ar    
   17    7   21 1     
   18    8   15 1     
   19    8   22 1     
   20   10   15 1     
   21   10   23 1     
   22   12   24 1     
   23   12   25 1     
   24   12   26 1     
   25   13   16 ar    
   26   13   27 1     
   27   14   16 ar    
   28   14   28 1     
   29   15   17 2     
   30   16   29 1     
@<TRIPOS>SUBSTRUCTURE
      1 RES1           1
@<TRIPOS>SET
DONOR_HYDROGENS      STATIC     ATOMS    <user>   **** ""
2 22 23
ATOM$RED        STATIC     ATOMS    COLORGROUP SYSTEM
2 22 23
@<TRIPOS>COMMENT
> <Gold.Version>
2022.3.0

> <Gold.Id.Protein>
unknown|5uo4_clean|pdb

> <Gold.Protein.RotatedTorsions>
[  761  739  740  741 ] final  170.58 input   85.38 | X-H torsion
[  791  780  781  782 ] final  -45.72 input   98.79 | X-H torsion
[ 1906 1895 1896 1897 ] final   15.38 input  105.28 | X-H torsion
[ 3221 3203 3202 3200 ] final  -68.64 input   59.99 | X-H torsion
[ 12734 12725 12726 12727 ] final  -83.71 input   72.11 | X-H torsion
[ 12769 12762 12763 12764 ] final  -57.36 input   62.98 | X-H torsion
[ 12775 12768 12766 12763 ] final -104.28 input   59.99 | X-H torsion
[  817  803  804  805 ] final  -62.99 input   48.10 | X-H torsion
[  823  809  807  804 ] final -109.90 input   60.00 | X-H torsion
[ 2020 2015 2014 2011 ] final    0.57 input   59.99 | X-H torsion
[ 1953 1932 1933 1934 ] final  172.25 input  111.26 | X-H torsion
[ 2042 2032 2033 2034 ] final  121.12 input  116.25 | X-H torsion
[ 2046 2037 2036 2033 ] final  105.52 input   60.01 | X-H torsion
[ 11769 11758 11759 11760 ] final  156.34 input   53.32 | X-H torsion
[ 13520  631  630  629 ] final -128.96 input    0.00 | X-H torsion
[ 13523  742  741  740 ] final   21.47 input    0.00 | X-H torsion
[ 13526 1766 1765 1764 ] final   56.59 input    0.00 | X-H torsion
[ 13533 1898 1897 1896 ] final -126.35 input   -0.00 | X-H torsion
[ 13537 3313 3312 3311 ] final  161.91 input   -0.00 | X-H torsion
[ 13540 12683 12682 12681 ] final   84.34 input   -0.00 | X-H torsion
[ 13543 12728 12727 12726 ] final  -73.29 input   -0.00 | X-H torsion
[ 13546 12765 12764 12763 ] final -168.81 input   -0.00 | X-H torsion
[ 13551 12793 12792 12791 ] final -129.17 input    0.00 | X-H torsion
[ 13553  703  702  701 ] final -147.13 input    0.00 | X-H torsion
[ 13555  783  782  781 ] final -158.64 input    0.00 | X-H torsion
[ 13562 11761 11760 11759 ] final   24.49 input   -0.00 | X-H torsion
[ 13568 11734 11733 11732 ] final  -27.78 input   -0.00 | X-H torsion

> <Gold.Protein.ActiveResidues>
 LEU321  HIS322  LEU323  LYS324  SER325  THR326  GLU365  PHE366  ASP368  GLN369 
 TYR370  SER372  SER373  TYR408  HIS412  ARG415  ASN416  CYS673  ARG674  PRO678 
 TYR703  ARG704  LEU705  THR706  PRO707 

> <Gold.Protein.RotatedAtoms>
  124.8049  270.3456  332.2687 H   0  0  0  0  0  0  0  0  0  0  0  0  # atno 761  bound_to 739 
  121.6642  270.2155  330.8278 H   0  0  0  0  0  0  0  0  0  0  0  0  # atno 791  bound_to 780 
  118.0325  269.1569  331.0648 H   0  0  0  0  0  0  0  0  0  0  0  0  # atno 817  bound_to 803 
  118.1828  271.0142  327.4955 H   0  0  0  0  0  0  0  0  0  0  0  0  # atno 823  bound_to 809 
  125.5850  271.2523  318.6329 H   0  0  0  0  0  0  0  0  0  0  0  0  # atno 1906 bound_to 1895
  125.7289  269.0866  318.3511 H   0  0  0  0  0  0  0  0  0  0  0  0  # atno 1953 bound_to 1932
  131.8336  270.7168  321.4645 H   0  0  0  0  0  0  0  0  0  0  0  0  # atno 2020 bound_to 2015
  130.0867  268.9969  318.9348 H   0  0  0  0  0  0  0  0  0  0  0  0  # atno 2042 bound_to 2032
  130.6153  265.5482  317.2554 H   0  0  0  0  0  0  0  0  0  0  0  0  # atno 2046 bound_to 2037
  127.1998  265.0272  320.9255 H   0  0  0  0  0  0  0  0  0  0  0  0  # atno 3221 bound_to 3203
  133.9568  262.4338  328.8992 H   0  0  0  0  0  0  0  0  0  0  0  0  # atno 11769 bound_to 11758
  118.4456  264.0238  329.3235 H   0  0  0  0  0  0  0  0  0  0  0  0  # atno 12734 bound_to 12725
  120.2123  264.4011  326.0183 H   0  0  0  0  0  0  0  0  0  0  0  0  # atno 12769 bound_to 12762
  117.5123  265.9314  321.9760 H   0  0  0  0  0  0  0  0  0  0  0  0  # atno 12775 bound_to 12768
  124.6534  268.5531  332.3097 LP  0  0  0  0  0  0  0  0  0  0  0  0  # atno 13520 bound_to 631 
  125.2192  267.3879  331.1599 LP  0  0  0  0  0  0  0  0  0  0  0  0  # atno 13521 bound_to 631 
  123.1576  269.9045  332.6488 LP  0  0  0  0  0  0  0  0  0  0  0  0  # atno 13522 bound_to 739 
  122.1177  270.5264  328.4156 LP  0  0  0  0  0  0  0  0  0  0  0  0  # atno 13523 bound_to 742 
  120.5368  270.2938  329.0841 LP  0  0  0  0  0  0  0  0  0  0  0  0  # atno 13524 bound_to 742 
  121.9942  268.7988  331.7879 LP  0  0  0  0  0  0  0  0  0  0  0  0  # atno 13525 bound_to 780 
  123.1925  271.7713  321.1892 LP  0  0  0  0  0  0  0  0  0  0  0  0  # atno 13526 bound_to 1766
  123.5592  271.7456  319.4966 LP  0  0  0  0  0  0  0  0  0  0  0  0  # atno 13527 bound_to 1766
  125.5187  272.1267  320.1382 LP  0  0  0  0  0  0  0  0  0  0  0  0  # atno 13532 bound_to 1895
  129.0628  268.8440  318.9225 LP  0  0  0  0  0  0  0  0  0  0  0  0  # atno 13533 bound_to 1898
  128.2931  268.1707  320.3204 LP  0  0  0  0  0  0  0  0  0  0  0  0  # atno 13534 bound_to 1898
  126.3256  266.2648  320.3328 LP  0  0  0  0  0  0  0  0  0  0  0  0  # atno 13535 bound_to 3203
  127.9413  266.2174  320.1005 LP  0  0  0  0  0  0  0  0  0  0  0  0  # atno 13536 bound_to 3203
  121.8837  259.6298  323.6800 LP  0  0  0  0  0  0  0  0  0  0  0  0  # atno 13537 bound_to 3313
  123.6110  259.5220  323.7500 LP  0  0  0  0  0  0  0  0  0  0  0  0  # atno 13538 bound_to 3313
  118.8267  266.0567  330.3872 LP  0  0  0  0  0  0  0  0  0  0  0  0  # atno 13540 bound_to 12683
  117.6228  265.8512  329.1590 LP  0  0  0  0  0  0  0  0  0  0  0  0  # atno 13541 bound_to 12683
  119.6416  262.7476  329.2880 LP  0  0  0  0  0  0  0  0  0  0  0  0  # atno 13542 bound_to 12725
  119.4289  262.1110  326.2295 LP  0  0  0  0  0  0  0  0  0  0  0  0  # atno 13543 bound_to 12728
  117.8700  262.8640  326.2814 LP  0  0  0  0  0  0  0  0  0  0  0  0  # atno 13544 bound_to 12728
  119.0684  265.7080  326.1956 LP  0  0  0  0  0  0  0  0  0  0  0  0  # atno 13545 bound_to 12762
  121.7651  265.8406  322.8627 LP  0  0  0  0  0  0  0  0  0  0  0  0  # atno 13546 bound_to 12765
  121.1494  266.0661  324.4658 LP  0  0  0  0  0  0  0  0  0  0  0  0  # atno 13547 bound_to 12765
  116.2213  265.3531  322.7810 LP  0  0  0  0  0  0  0  0  0  0  0  0  # atno 13548 bound_to 12768
  117.4971  264.3816  322.4729 LP  0  0  0  0  0  0  0  0  0  0  0  0  # atno 13549 bound_to 12768
  119.9017  260.5830  323.5214 LP  0  0  0  0  0  0  0  0  0  0  0  0  # atno 13551 bound_to 12793
  120.0898  262.2102  324.0843 LP  0  0  0  0  0  0  0  0  0  0  0  0  # atno 13552 bound_to 12793
  122.4704  272.3219  332.0069 LP  0  0  0  0  0  0  0  0  0  0  0  0  # atno 13553 bound_to 703 
  123.5171  273.0521  333.1778 LP  0  0  0  0  0  0  0  0  0  0  0  0  # atno 13554 bound_to 703 
  118.3345  271.2780  332.1554 LP  0  0  0  0  0  0  0  0  0  0  0  0  # atno 13555 bound_to 783 
  120.0474  271.0221  332.1363 LP  0  0  0  0  0  0  0  0  0  0  0  0  # atno 13556 bound_to 783 
  118.5275  269.6177  329.4520 LP  0  0  0  0  0  0  0  0  0  0  0  0  # atno 13557 bound_to 803 
  116.6156  270.9790  327.0602 LP  0  0  0  0  0  0  0  0  0  0  0  0  # atno 13558 bound_to 809 
  117.2141  269.8355  328.0606 LP  0  0  0  0  0  0  0  0  0  0  0  0  # atno 13559 bound_to 809 
  130.4019  270.4794  322.2004 LP  0  0  0  0  0  0  0  0  0  0  0  0  # atno 13560 bound_to 2015
  131.1684  271.9143  322.3427 LP  0  0  0  0  0  0  0  0  0  0  0  0  # atno 13561 bound_to 2015
  130.2344  265.2732  329.6462 LP  0  0  0  0  0  0  0  0  0  0  0  0  # atno 13562 bound_to 11761
  130.7181  266.0763  331.1026 LP  0  0  0  0  0  0  0  0  0  0  0  0  # atno 13563 bound_to 11761
  127.1573  270.0843  318.4455 LP  0  0  0  0  0  0  0  0  0  0  0  0  # atno 13564 bound_to 1932
  131.6574  269.6717  319.3037 LP  0  0  0  0  0  0  0  0  0  0  0  0  # atno 13565 bound_to 2032
  130.6264  267.1705  317.1305 LP  0  0  0  0  0  0  0  0  0  0  0  0  # atno 13566 bound_to 2037
  129.2387  266.3852  317.4828 LP  0  0  0  0  0  0  0  0  0  0  0  0  # atno 13567 bound_to 2037
  135.6272  264.7930  327.6851 LP  0  0  0  0  0  0  0  0  0  0  0  0  # atno 13568 bound_to 11734
  133.9100  264.6658  327.4979 LP  0  0  0  0  0  0  0  0  0  0  0  0  # atno 13569 bound_to 11734
  134.2831  263.4873  330.2546 LP  0  0  0  0  0  0  0  0  0  0  0  0  # atno 13570 bound_to 11758

> <Gold.Score>
     Fitness  S(hb_ext) S(vdw_ext)  S(hb_int)    S(int)      intcor
     35.50       4.45      23.25       0.00      -0.93      -0.76

> <Gold.Goldscore.Fitness>
35.4985

> <Gold.Goldscore.Internal.Vdw>
-0.9258

> <Gold.Goldscore.Internal.Torsion>
-0.7636

> <Gold.Goldscore.External.Vdw>
23.2542

> <Gold.Goldscore.Internal.HBond>
0.0000

> <Gold.Goldscore.External.HBond>
4.4548

> <Gold.Goldscore.Internal.Correction>
-0.7585

> <Gold.Goldscore.Hbonds>
donor molecule, donor type, donor heavy atom, donor atom, acceptor molecule, acceptor atom, score
      P1  H 11765 11777       L1    11  0.72
      P1  H 11768 11781       L1    11  0.02
      L1  H    10    23       P1 11761  0.01

> <Gold.Goldscore.Internal.Vdw.Weighted>
-0.9258

> <Gold.Goldscore.Internal.Torsion.Weighted>
-0.7636

> <Gold.Goldscore.External.Vdw.Weighted>
31.9746

> <Gold.Goldscore.Internal.HBond.Weighted>
0.0000

> <Gold.Goldscore.External.HBond.Weighted>
4.4548

> <Gold.Goldscore.Internal.Correction.Weighted>
-0.7585

> <Gold.Rescore>
     Score     S(PLP)   S(hbond)     S(cho)   S(metal)  DE(clash)   DE(tors)     intcor
     37.42     -33.93       1.71       0.00       0.00       1.38       0.14       ----

> <Gold.PLP.Fitness>
37.4212

> <Gold.PLP.PLP>
-33.9347

> <Gold.PLP.part.hbond>
-2.0000

> <Gold.PLP.part.metal>
0.0000

> <Gold.PLP.part.buried>
-4.9051

> <Gold.PLP.part.nonpolar>
-27.2994

> <Gold.PLP.part.repulsive>
0.1324

> <Gold.PLP.ligand.clash>
1.3814

> <Gold.PLP.ligand.torsion>
0.1366

> <Gold.PLP.Chemscore.Hbond>
1.7137

> <Gold.PLP.Chemscore.CHOScore>
0.0000

> <Gold.PLP.Chemscore.Metal>
0.0000

> <Gold.Chemscore.Hbonds>
donor molecule, donor type, donor heavy atom, donor atom, acceptor molecule, acceptor atom, score
      P1  H 11765 11777       L1    11  0.88
      P1  H 11768 11781       L1    11  0.41

> <Gold.PLP.Chemscore.Internal.Correction>
   9.000000E+99

