#       Name:                CT1002167954
#       Creating user name   hitesit
#       Creation time:       Sun Apr 16 02:24:48 2023


#       File generated by GOLD software.
#

@<TRIPOS>MOLECULE
CT1002167954|ligand_prepared|mol2|1|dock5
    29    30     1
SMALL
NO_CHARGES


@<TRIPOS>ATOM
      1 C1         128.2800 266.7646 323.8780 C.3            1 RES1               0.0000
      2 C2         126.8711 267.2674 324.2536 C.ar           1 RES1               0.0000
      3 C3         128.8763 267.8166 322.9474 C.2            1 RES1               0.0000
      4 C4         129.0364 266.5947 325.1908 C.2            1 RES1               0.0000
      5 C5         128.2826 265.4027 323.1454 C.3            1 RES1               0.0000
      6 C6         126.6508 268.6119 324.5373 C.ar           1 RES1               0.0000
      7 C7         125.7833 266.4007 324.3178 C.ar           1 RES1               0.0000
      8 N8         129.8496 268.6278 323.4522 N.am           1 RES1               0.0000
      9 O9         128.4711 267.9585 321.8003 O.2            1 RES1               0.0000
     10 N10        130.1107 267.4130 325.4234 N.am           1 RES1               0.0000
     11 O11        128.7017 265.7710 326.0333 O.2            1 RES1               0.0000
     12 C12        129.6249 265.0404 322.5295 C.3            1 RES1               0.0000
     13 C13        125.3882 269.0738 324.8702 C.ar           1 RES1               0.0000
     14 C14        124.5215 266.8647 324.6512 C.ar           1 RES1               0.0000
     15 C15        130.5328 268.4425 324.6271 C.2            1 RES1               0.0000
     16 C16        124.3228 268.2008 324.9270 C.ar           1 RES1               0.0000
     17 O17        131.4745 269.1695 324.9304 O.2            1 RES1               0.0000
     18 H18        127.9975 264.6182 323.8573 H              1 RES1               0.0000
     19 H19        127.5253 265.4269 322.3521 H              1 RES1               0.0000
     20 H20        127.4776 269.3133 324.5001 H              1 RES1               0.0000
     21 H21        125.9163 265.3452 324.1059 H              1 RES1               0.0000
     22 H22        130.0917 269.4480 322.9055 H              1 RES1               0.0000
     23 H23        130.6453 267.2383 326.2684 H              1 RES1               0.0000
     24 H24        129.5716 264.0762 322.0282 H              1 RES1               0.0000
     25 H25        129.9275 265.7865 321.7977 H              1 RES1               0.0000
     26 H26        130.3970 264.9826 323.2940 H              1 RES1               0.0000
     27 H27        125.2374 270.1261 325.0877 H              1 RES1               0.0000
     28 H28        123.6860 266.1739 324.6953 H              1 RES1               0.0000
     29 H29        123.3338 268.5630 325.1875 H              1 RES1               0.0000
@<TRIPOS>BOND
    1    1    2 1     
    2    1    3 1     
    3    1    4 1     
    4    1    5 1     
    5    2    6 ar    
    6    2    7 ar    
    7    3    8 1     
    8    3    9 2     
    9    4   10 1     
   10    4   11 2     
   11    5   12 1     
   12    5   18 1     
   13    5   19 1     
   14    6   13 ar    
   15    6   20 1     
   16    7   14 ar    
   17    7   21 1     
   18    8   15 1     
   19    8   22 1     
   20   10   15 1     
   21   10   23 1     
   22   12   24 1     
   23   12   25 1     
   24   12   26 1     
   25   13   16 ar    
   26   13   27 1     
   27   14   16 ar    
   28   14   28 1     
   29   15   17 2     
   30   16   29 1     
@<TRIPOS>SUBSTRUCTURE
      1 RES1           1
@<TRIPOS>SET
DONOR_HYDROGENS      STATIC     ATOMS    <user>   **** ""
2 22 23
ATOM$RED        STATIC     ATOMS    COLORGROUP SYSTEM
2 22 23
@<TRIPOS>COMMENT
> <Gold.Version>
2022.3.0

> <Gold.Id.Protein>
unknown|5uo4_clean|pdb

> <Gold.Protein.RotatedTorsions>
[  761  739  740  741 ] final -135.57 input   85.38 | X-H torsion
[  791  780  781  782 ] final  143.79 input   98.79 | X-H torsion
[ 1906 1895 1896 1897 ] final -156.27 input  105.28 | X-H torsion
[ 3221 3203 3202 3200 ] final   29.70 input   59.99 | X-H torsion
[ 12734 12725 12726 12727 ] final   61.01 input   72.11 | X-H torsion
[ 12769 12762 12763 12764 ] final   14.85 input   62.98 | X-H torsion
[ 12775 12768 12766 12763 ] final   97.16 input   59.99 | X-H torsion
[  817  803  804  805 ] final  -66.82 input   48.10 | X-H torsion
[  823  809  807  804 ] final   47.59 input   60.00 | X-H torsion
[ 2020 2015 2014 2011 ] final    1.66 input   59.99 | X-H torsion
[ 1953 1932 1933 1934 ] final  -97.70 input  111.26 | X-H torsion
[ 2042 2032 2033 2034 ] final  147.70 input  116.25 | X-H torsion
[ 2046 2037 2036 2033 ] final   11.35 input   60.01 | X-H torsion
[ 11769 11758 11759 11760 ] final  -16.75 input   53.32 | X-H torsion
[ 13520  631  630  629 ] final   27.41 input    0.00 | X-H torsion
[ 13523  742  741  740 ] final  -86.45 input    0.00 | X-H torsion
[ 13526 1766 1765 1764 ] final -103.49 input    0.00 | X-H torsion
[ 13533 1898 1897 1896 ] final -126.03 input   -0.00 | X-H torsion
[ 13537 3313 3312 3311 ] final    9.16 input   -0.00 | X-H torsion
[ 13540 12683 12682 12681 ] final  162.38 input   -0.00 | X-H torsion
[ 13543 12728 12727 12726 ] final   45.43 input   -0.00 | X-H torsion
[ 13546 12765 12764 12763 ] final  -82.49 input   -0.00 | X-H torsion
[ 13551 12793 12792 12791 ] final   60.87 input    0.00 | X-H torsion
[ 13553  703  702  701 ] final  163.98 input    0.00 | X-H torsion
[ 13555  783  782  781 ] final  138.56 input    0.00 | X-H torsion
[ 13562 11761 11760 11759 ] final   55.73 input   -0.00 | X-H torsion
[ 13568 11734 11733 11732 ] final -105.86 input   -0.00 | X-H torsion

> <Gold.Protein.ActiveResidues>
 LEU321  HIS322  LEU323  LYS324  SER325  THR326  GLU365  PHE366  ASP368  GLN369 
 TYR370  SER372  SER373  TYR408  HIS412  ARG415  ASN416  CYS673  ARG674  PRO678 
 TYR703  ARG704  LEU705  THR706  PRO707 

> <Gold.Protein.RotatedAtoms>
  124.3209  270.9321  332.5159 H   0  0  0  0  0  0  0  0  0  0  0  0  # atno 761  bound_to 739 
  122.0635  268.7428  331.6726 H   0  0  0  0  0  0  0  0  0  0  0  0  # atno 791  bound_to 780 
  118.0705  269.1972  331.0859 H   0  0  0  0  0  0  0  0  0  0  0  0  # atno 817  bound_to 803 
  116.6914  269.9885  327.8003 H   0  0  0  0  0  0  0  0  0  0  0  0  # atno 823  bound_to 809 
  125.6147  272.2001  320.0929 H   0  0  0  0  0  0  0  0  0  0  0  0  # atno 1906 bound_to 1895
  126.7870  269.0482  319.0024 H   0  0  0  0  0  0  0  0  0  0  0  0  # atno 1953 bound_to 1932
  131.8419  270.7326  321.4661 H   0  0  0  0  0  0  0  0  0  0  0  0  # atno 2020 bound_to 2015
  130.0844  269.0225  319.3415 H   0  0  0  0  0  0  0  0  0  0  0  0  # atno 2042 bound_to 2032
  130.9219  266.8744  317.0921 H   0  0  0  0  0  0  0  0  0  0  0  0  # atno 2046 bound_to 2037
  128.0650  265.9239  320.2527 H   0  0  0  0  0  0  0  0  0  0  0  0  # atno 3221 bound_to 3203
  134.2312  263.4306  330.3300 H   0  0  0  0  0  0  0  0  0  0  0  0  # atno 11769 bound_to 11758
  119.2810  262.6082  328.9243 H   0  0  0  0  0  0  0  0  0  0  0  0  # atno 12734 bound_to 12725
  120.3800  265.3968  325.7803 H   0  0  0  0  0  0  0  0  0  0  0  0  # atno 12769 bound_to 12762
  116.4070  264.7693  322.8787 H   0  0  0  0  0  0  0  0  0  0  0  0  # atno 12775 bound_to 12768
  125.4638  267.6428  331.1312 LP  0  0  0  0  0  0  0  0  0  0  0  0  # atno 13520 bound_to 631 
  124.4088  268.2982  332.3384 LP  0  0  0  0  0  0  0  0  0  0  0  0  # atno 13521 bound_to 631 
  123.6314  269.3304  332.4068 LP  0  0  0  0  0  0  0  0  0  0  0  0  # atno 13522 bound_to 739 
  121.0588  271.1689  329.0694 LP  0  0  0  0  0  0  0  0  0  0  0  0  # atno 13523 bound_to 742 
  121.5957  269.6513  328.4303 LP  0  0  0  0  0  0  0  0  0  0  0  0  # atno 13524 bound_to 742 
  121.5983  270.2592  330.9501 LP  0  0  0  0  0  0  0  0  0  0  0  0  # atno 13525 bound_to 780 
  123.5886  272.0385  319.5515 LP  0  0  0  0  0  0  0  0  0  0  0  0  # atno 13526 bound_to 1766
  123.1630  271.4784  321.1342 LP  0  0  0  0  0  0  0  0  0  0  0  0  # atno 13527 bound_to 1766
  125.4891  271.1828  318.6843 LP  0  0  0  0  0  0  0  0  0  0  0  0  # atno 13532 bound_to 1895
  129.0643  268.8478  318.9251 LP  0  0  0  0  0  0  0  0  0  0  0  0  # atno 13533 bound_to 1898
  128.2915  268.1669  320.3177 LP  0  0  0  0  0  0  0  0  0  0  0  0  # atno 13534 bound_to 1898
  126.8530  265.0896  320.9467 LP  0  0  0  0  0  0  0  0  0  0  0  0  # atno 13535 bound_to 3203
  126.5419  266.4890  320.1646 LP  0  0  0  0  0  0  0  0  0  0  0  0  # atno 13536 bound_to 3203
  123.5406  259.9232  323.7265 LP  0  0  0  0  0  0  0  0  0  0  0  0  # atno 13537 bound_to 3313
  121.9541  259.2286  323.7034 LP  0  0  0  0  0  0  0  0  0  0  0  0  # atno 13538 bound_to 3313
  118.9443  266.0599  329.3030 LP  0  0  0  0  0  0  0  0  0  0  0  0  # atno 13540 bound_to 12683
  117.5052  265.8480  330.2432 LP  0  0  0  0  0  0  0  0  0  0  0  0  # atno 13541 bound_to 12683
  118.8303  264.1223  329.6757 LP  0  0  0  0  0  0  0  0  0  0  0  0  # atno 13542 bound_to 12725
  118.2386  262.5416  327.0159 LP  0  0  0  0  0  0  0  0  0  0  0  0  # atno 13543 bound_to 12728
  119.0603  262.4335  325.4950 LP  0  0  0  0  0  0  0  0  0  0  0  0  # atno 13544 bound_to 12728
  118.9035  264.7288  326.4297 LP  0  0  0  0  0  0  0  0  0  0  0  0  # atno 13545 bound_to 12762
  120.9932  266.6059  323.3343 LP  0  0  0  0  0  0  0  0  0  0  0  0  # atno 13546 bound_to 12765
  121.9213  265.3008  323.9942 LP  0  0  0  0  0  0  0  0  0  0  0  0  # atno 13547 bound_to 12765
  117.8710  264.7747  322.1675 LP  0  0  0  0  0  0  0  0  0  0  0  0  # atno 13548 bound_to 12768
  116.9602  266.1300  322.1776 LP  0  0  0  0  0  0  0  0  0  0  0  0  # atno 13549 bound_to 12768
  119.9760  262.1766  324.1786 LP  0  0  0  0  0  0  0  0  0  0  0  0  # atno 13551 bound_to 12793
  120.0154  260.6166  323.4270 LP  0  0  0  0  0  0  0  0  0  0  0  0  # atno 13552 bound_to 12793
  123.0952  272.5534  331.7427 LP  0  0  0  0  0  0  0  0  0  0  0  0  # atno 13553 bound_to 703 
  122.8923  272.8206  333.4419 LP  0  0  0  0  0  0  0  0  0  0  0  0  # atno 13554 bound_to 703 
  118.8665  271.7014  331.5621 LP  0  0  0  0  0  0  0  0  0  0  0  0  # atno 13555 bound_to 783 
  119.5153  270.5987  332.7296 LP  0  0  0  0  0  0  0  0  0  0  0  0  # atno 13556 bound_to 783 
  118.4905  269.5785  329.4315 LP  0  0  0  0  0  0  0  0  0  0  0  0  # atno 13557 bound_to 803 
  118.2245  270.5304  327.8541 LP  0  0  0  0  0  0  0  0  0  0  0  0  # atno 13558 bound_to 809 
  117.1080  271.3176  326.9596 LP  0  0  0  0  0  0  0  0  0  0  0  0  # atno 13559 bound_to 809 
  130.4095  270.4662  322.1907 LP  0  0  0  0  0  0  0  0  0  0  0  0  # atno 13560 bound_to 2015
  131.1526  271.9115  322.3508 LP  0  0  0  0  0  0  0  0  0  0  0  0  # atno 13561 bound_to 2015
  130.0139  265.0505  329.9916 LP  0  0  0  0  0  0  0  0  0  0  0  0  # atno 13562 bound_to 11761
  130.9386  266.2990  330.7572 LP  0  0  0  0  0  0  0  0  0  0  0  0  # atno 13563 bound_to 11761
  126.1140  270.1222  317.8033 LP  0  0  0  0  0  0  0  0  0  0  0  0  # atno 13564 bound_to 1932
  131.6595  269.6468  318.9080 LP  0  0  0  0  0  0  0  0  0  0  0  0  # atno 13565 bound_to 2032
  129.3329  266.7928  317.4326 LP  0  0  0  0  0  0  0  0  0  0  0  0  # atno 13566 bound_to 2037
  130.2234  265.4268  317.3453 LP  0  0  0  0  0  0  0  0  0  0  0  0  # atno 13567 bound_to 2037
  134.8361  265.3027  328.2371 LP  0  0  0  0  0  0  0  0  0  0  0  0  # atno 13568 bound_to 11734
  134.7011  264.1560  326.9460 LP  0  0  0  0  0  0  0  0  0  0  0  0  # atno 13569 bound_to 11734
  134.0153  262.5142  328.8578 LP  0  0  0  0  0  0  0  0  0  0  0  0  # atno 13570 bound_to 11758

> <Gold.Score>
     Fitness  S(hb_ext) S(vdw_ext)  S(hb_int)    S(int)      intcor
     36.19       7.65      20.91       0.00      -0.21      -0.76

> <Gold.Goldscore.Fitness>
36.1874

> <Gold.Goldscore.Internal.Vdw>
-0.3884

> <Gold.Goldscore.Internal.Torsion>
-0.5849

> <Gold.Goldscore.External.Vdw>
20.9119

> <Gold.Goldscore.Internal.HBond>
0.0000

> <Gold.Goldscore.External.HBond>
7.6484

> <Gold.Goldscore.Internal.Correction>
-0.7585

> <Gold.Goldscore.Hbonds>
donor molecule, donor type, donor heavy atom, donor atom, acceptor molecule, acceptor atom, score
      P1  H 11765 11777       L1    11  0.95
      L1  H     8    22       P1  2015  0.97

> <Gold.Goldscore.Internal.Vdw.Weighted>
-0.3884

> <Gold.Goldscore.Internal.Torsion.Weighted>
-0.5849

> <Gold.Goldscore.External.Vdw.Weighted>
28.7538

> <Gold.Goldscore.Internal.HBond.Weighted>
0.0000

> <Gold.Goldscore.External.HBond.Weighted>
7.6484

> <Gold.Goldscore.Internal.Correction.Weighted>
-0.7585

> <Gold.Rescore>
     Score     S(PLP)   S(hbond)     S(cho)   S(metal)  DE(clash)   DE(tors)     intcor
     26.59     -25.12       0.99       0.00       0.00       0.00       0.75       ----

> <Gold.PLP.Fitness>
26.5944

> <Gold.PLP.PLP>
-25.1164

> <Gold.PLP.part.hbond>
-2.4687

> <Gold.PLP.part.metal>
0.0000

> <Gold.PLP.part.buried>
0.8473

> <Gold.PLP.part.nonpolar>
-23.9563

> <Gold.PLP.part.repulsive>
0.1792

> <Gold.PLP.ligand.clash>
0.0000

> <Gold.PLP.ligand.torsion>
0.7479

> <Gold.PLP.Chemscore.Hbond>
0.9913

> <Gold.PLP.Chemscore.CHOScore>
0.0000

> <Gold.PLP.Chemscore.Metal>
0.0000

> <Gold.Chemscore.Hbonds>
donor molecule, donor type, donor heavy atom, donor atom, acceptor molecule, acceptor atom, score
      L1  H     8    22       P1  2015  0.63
      P1  H 11765 11777       L1    11  1.00

> <Gold.PLP.Chemscore.Internal.Correction>
   9.000000E+99

