#       Name:                CT1002167954
#       Creating user name   hitesit
#       Creation time:       Sun Apr 16 02:24:50 2023


#       File generated by GOLD software.
#

@<TRIPOS>MOLECULE
CT1002167954|ligand_prepared|mol2|1|dock7
    29    30     1
SMALL
NO_CHARGES


@<TRIPOS>ATOM
      1 C1         128.9380 266.7727 324.2193 C.3            1 RES1               0.0000
      2 C2         129.8522 265.8328 323.4071 C.ar           1 RES1               0.0000
      3 C3         128.9259 266.2314 325.6458 C.2            1 RES1               0.0000
      4 C4         129.5374 268.1686 324.0886 C.2            1 RES1               0.0000
      5 C5         127.4815 266.8280 323.7025 C.3            1 RES1               0.0000
      6 C6         131.2228 265.7968 323.6457 C.ar           1 RES1               0.0000
      7 C7         129.3400 264.9953 322.4197 C.ar           1 RES1               0.0000
      8 N8         129.6279 266.9218 326.5896 N.am           1 RES1               0.0000
      9 O9         128.3421 265.1930 325.9303 O.2            1 RES1               0.0000
     10 N10        130.0392 268.7602 325.2181 N.am           1 RES1               0.0000
     11 O11        129.5948 268.7546 323.0145 O.2            1 RES1               0.0000
     12 C12        126.6333 267.8973 324.3727 C.3            1 RES1               0.0000
     13 C13        132.0510 264.9522 322.9254 C.ar           1 RES1               0.0000
     14 C14        130.1701 264.1515 321.7003 C.ar           1 RES1               0.0000
     15 C15        130.1394 268.1876 326.4568 C.2            1 RES1               0.0000
     16 C16        131.5253 264.1287 321.9526 C.ar           1 RES1               0.0000
     17 O17        130.6531 268.7635 327.4116 O.2            1 RES1               0.0000
     18 H18        127.4972 267.0156 322.6218 H              1 RES1               0.0000
     19 H19        127.0114 265.8504 323.8663 H              1 RES1               0.0000
     20 H20        131.6548 266.4394 324.4056 H              1 RES1               0.0000
     21 H21        128.2771 264.9972 322.2034 H              1 RES1               0.0000
     22 H22        129.7872 266.4535 327.4759 H              1 RES1               0.0000
     23 H23        130.3685 269.7161 325.1272 H              1 RES1               0.0000
     24 H24        125.6211 267.8930 323.9737 H              1 RES1               0.0000
     25 H25        126.5752 267.7272 325.4458 H              1 RES1               0.0000
     26 H26        127.0581 268.8855 324.2087 H              1 RES1               0.0000
     27 H27        133.1171 264.9390 323.1268 H              1 RES1               0.0000
     28 H28        129.7521 263.5056 320.9353 H              1 RES1               0.0000
     29 H29        132.1743 263.4669 321.3888 H              1 RES1               0.0000
@<TRIPOS>BOND
    1    1    2 1     
    2    1    3 1     
    3    1    4 1     
    4    1    5 1     
    5    2    6 ar    
    6    2    7 ar    
    7    3    8 1     
    8    3    9 2     
    9    4   10 1     
   10    4   11 2     
   11    5   12 1     
   12    5   18 1     
   13    5   19 1     
   14    6   13 ar    
   15    6   20 1     
   16    7   14 ar    
   17    7   21 1     
   18    8   15 1     
   19    8   22 1     
   20   10   15 1     
   21   10   23 1     
   22   12   24 1     
   23   12   25 1     
   24   12   26 1     
   25   13   16 ar    
   26   13   27 1     
   27   14   16 ar    
   28   14   28 1     
   29   15   17 2     
   30   16   29 1     
@<TRIPOS>SUBSTRUCTURE
      1 RES1           1
@<TRIPOS>SET
DONOR_HYDROGENS      STATIC     ATOMS    <user>   **** ""
2 22 23
ATOM$RED        STATIC     ATOMS    COLORGROUP SYSTEM
2 22 23
@<TRIPOS>COMMENT
> <Gold.Version>
2022.3.0

> <Gold.Id.Protein>
unknown|5uo4_clean|pdb

> <Gold.Protein.RotatedTorsions>
[  761  739  740  741 ] final  114.85 input   85.38 | X-H torsion
[  791  780  781  782 ] final  -49.72 input   98.79 | X-H torsion
[ 1906 1895 1896 1897 ] final -116.25 input  105.28 | X-H torsion
[ 3221 3203 3202 3200 ] final  106.32 input   59.99 | X-H torsion
[ 12734 12725 12726 12727 ] final  -50.94 input   72.11 | X-H torsion
[ 12769 12762 12763 12764 ] final  -16.92 input   62.98 | X-H torsion
[ 12775 12768 12766 12763 ] final  -12.54 input   59.99 | X-H torsion
[  817  803  804  805 ] final -138.94 input   48.10 | X-H torsion
[  823  809  807  804 ] final -131.12 input   60.00 | X-H torsion
[ 2020 2015 2014 2011 ] final -114.03 input   59.99 | X-H torsion
[ 1953 1932 1933 1934 ] final  -12.27 input  111.26 | X-H torsion
[ 2042 2032 2033 2034 ] final  173.77 input  116.25 | X-H torsion
[ 2046 2037 2036 2033 ] final  -82.45 input   60.01 | X-H torsion
[ 11769 11758 11759 11760 ] final  -50.00 input   53.32 | X-H torsion
[ 13520  631  630  629 ] final  -80.71 input    0.00 | X-H torsion
[ 13523  742  741  740 ] final  -89.25 input    0.00 | X-H torsion
[ 13526 1766 1765 1764 ] final  148.25 input    0.00 | X-H torsion
[ 13533 1898 1897 1896 ] final  -56.22 input   -0.00 | X-H torsion
[ 13537 3313 3312 3311 ] final  -10.05 input   -0.00 | X-H torsion
[ 13540 12683 12682 12681 ] final  -47.96 input   -0.00 | X-H torsion
[ 13543 12728 12727 12726 ] final  176.33 input   -0.00 | X-H torsion
[ 13546 12765 12764 12763 ] final -168.83 input   -0.00 | X-H torsion
[ 13551 12793 12792 12791 ] final  -55.66 input    0.00 | X-H torsion
[ 13553  703  702  701 ] final  132.48 input    0.00 | X-H torsion
[ 13555  783  782  781 ] final   49.72 input    0.00 | X-H torsion
[ 13562 11761 11760 11759 ] final  -29.55 input   -0.00 | X-H torsion
[ 13568 11734 11733 11732 ] final -133.11 input   -0.00 | X-H torsion

> <Gold.Protein.ActiveResidues>
 LEU321  HIS322  LEU323  LYS324  SER325  THR326  GLU365  PHE366  ASP368  GLN369 
 TYR370  SER372  SER373  TYR408  HIS412  ARG415  ASN416  CYS673  ARG674  PRO678 
 TYR703  ARG704  LEU705  THR706  PRO707 

> <Gold.Protein.RotatedAtoms>
  124.5871  269.5546  332.1798 H   0  0  0  0  0  0  0  0  0  0  0  0  # atno 761  bound_to 739 
  121.6879  270.1861  330.7800 H   0  0  0  0  0  0  0  0  0  0  0  0  # atno 791  bound_to 780 
  118.7632  269.9151  330.7774 H   0  0  0  0  0  0  0  0  0  0  0  0  # atno 817  bound_to 803 
  118.0015  271.2241  327.2909 H   0  0  0  0  0  0  0  0  0  0  0  0  # atno 823  bound_to 809 
  126.0759  272.3001  319.7268 H   0  0  0  0  0  0  0  0  0  0  0  0  # atno 1906 bound_to 1895
  127.1881  270.0517  318.4996 H   0  0  0  0  0  0  0  0  0  0  0  0  # atno 1953 bound_to 1932
  130.4460  270.4216  322.1490 H   0  0  0  0  0  0  0  0  0  0  0  0  # atno 2020 bound_to 2015
  130.2467  269.1116  319.6958 H   0  0  0  0  0  0  0  0  0  0  0  0  # atno 2042 bound_to 2032
  129.6018  267.1135  317.3540 H   0  0  0  0  0  0  0  0  0  0  0  0  # atno 2046 bound_to 2037
  127.1927  266.6347  319.9707 H   0  0  0  0  0  0  0  0  0  0  0  0  # atno 3221 bound_to 3203
  134.4402  263.7027  329.9581 H   0  0  0  0  0  0  0  0  0  0  0  0  # atno 11769 bound_to 11758
  118.2868  263.6907  328.9850 H   0  0  0  0  0  0  0  0  0  0  0  0  # atno 12734 bound_to 12725
  120.4614  264.9251  325.8346 H   0  0  0  0  0  0  0  0  0  0  0  0  # atno 12769 bound_to 12762
  117.7966  264.6454  322.2467 H   0  0  0  0  0  0  0  0  0  0  0  0  # atno 12775 bound_to 12768
  125.2476  268.7423  331.9745 LP  0  0  0  0  0  0  0  0  0  0  0  0  # atno 13520 bound_to 631 
  124.6250  267.1987  331.4952 LP  0  0  0  0  0  0  0  0  0  0  0  0  # atno 13521 bound_to 631 
  123.3708  270.6789  332.7359 LP  0  0  0  0  0  0  0  0  0  0  0  0  # atno 13522 bound_to 739 
  121.0228  271.1501  329.0811 LP  0  0  0  0  0  0  0  0  0  0  0  0  # atno 13523 bound_to 742 
  121.6317  269.6701  328.4186 LP  0  0  0  0  0  0  0  0  0  0  0  0  # atno 13524 bound_to 742 
  121.9707  268.8280  331.8353 LP  0  0  0  0  0  0  0  0  0  0  0  0  # atno 13525 bound_to 780 
  123.2625  270.9007  320.3057 LP  0  0  0  0  0  0  0  0  0  0  0  0  # atno 13526 bound_to 1766
  123.4892  272.6162  320.3800 LP  0  0  0  0  0  0  0  0  0  0  0  0  # atno 13527 bound_to 1766
  125.0298  271.0832  319.0489 LP  0  0  0  0  0  0  0  0  0  0  0  0  # atno 13532 bound_to 1895
  129.0670  269.2524  319.8299 LP  0  0  0  0  0  0  0  0  0  0  0  0  # atno 13533 bound_to 1898
  128.2888  267.7623  319.4129 LP  0  0  0  0  0  0  0  0  0  0  0  0  # atno 13534 bound_to 1898
  127.9451  265.3457  320.6182 LP  0  0  0  0  0  0  0  0  0  0  0  0  # atno 13535 bound_to 3203
  126.3289  265.5166  320.7773 LP  0  0  0  0  0  0  0  0  0  0  0  0  # atno 13536 bound_to 3203
  123.6103  259.6432  323.7437 LP  0  0  0  0  0  0  0  0  0  0  0  0  # atno 13537 bound_to 3313
  121.8845  259.5086  323.6863 LP  0  0  0  0  0  0  0  0  0  0  0  0  # atno 13538 bound_to 3313
  117.3699  265.8208  329.8114 LP  0  0  0  0  0  0  0  0  0  0  0  0  # atno 13540 bound_to 12683
  119.0796  266.0871  329.7348 LP  0  0  0  0  0  0  0  0  0  0  0  0  # atno 13541 bound_to 12683
  119.7959  263.0710  329.6167 LP  0  0  0  0  0  0  0  0  0  0  0  0  # atno 13542 bound_to 12725
  118.4168  262.7542  325.4650 LP  0  0  0  0  0  0  0  0  0  0  0  0  # atno 13543 bound_to 12728
  118.8820  262.2208  327.0459 LP  0  0  0  0  0  0  0  0  0  0  0  0  # atno 13544 bound_to 12728
  118.8234  265.1927  326.3762 LP  0  0  0  0  0  0  0  0  0  0  0  0  # atno 13545 bound_to 12762
  121.7652  265.8404  322.8627 LP  0  0  0  0  0  0  0  0  0  0  0  0  # atno 13546 bound_to 12765
  121.1493  266.0663  324.4657 LP  0  0  0  0  0  0  0  0  0  0  0  0  # atno 13547 bound_to 12765
  117.1136  266.1163  322.1078 LP  0  0  0  0  0  0  0  0  0  0  0  0  # atno 13548 bound_to 12768
  116.3185  264.9130  322.8736 LP  0  0  0  0  0  0  0  0  0  0  0  0  # atno 13549 bound_to 12768
  120.5868  261.2820  323.1803 LP  0  0  0  0  0  0  0  0  0  0  0  0  # atno 13551 bound_to 12793
  119.4047  261.5112  324.4253 LP  0  0  0  0  0  0  0  0  0  0  0  0  # atno 13552 bound_to 12793
  123.4894  272.7653  331.8865 LP  0  0  0  0  0  0  0  0  0  0  0  0  # atno 13553 bound_to 703 
  122.4981  272.6087  333.2982 LP  0  0  0  0  0  0  0  0  0  0  0  0  # atno 13554 bound_to 703 
  119.9804  271.3007  331.8234 LP  0  0  0  0  0  0  0  0  0  0  0  0  # atno 13555 bound_to 783 
  118.4014  270.9994  332.4683 LP  0  0  0  0  0  0  0  0  0  0  0  0  # atno 13556 bound_to 783 
  117.8174  268.8809  329.7313 LP  0  0  0  0  0  0  0  0  0  0  0  0  # atno 13557 bound_to 803 
  116.4608  270.7073  327.2111 LP  0  0  0  0  0  0  0  0  0  0  0  0  # atno 13558 bound_to 809 
  117.5516  269.8958  328.1157 LP  0  0  0  0  0  0  0  0  0  0  0  0  # atno 13559 bound_to 809 
  131.0902  271.8976  322.3813 LP  0  0  0  0  0  0  0  0  0  0  0  0  # atno 13560 bound_to 2015
  131.8782  270.7935  321.4722 LP  0  0  0  0  0  0  0  0  0  0  0  0  # atno 13561 bound_to 2015
  130.7331  265.8774  329.5725 LP  0  0  0  0  0  0  0  0  0  0  0  0  # atno 13562 bound_to 11761
  130.2194  265.4722  331.1763 LP  0  0  0  0  0  0  0  0  0  0  0  0  # atno 13563 bound_to 11761
  125.7185  269.1328  318.2991 LP  0  0  0  0  0  0  0  0  0  0  0  0  # atno 13564 bound_to 1932
  131.5016  269.5601  318.5633 LP  0  0  0  0  0  0  0  0  0  0  0  0  # atno 13565 bound_to 2032
  129.8108  265.5015  317.4271 LP  0  0  0  0  0  0  0  0  0  0  0  0  # atno 13566 bound_to 2037
  131.0753  266.4772  317.0869 LP  0  0  0  0  0  0  0  0  0  0  0  0  # atno 13567 bound_to 2037
  134.4333  265.2647  328.1840 LP  0  0  0  0  0  0  0  0  0  0  0  0  # atno 13568 bound_to 11734
  135.1039  264.1941  326.9991 LP  0  0  0  0  0  0  0  0  0  0  0  0  # atno 13569 bound_to 11734
  133.8112  262.2486  329.2208 LP  0  0  0  0  0  0  0  0  0  0  0  0  # atno 13570 bound_to 11758

> <Gold.Score>
     Fitness  S(hb_ext) S(vdw_ext)  S(hb_int)    S(int)      intcor
     31.94       8.20      17.43       0.00      -0.22      -0.76

> <Gold.Goldscore.Fitness>
31.9358

> <Gold.Goldscore.Internal.Vdw>
-0.5100

> <Gold.Goldscore.Internal.Torsion>
-0.4727

> <Gold.Goldscore.External.Vdw>
17.4280

> <Gold.Goldscore.Internal.HBond>
0.0000

> <Gold.Goldscore.External.HBond>
8.1965

> <Gold.Goldscore.Internal.Correction>
-0.7585

> <Gold.Goldscore.Hbonds>
donor molecule, donor type, donor heavy atom, donor atom, acceptor molecule, acceptor atom, score
      P1  H 11765 11777       L1     9  1.00
      P1  H  2015  2020       L1    11  1.00
      L1  H     8    22       P1 11761  0.10

> <Gold.Goldscore.Internal.Vdw.Weighted>
-0.5100

> <Gold.Goldscore.Internal.Torsion.Weighted>
-0.4727

> <Gold.Goldscore.External.Vdw.Weighted>
23.9635

> <Gold.Goldscore.Internal.HBond.Weighted>
0.0000

> <Gold.Goldscore.External.HBond.Weighted>
8.1965

> <Gold.Goldscore.Internal.Correction.Weighted>
-0.7585

> <Gold.Rescore>
     Score     S(PLP)   S(hbond)     S(cho)   S(metal)  DE(clash)   DE(tors)     intcor
     27.80     -21.82       2.00       0.00       0.00       0.00       0.01       ----

> <Gold.PLP.Fitness>
27.8027

> <Gold.PLP.PLP>
-21.8250

> <Gold.PLP.part.hbond>
-2.0000

> <Gold.PLP.part.metal>
0.0000

> <Gold.PLP.part.buried>
-4.1520

> <Gold.PLP.part.nonpolar>
-15.0813

> <Gold.PLP.part.repulsive>
0.1170

> <Gold.PLP.ligand.clash>
0.0000

> <Gold.PLP.ligand.torsion>
0.0112

> <Gold.PLP.Chemscore.Hbond>
2.0000

> <Gold.PLP.Chemscore.CHOScore>
0.0000

> <Gold.PLP.Chemscore.Metal>
0.0000

> <Gold.Chemscore.Hbonds>
donor molecule, donor type, donor heavy atom, donor atom, acceptor molecule, acceptor atom, score
      P1  H 11765 11777       L1     9  0.54
      P1  H  2015  2020       L1    11  1.00

> <Gold.PLP.Chemscore.Internal.Correction>
   9.000000E+99

