#       Name:                CT1002167954
#       Creating user name   hitesit
#       Creation time:       Sun Apr 16 02:24:47 2023


#       File generated by GOLD software.
#

@<TRIPOS>MOLECULE
CT1002167954|ligand_prepared|mol2|1|dock2
    29    30     1
SMALL
NO_CHARGES


@<TRIPOS>ATOM
      1 C1         127.1689 267.5367 325.2275 C.3            1 RES1               0.0000
      2 C2         125.7121 268.0355 325.3149 C.ar           1 RES1               0.0000
      3 C3         127.1473 266.3071 324.3242 C.2            1 RES1               0.0000
      4 C4         127.9858 268.6998 324.6756 C.2            1 RES1               0.0000
      5 C5         127.7741 267.1331 326.5922 C.3            1 RES1               0.0000
      6 C6         124.7705 267.3440 326.0711 C.ar           1 RES1               0.0000
      7 C7         125.2963 269.1850 324.6482 C.ar           1 RES1               0.0000
      8 N8         127.6486 266.4408 323.0630 N.am           1 RES1               0.0000
      9 O9         126.6618 265.2471 324.6994 O.2            1 RES1               0.0000
     10 N10        128.5579 268.5530 323.4392 N.am           1 RES1               0.0000
     11 O11        128.1252 269.7484 325.2931 O.2            1 RES1               0.0000
     12 C12        129.2523 266.7824 326.5279 C.3            1 RES1               0.0000
     13 C13        123.4613 267.7871 326.1601 C.ar           1 RES1               0.0000
     14 C14        123.9864 269.6262 324.7384 C.ar           1 RES1               0.0000
     15 C15        128.4008 267.4879 322.5947 C.2            1 RES1               0.0000
     16 C16        123.0685 268.9285 325.4943 C.ar           1 RES1               0.0000
     17 O17        128.9031 267.4525 321.4750 O.2            1 RES1               0.0000
     18 H18        127.6382 267.9620 327.2978 H              1 RES1               0.0000
     19 H19        127.2227 266.2680 326.9810 H              1 RES1               0.0000
     20 H20        125.0606 266.4423 326.6001 H              1 RES1               0.0000
     21 H21        126.0010 269.7492 324.0469 H              1 RES1               0.0000
     22 H22        127.4453 265.6931 322.4073 H              1 RES1               0.0000
     23 H23        129.1565 269.3075 323.1187 H              1 RES1               0.0000
     24 H24        129.6265 266.5067 327.5116 H              1 RES1               0.0000
     25 H25        129.4211 265.9450 325.8541 H              1 RES1               0.0000
     26 H26        129.8342 267.6289 326.1690 H              1 RES1               0.0000
     27 H27        122.7424 267.2337 326.7552 H              1 RES1               0.0000
     28 H28        123.6816 270.5247 324.2122 H              1 RES1               0.0000
     29 H29        122.0429 269.2756 325.5645 H              1 RES1               0.0000
@<TRIPOS>BOND
    1    1    2 1     
    2    1    3 1     
    3    1    4 1     
    4    1    5 1     
    5    2    6 ar    
    6    2    7 ar    
    7    3    8 1     
    8    3    9 2     
    9    4   10 1     
   10    4   11 2     
   11    5   12 1     
   12    5   18 1     
   13    5   19 1     
   14    6   13 ar    
   15    6   20 1     
   16    7   14 ar    
   17    7   21 1     
   18    8   15 1     
   19    8   22 1     
   20   10   15 1     
   21   10   23 1     
   22   12   24 1     
   23   12   25 1     
   24   12   26 1     
   25   13   16 ar    
   26   13   27 1     
   27   14   16 ar    
   28   14   28 1     
   29   15   17 2     
   30   16   29 1     
@<TRIPOS>SUBSTRUCTURE
      1 RES1           1
@<TRIPOS>SET
DONOR_HYDROGENS      STATIC     ATOMS    <user>   **** ""
2 22 23
ATOM$RED        STATIC     ATOMS    COLORGROUP SYSTEM
2 22 23
@<TRIPOS>COMMENT
> <Gold.Version>
2022.3.0

> <Gold.Id.Protein>
unknown|5uo4_clean|pdb

> <Gold.Protein.RotatedTorsions>
[  761  739  740  741 ] final -171.63 input   85.38 | X-H torsion
[  791  780  781  782 ] final -128.73 input   98.79 | X-H torsion
[ 1906 1895 1896 1897 ] final -133.52 input  105.28 | X-H torsion
[ 3221 3203 3202 3200 ] final -147.96 input   59.99 | X-H torsion
[ 12734 12725 12726 12727 ] final  132.64 input   72.11 | X-H torsion
[ 12769 12762 12763 12764 ] final  155.75 input   62.98 | X-H torsion
[ 12775 12768 12766 12763 ] final   91.93 input   59.99 | X-H torsion
[  817  803  804  805 ] final   75.95 input   48.10 | X-H torsion
[  823  809  807  804 ] final  167.74 input   60.00 | X-H torsion
[ 2020 2015 2014 2011 ] final   56.92 input   59.99 | X-H torsion
[ 1953 1932 1933 1934 ] final -126.74 input  111.26 | X-H torsion
[ 2042 2032 2033 2034 ] final -148.37 input  116.25 | X-H torsion
[ 2046 2037 2036 2033 ] final -134.15 input   60.01 | X-H torsion
[ 11769 11758 11759 11760 ] final  115.47 input   53.32 | X-H torsion
[ 13520  631  630  629 ] final -119.87 input    0.00 | X-H torsion
[ 13523  742  741  740 ] final   -4.47 input    0.00 | X-H torsion
[ 13526 1766 1765 1764 ] final  177.91 input    0.00 | X-H torsion
[ 13533 1898 1897 1896 ] final -173.24 input   -0.00 | X-H torsion
[ 13537 3313 3312 3311 ] final  126.35 input   -0.00 | X-H torsion
[ 13540 12683 12682 12681 ] final   61.93 input   -0.00 | X-H torsion
[ 13543 12728 12727 12726 ] final   67.41 input   -0.00 | X-H torsion
[ 13546 12765 12764 12763 ] final -148.16 input   -0.00 | X-H torsion
[ 13551 12793 12792 12791 ] final -172.53 input    0.00 | X-H torsion
[ 13553  703  702  701 ] final   94.69 input    0.00 | X-H torsion
[ 13555  783  782  781 ] final  145.58 input    0.00 | X-H torsion
[ 13562 11761 11760 11759 ] final  131.56 input   -0.00 | X-H torsion
[ 13568 11734 11733 11732 ] final  114.02 input   -0.00 | X-H torsion

> <Gold.Protein.ActiveResidues>
 LEU321  HIS322  LEU323  LYS324  SER325  THR326  GLU365  PHE366  ASP368  GLN369 
 TYR370  SER372  SER373  TYR408  HIS412  ARG415  ASN416  CYS673  ARG674  PRO678 
 TYR703  ARG704  LEU705  THR706  PRO707 

> <Gold.Protein.RotatedAtoms>
  124.7112  270.5914  332.3417 H   0  0  0  0  0  0  0  0  0  0  0  0  # atno 761  bound_to 739 
  122.1485  269.1978  330.5546 H   0  0  0  0  0  0  0  0  0  0  0  0  # atno 791  bound_to 780 
  118.0950  269.1845  329.4050 H   0  0  0  0  0  0  0  0  0  0  0  0  # atno 817  bound_to 803 
  117.1114  271.3144  326.9657 H   0  0  0  0  0  0  0  0  0  0  0  0  # atno 823  bound_to 809 
  125.8964  272.2918  319.9176 H   0  0  0  0  0  0  0  0  0  0  0  0  # atno 1906 bound_to 1895
  126.3961  268.8712  318.9026 H   0  0  0  0  0  0  0  0  0  0  0  0  # atno 1953 bound_to 1932
  131.8882  271.5440  321.7713 H   0  0  0  0  0  0  0  0  0  0  0  0  # atno 2020 bound_to 2015
  130.6985  269.3144  319.9885 H   0  0  0  0  0  0  0  0  0  0  0  0  # atno 2042 bound_to 2032
  129.2458  266.3904  317.4830 H   0  0  0  0  0  0  0  0  0  0  0  0  # atno 2046 bound_to 2037
  126.2539  265.7109  320.6714 H   0  0  0  0  0  0  0  0  0  0  0  0  # atno 3221 bound_to 3203
  133.7357  262.1886  329.4209 H   0  0  0  0  0  0  0  0  0  0  0  0  # atno 11769 bound_to 11758
  119.8277  263.1137  329.6483 H   0  0  0  0  0  0  0  0  0  0  0  0  # atno 12734 bound_to 12725
  118.8284  265.3043  326.3603 H   0  0  0  0  0  0  0  0  0  0  0  0  # atno 12769 bound_to 12762
  116.4574  264.7003  322.8762 H   0  0  0  0  0  0  0  0  0  0  0  0  # atno 12775 bound_to 12768
  124.7629  268.6272  332.2722 LP  0  0  0  0  0  0  0  0  0  0  0  0  # atno 13520 bound_to 631 
  125.1097  267.3138  331.1975 LP  0  0  0  0  0  0  0  0  0  0  0  0  # atno 13521 bound_to 631 
  123.2494  269.6639  332.5773 LP  0  0  0  0  0  0  0  0  0  0  0  0  # atno 13522 bound_to 739 
  122.0265  270.8799  328.5489 LP  0  0  0  0  0  0  0  0  0  0  0  0  # atno 13523 bound_to 742 
  120.6281  269.9403  328.9508 LP  0  0  0  0  0  0  0  0  0  0  0  0  # atno 13524 bound_to 742 
  121.5139  269.8080  332.0588 LP  0  0  0  0  0  0  0  0  0  0  0  0  # atno 13525 bound_to 780 
  123.3697  271.0190  319.8921 LP  0  0  0  0  0  0  0  0  0  0  0  0  # atno 13526 bound_to 1766
  123.3820  272.4979  320.7936 LP  0  0  0  0  0  0  0  0  0  0  0  0  # atno 13527 bound_to 1766
  125.2085  271.0915  318.8590 LP  0  0  0  0  0  0  0  0  0  0  0  0  # atno 13532 bound_to 1895
  128.7404  268.2479  318.7975 LP  0  0  0  0  0  0  0  0  0  0  0  0  # atno 13533 bound_to 1898
  128.6154  268.7668  320.4453 LP  0  0  0  0  0  0  0  0  0  0  0  0  # atno 13534 bound_to 1898
  127.4223  266.5925  319.9611 LP  0  0  0  0  0  0  0  0  0  0  0  0  # atno 13535 bound_to 3203
  127.7977  265.2007  320.7283 LP  0  0  0  0  0  0  0  0  0  0  0  0  # atno 13536 bound_to 3203
  122.0772  260.1217  323.6616 LP  0  0  0  0  0  0  0  0  0  0  0  0  # atno 13537 bound_to 3313
  123.4176  259.0301  323.7683 LP  0  0  0  0  0  0  0  0  0  0  0  0  # atno 13538 bound_to 3313
  118.5494  266.0159  330.5736 LP  0  0  0  0  0  0  0  0  0  0  0  0  # atno 13540 bound_to 12683
  117.9001  265.8920  328.9726 LP  0  0  0  0  0  0  0  0  0  0  0  0  # atno 13541 bound_to 12683
  118.2994  263.6314  328.9725 LP  0  0  0  0  0  0  0  0  0  0  0  0  # atno 13542 bound_to 12725
  118.0200  262.6873  326.8157 LP  0  0  0  0  0  0  0  0  0  0  0  0  # atno 13543 bound_to 12728
  119.2789  262.2878  325.6951 LP  0  0  0  0  0  0  0  0  0  0  0  0  # atno 13544 bound_to 12728
  120.4292  264.8199  325.8593 LP  0  0  0  0  0  0  0  0  0  0  0  0  # atno 13545 bound_to 12762
  121.5744  266.0810  322.8157 LP  0  0  0  0  0  0  0  0  0  0  0  0  # atno 13546 bound_to 12765
  121.3402  265.8257  324.5128 LP  0  0  0  0  0  0  0  0  0  0  0  0  # atno 13547 bound_to 12765
  117.8971  264.8484  322.1315 LP  0  0  0  0  0  0  0  0  0  0  0  0  # atno 13548 bound_to 12768
  116.8833  266.1258  322.2161 LP  0  0  0  0  0  0  0  0  0  0  0  0  # atno 13549 bound_to 12768
  119.4851  260.7217  323.9866 LP  0  0  0  0  0  0  0  0  0  0  0  0  # atno 13551 bound_to 12793
  120.5063  262.0715  323.6190 LP  0  0  0  0  0  0  0  0  0  0  0  0  # atno 13552 bound_to 12793
  123.7622  272.9839  332.3252 LP  0  0  0  0  0  0  0  0  0  0  0  0  # atno 13553 bound_to 703 
  122.2253  272.3901  332.8594 LP  0  0  0  0  0  0  0  0  0  0  0  0  # atno 13554 bound_to 703 
  118.7716  271.6802  331.6045 LP  0  0  0  0  0  0  0  0  0  0  0  0  # atno 13555 bound_to 783 
  119.6102  270.6199  332.6872 LP  0  0  0  0  0  0  0  0  0  0  0  0  # atno 13556 bound_to 783 
  118.4667  269.5908  331.0649 LP  0  0  0  0  0  0  0  0  0  0  0  0  # atno 13557 bound_to 803 
  116.6854  269.9837  327.7992 LP  0  0  0  0  0  0  0  0  0  0  0  0  # atno 13558 bound_to 809 
  118.2239  270.5283  327.8554 LP  0  0  0  0  0  0  0  0  0  0  0  0  # atno 13559 bound_to 809 
  131.0520  270.1505  321.6885 LP  0  0  0  0  0  0  0  0  0  0  0  0  # atno 13560 bound_to 2015
  130.4633  271.4098  322.5455 LP  0  0  0  0  0  0  0  0  0  0  0  0  # atno 13561 bound_to 2015
  130.0762  265.2749  331.0302 LP  0  0  0  0  0  0  0  0  0  0  0  0  # atno 13562 bound_to 11761
  130.8763  266.0746  329.7186 LP  0  0  0  0  0  0  0  0  0  0  0  0  # atno 13563 bound_to 11761
  126.4995  270.2967  317.9018 LP  0  0  0  0  0  0  0  0  0  0  0  0  # atno 13564 bound_to 1932
  131.0621  269.3628  318.2785 LP  0  0  0  0  0  0  0  0  0  0  0  0  # atno 13565 bound_to 2032
  130.6138  265.5395  317.2543 LP  0  0  0  0  0  0  0  0  0  0  0  0  # atno 13566 bound_to 2037
  130.6310  267.1677  317.1298 LP  0  0  0  0  0  0  0  0  0  0  0  0  # atno 13567 bound_to 2037
  134.1632  264.3253  327.1222 LP  0  0  0  0  0  0  0  0  0  0  0  0  # atno 13568 bound_to 11734
  135.3740  265.1334  328.0609 LP  0  0  0  0  0  0  0  0  0  0  0  0  # atno 13569 bound_to 11734
  134.4990  263.7267  329.7453 LP  0  0  0  0  0  0  0  0  0  0  0  0  # atno 13570 bound_to 11758

> <Gold.Score>
     Fitness  S(hb_ext) S(vdw_ext)  S(hb_int)    S(int)      intcor
     36.02       6.66      22.36       0.00      -1.38      -0.77

> <Gold.Goldscore.Fitness>
36.0218

> <Gold.Goldscore.Internal.Vdw>
-1.7221

> <Gold.Goldscore.Internal.Torsion>
-0.4240

> <Gold.Goldscore.External.Vdw>
22.3612

> <Gold.Goldscore.Internal.HBond>
0.0000

> <Gold.Goldscore.External.HBond>
6.6560

> <Gold.Goldscore.Internal.Correction>
-0.7653

> <Gold.Goldscore.Hbonds>
donor molecule, donor type, donor heavy atom, donor atom, acceptor molecule, acceptor atom, score
      P1  H 11768 11781       L1     9  1.00
      L1  H     8    22       P1  3203  0.02
      L1  H    10    23       P1  2015  0.31

> <Gold.Goldscore.Internal.Vdw.Weighted>
-1.7221

> <Gold.Goldscore.Internal.Torsion.Weighted>
-0.4240

> <Gold.Goldscore.External.Vdw.Weighted>
30.7466

> <Gold.Goldscore.Internal.HBond.Weighted>
0.0000

> <Gold.Goldscore.External.HBond.Weighted>
6.6560

> <Gold.Goldscore.Internal.Correction.Weighted>
-0.7653

> <Gold.Rescore>
     Score     S(PLP)   S(hbond)     S(cho)   S(metal)  DE(clash)   DE(tors)     intcor
     33.72     -30.15       1.68       0.00       0.00       1.38       0.05       ----

> <Gold.PLP.Fitness>
33.7166

> <Gold.PLP.PLP>
-30.1547

> <Gold.PLP.part.hbond>
-2.9223

> <Gold.PLP.part.metal>
0.0000

> <Gold.PLP.part.buried>
-4.2587

> <Gold.PLP.part.nonpolar>
-23.6463

> <Gold.PLP.part.repulsive>
0.6576

> <Gold.PLP.ligand.clash>
1.3805

> <Gold.PLP.ligand.torsion>
0.0488

> <Gold.PLP.Chemscore.Hbond>
1.6800

> <Gold.PLP.Chemscore.CHOScore>
0.0000

> <Gold.PLP.Chemscore.Metal>
0.0000

> <Gold.Chemscore.Hbonds>
donor molecule, donor type, donor heavy atom, donor atom, acceptor molecule, acceptor atom, score
      P1  H 11768 11781       L1     9  1.00

> <Gold.PLP.Chemscore.Internal.Correction>
   9.000000E+99

