#       Name:                GA Fitting Points
#       Creating user name   hitesit
#       Creation time:       Sun Apr 16 02:23:00 2023


#       Fitting Points Used by GA Software.
#

@<TRIPOS>MOLECULE
GA Fitting Points
 38573    0    0
SMALL
NO_CHARGES


@<TRIPOS>ATOM
      1 ****       -27.0000 -17.5000 -13.2500 Du        
      2 ****       -27.0000 -17.5000 -13.0000 Du        
      3 ****       -27.0000 -17.2500 -13.0000 Du        
      4 ****       -26.7500 -17.5000 -13.0000 Du        
      5 ****       -26.5000 -18.0000 -13.2500 Du        
      6 ****       -26.5000 -18.0000 -13.0000 Du        
      7 ****       -26.5000 -17.7500 -13.2500 Du        
      8 ****       -26.5000 -17.7500 -13.0000 Du        
      9 ****       -24.0000  -8.0000 -18.5000 Du        
     10 ****       -24.0000  -7.7500 -18.5000 Du        
     11 ****       -23.7500  -8.2500 -18.5000 Du        
     12 ****       -23.7500  -8.0000 -18.7500 Du        
     13 ****       -23.7500  -8.0000 -18.5000 Du        
     14 ****       -23.7500  -8.0000 -18.2500 Du        
     15 ****       -23.7500  -7.7500 -18.7500 Du        
     16 ****       -23.5000  -8.2500 -18.7500 Du        
     17 ****       -23.5000  -8.0000 -19.0000 Du        
     18 ****       -23.5000  -8.0000 -18.7500 Du        
     19 ****       -23.5000  -7.7500 -19.0000 Du        
     20 ****       -23.5000  -7.7500 -18.7500 Du        
     21 ****       -23.2500  -8.2500 -19.0000 Du        
     22 ****       -23.2500  -8.2500 -18.7500 Du        
     23 ****       -23.2500  -8.0000 -19.2500 Du        
     24 ****       -23.2500  -8.0000 -19.0000 Du        
     25 ****       -23.2500  -8.0000 -18.7500 Du        
     26 ****       -23.0000  -8.7500 -19.0000 Du        
     27 ****       -23.0000  -8.7500 -18.7500 Du        
     28 ****       -23.0000  -8.7500 -18.5000 Du        
     29 ****       -23.0000  -8.5000 -19.2500 Du        
     30 ****       -23.0000  -8.5000 -19.0000 Du        
     31 ****       -23.0000  -8.5000 -18.7500 Du        
     32 ****       -23.0000  -8.2500 -19.2500 Du        
     33 ****       -23.0000  -8.2500 -19.0000 Du        
     34 ****       -23.0000  -8.2500 -18.7500 Du        
     35 ****       -23.0000  -8.2500 -18.0000 Du        
     36 ****       -23.0000  -8.0000 -19.0000 Du        
     37 ****       -22.7500 -11.7500 -13.2500 Du        
     38 ****       -22.7500 -11.5000 -13.2500 Du        
     39 ****       -22.7500 -11.2500 -13.0000 Du        
     40 ****       -22.7500  -9.0000 -19.2500 Du        
     41 ****       -22.7500  -9.0000 -19.0000 Du        
     42 ****       -22.7500  -8.7500 -19.5000 Du        
     43 ****       -22.7500  -8.7500 -19.2500 Du        
     44 ****       -22.7500  -8.7500 -19.0000 Du        
     45 ****       -22.7500  -8.7500 -18.7500 Du        
     46 ****       -22.7500  -8.7500 -18.5000 Du        
     47 ****       -22.7500  -8.7500 -18.2500 Du        
     48 ****       -22.7500  -8.5000 -19.5000 Du        
     49 ****       -22.7500  -8.5000 -19.2500 Du        
     50 ****       -22.7500  -8.5000 -19.0000 Du        
     51 ****       -22.7500  -8.5000 -18.7500 Du        
     52 ****       -22.7500  -8.2500 -19.5000 Du        
     53 ****       -22.7500  -8.2500 -19.2500 Du        
     54 ****       -22.7500  -8.2500 -19.0000 Du        
     55 ****       -22.7500  -8.2500 -18.7500 Du        
     56 ****       -22.5000 -12.0000 -13.7500 Du        
     57 ****       -22.5000 -12.0000 -13.5000 Du        
     58 ****       -22.5000 -12.0000 -13.2500 Du        
     59 ****       -22.5000 -11.7500 -13.7500 Du        
     60 ****       -22.5000 -11.7500 -13.5000 Du        
     61 ****       -22.5000 -11.7500 -13.2500 Du        
     62 ****       -22.5000 -11.7500 -13.0000 Du        
     63 ****       -22.5000 -11.5000 -13.5000 Du        
     64 ****       -22.5000 -11.5000 -13.2500 Du        
     65 ****       -22.5000 -11.5000 -13.0000 Du        
     66 ****       -22.5000 -11.2500 -13.5000 Du        
     67 ****       -22.5000 -11.2500 -13.2500 Du        
     68 ****       -22.5000 -11.2500 -13.0000 Du        
     69 ****       -22.5000  -9.0000 -19.5000 Du        
     70 ****       -22.5000  -9.0000 -19.2500 Du        
     71 ****       -22.5000  -9.0000 -19.0000 Du        
     72 ****       -22.5000  -9.0000 -18.7500 Du        
     73 ****       -22.5000  -8.7500 -19.7500 Du        
     74 ****       -22.5000  -8.7500 -19.5000 Du        
     75 ****       -22.5000  -8.7500 -19.2500 Du        
     76 ****       -22.5000  -8.7500 -19.0000 Du        
     77 ****       -22.5000  -8.7500 -18.7500 Du        
     78 ****       -22.5000  -8.7500 -18.5000 Du        
     79 ****       -22.5000  -8.7500 -18.2500 Du        
     80 ****       -22.2500 -12.2500 -13.7500 Du        
     81 ****       -22.2500 -12.2500 -13.5000 Du        
     82 ****       -22.2500 -12.0000 -13.7500 Du        
     83 ****       -22.2500 -12.0000 -13.5000 Du        
     84 ****       -22.2500 -12.0000 -13.2500 Du        
     85 ****       -22.2500 -12.0000 -13.0000 Du        
     86 ****       -22.2500 -11.7500 -14.0000 Du        
     87 ****       -22.2500 -11.7500 -13.7500 Du        
     88 ****       -22.2500 -11.7500 -13.5000 Du        
     89 ****       -22.2500 -11.7500 -13.2500 Du        
     90 ****       -22.2500 -11.7500 -13.0000 Du        
     91 ****       -22.2500 -11.5000 -13.7500 Du        
     92 ****       -22.2500 -11.5000 -13.5000 Du        
     93 ****       -22.2500 -11.5000 -13.2500 Du        
     94 ****       -22.2500 -11.5000 -13.0000 Du        
     95 ****       -22.2500 -11.2500 -13.7500 Du        
     96 ****       -22.2500 -11.2500 -13.5000 Du        
     97 ****       -22.2500 -11.2500 -13.2500 Du        
     98 ****       -22.2500 -11.2500 -13.0000 Du        
     99 ****       -22.2500 -11.0000 -13.7500 Du        
    100 ****       -22.2500  -9.2500 -19.7500 Du        
    101 ****       -22.2500  -9.2500 -19.5000 Du        
    102 ****       -22.2500  -9.2500 -19.2500 Du        
    103 ****       -22.2500  -9.2500 -19.0000 Du        
    104 ****       -22.2500  -9.0000 -20.0000 Du        
    105 ****       -22.2500  -9.0000 -19.7500 Du        
    106 ****       -22.2500  -9.0000 -19.5000 Du        
    107 ****       -22.2500  -9.0000 -19.2500 Du        
    108 ****       -22.2500  -9.0000 -19.0000 Du        
    109 ****       -22.2500  -9.0000 -18.7500 Du        
    110 ****       -22.2500  -8.7500 -19.7500 Du        
    111 ****       -22.2500  -8.7500 -19.5000 Du        
    112 ****       -22.2500  -8.7500 -19.2500 Du        
    113 ****       -22.2500  -4.0000 -15.0000 Du        
    114 ****       -22.2500  -4.0000 -14.7500 Du        
    115 ****       -22.2500  -3.7500 -15.5000 Du        
    116 ****       -22.2500  -3.7500 -15.2500 Du        
    117 ****       -22.2500  -3.7500 -15.0000 Du        
    118 ****       -22.2500  -3.7500 -14.7500 Du        
    119 ****       -22.2500  -3.5000 -15.5000 Du        
    120 ****       -22.2500  -3.5000 -15.2500 Du        
    121 ****       -22.2500  -3.5000 -15.0000 Du        
    122 ****       -22.2500  -3.5000 -14.7500 Du        
    123 ****       -22.2500  -3.5000 -14.5000 Du        
    124 ****       -22.2500  -3.2500 -15.7500 Du        
    125 ****       -22.2500  -3.2500 -15.5000 Du        
    126 ****       -22.2500  -3.2500 -15.2500 Du        
    127 ****       -22.2500  -3.2500 -15.0000 Du        
    128 ****       -22.2500  -3.2500 -14.7500 Du        
    129 ****       -22.2500  -3.2500 -14.5000 Du        
    130 ****       -22.2500  -3.2500 -14.2500 Du        
    131 ****       -22.2500  -3.0000 -16.0000 Du        
    132 ****       -22.2500  -3.0000 -15.7500 Du        
    133 ****       -22.2500  -3.0000 -15.5000 Du        
    134 ****       -22.2500  -3.0000 -15.2500 Du        
    135 ****       -22.2500  -2.7500 -16.0000 Du        
    136 ****       -22.2500  -2.7500 -15.7500 Du        
    137 ****       -22.2500  -2.7500 -15.5000 Du        
    138 ****       -22.2500  -2.7500 -15.2500 Du        
    139 ****       -22.2500  -2.7500 -15.0000 Du        
    140 ****       -22.2500  -2.5000 -16.2500 Du        
    141 ****       -22.2500  -2.5000 -16.0000 Du        
    142 ****       -22.2500  -2.5000 -15.7500 Du        
    143 ****       -22.2500  -2.5000 -15.5000 Du        
    144 ****       -22.2500  -2.5000 -15.2500 Du        
    145 ****       -22.2500  -2.5000 -15.0000 Du        
    146 ****       -22.2500  -2.2500 -16.2500 Du        
    147 ****       -22.2500  -2.2500 -16.0000 Du        
    148 ****       -22.2500  -2.2500 -15.7500 Du        
    149 ****       -22.2500  -2.2500 -15.5000 Du        
    150 ****       -22.2500  -2.2500 -15.2500 Du        
    151 ****       -22.2500  -2.2500 -15.0000 Du        
    152 ****       -22.2500  -2.0000 -16.5000 Du        
    153 ****       -22.2500  -2.0000 -16.2500 Du        
    154 ****       -22.2500  -2.0000 -16.0000 Du        
    155 ****       -22.2500  -2.0000 -15.7500 Du        
    156 ****       -22.2500  -2.0000 -15.5000 Du        
    157 ****       -22.2500  -2.0000 -15.2500 Du        
    158 ****       -22.2500  -2.0000 -15.0000 Du        
    159 ****       -22.2500  -2.0000 -14.7500 Du        
    160 ****       -22.2500  -1.7500 -15.7500 Du        
    161 ****       -22.2500  -1.7500 -15.5000 Du        
    162 ****       -22.2500  -1.7500 -15.2500 Du        
    163 ****       -22.0000 -17.0000  -0.2500 Du        
    164 ****       -22.0000 -17.0000   0.0000 Du        
    165 ****       -22.0000 -12.5000 -13.7500 Du        
    166 ****       -22.0000 -12.2500 -14.0000 Du        
    167 ****       -22.0000 -12.2500 -13.7500 Du        
    168 ****       -22.0000 -12.2500 -13.5000 Du        
    169 ****       -22.0000 -12.0000 -14.0000 Du        
    170 ****       -22.0000 -12.0000 -13.7500 Du        
    171 ****       -22.0000 -12.0000 -13.5000 Du        
    172 ****       -22.0000 -12.0000 -13.2500 Du        
    173 ****       -22.0000 -12.0000 -13.0000 Du        
    174 ****       -22.0000 -11.7500 -14.0000 Du        
    175 ****       -22.0000 -11.7500 -13.7500 Du        
    176 ****       -22.0000 -11.7500 -13.5000 Du        
    177 ****       -22.0000 -11.7500 -13.2500 Du        
    178 ****       -22.0000 -11.7500 -13.0000 Du        
    179 ****       -22.0000 -11.5000 -14.0000 Du        
    180 ****       -22.0000 -11.5000 -13.7500 Du        
    181 ****       -22.0000 -11.5000 -13.5000 Du        
    182 ****       -22.0000 -11.5000 -13.2500 Du        
    183 ****       -22.0000 -11.5000 -13.0000 Du        
    184 ****       -22.0000 -11.2500 -14.0000 Du        
    185 ****       -22.0000 -11.2500 -13.7500 Du        
    186 ****       -22.0000 -11.2500 -13.5000 Du        
    187 ****       -22.0000 -11.2500 -13.2500 Du        
    188 ****       -22.0000 -11.2500 -13.0000 Du        
    189 ****       -22.0000 -11.0000 -14.0000 Du        
    190 ****       -22.0000 -11.0000 -13.7500 Du        
    191 ****       -22.0000 -11.0000 -13.5000 Du        
    192 ****       -22.0000 -11.0000 -13.2500 Du        
    193 ****       -22.0000 -11.0000 -13.0000 Du        
    194 ****       -22.0000  -9.5000 -19.7500 Du        
    195 ****       -22.0000  -9.5000 -19.5000 Du        
    196 ****       -22.0000  -9.2500 -20.0000 Du        
    197 ****       -22.0000  -9.2500 -19.7500 Du        
    198 ****       -22.0000  -9.2500 -19.5000 Du        
    199 ****       -22.0000  -9.2500 -19.2500 Du        
    200 ****       -22.0000  -9.2500 -19.0000 Du        
    201 ****       -22.0000  -9.0000 -28.0000 Du        
    202 ****       -22.0000  -9.0000 -20.0000 Du        
    203 ****       -22.0000  -9.0000 -19.7500 Du        
    204 ****       -22.0000  -9.0000 -19.5000 Du        
    205 ****       -22.0000  -4.0000 -15.2500 Du        
    206 ****       -22.0000  -4.0000 -15.0000 Du        
    207 ****       -22.0000  -4.0000 -14.7500 Du        
    208 ****       -22.0000  -4.0000 -14.5000 Du        
    209 ****       -22.0000  -3.7500 -15.2500 Du        
    210 ****       -22.0000  -3.7500 -15.0000 Du        
    211 ****       -22.0000  -3.7500 -14.7500 Du        
    212 ****       -22.0000  -3.7500 -14.5000 Du        
    213 ****       -22.0000  -3.7500 -14.2500 Du        
    214 ****       -22.0000  -3.7500 -14.0000 Du        
    215 ****       -22.0000  -3.5000 -15.5000 Du        
    216 ****       -22.0000  -3.5000 -15.2500 Du        
    217 ****       -22.0000  -3.5000 -15.0000 Du        
    218 ****       -22.0000  -3.5000 -14.7500 Du        
    219 ****       -22.0000  -3.5000 -14.5000 Du        
    220 ****       -22.0000  -3.5000 -14.2500 Du        
    221 ****       -22.0000  -3.5000 -14.0000 Du        
    222 ****       -22.0000  -3.5000 -13.7500 Du        
    223 ****       -22.0000  -3.2500 -15.7500 Du        
    224 ****       -22.0000  -3.2500 -15.5000 Du        
    225 ****       -22.0000  -3.2500 -15.2500 Du        
    226 ****       -22.0000  -3.2500 -15.0000 Du        
    227 ****       -22.0000  -3.2500 -14.7500 Du        
    228 ****       -22.0000  -3.2500 -14.5000 Du        
    229 ****       -22.0000  -3.2500 -14.2500 Du        
    230 ****       -22.0000  -3.2500 -14.0000 Du        
    231 ****       -22.0000  -3.2500 -13.7500 Du        
    232 ****       -22.0000  -3.0000 -16.0000 Du        
    233 ****       -22.0000  -3.0000 -15.7500 Du        
    234 ****       -22.0000  -3.0000 -15.5000 Du        
    235 ****       -22.0000  -3.0000 -15.2500 Du        
    236 ****       -22.0000  -3.0000 -15.0000 Du        
    237 ****       -22.0000  -3.0000 -14.7500 Du        
    238 ****       -22.0000  -3.0000 -14.5000 Du        
    239 ****       -22.0000  -3.0000 -14.2500 Du        
    240 ****       -22.0000  -3.0000 -14.0000 Du        
    241 ****       -22.0000  -3.0000 -13.7500 Du        
    242 ****       -22.0000  -2.7500 -16.2500 Du        
    243 ****       -22.0000  -2.7500 -16.0000 Du        
    244 ****       -22.0000  -2.7500 -15.7500 Du        
    245 ****       -22.0000  -2.7500 -15.5000 Du        
    246 ****       -22.0000  -2.7500 -15.2500 Du        
    247 ****       -22.0000  -2.7500 -15.0000 Du        
    248 ****       -22.0000  -2.7500 -14.7500 Du        
    249 ****       -22.0000  -2.7500 -14.5000 Du        
    250 ****       -22.0000  -2.7500 -14.2500 Du        
    251 ****       -22.0000  -2.7500 -14.0000 Du        
    252 ****       -22.0000  -2.7500 -13.7500 Du        
    253 ****       -22.0000  -2.5000 -16.2500 Du        
    254 ****       -22.0000  -2.5000 -16.0000 Du        
    255 ****       -22.0000  -2.5000 -15.7500 Du        
    256 ****       -22.0000  -2.5000 -15.5000 Du        
    257 ****       -22.0000  -2.5000 -15.2500 Du        
    258 ****       -22.0000  -2.5000 -15.0000 Du        
    259 ****       -22.0000  -2.5000 -14.7500 Du        
    260 ****       -22.0000  -2.5000 -14.5000 Du        
    261 ****       -22.0000  -2.5000 -14.2500 Du        
    262 ****       -22.0000  -2.5000 -14.0000 Du        
    263 ****       -22.0000  -2.2500 -16.5000 Du        
    264 ****       -22.0000  -2.2500 -16.2500 Du        
    265 ****       -22.0000  -2.2500 -16.0000 Du        
    266 ****       -22.0000  -2.2500 -15.7500 Du        
    267 ****       -22.0000  -2.2500 -15.5000 Du        
    268 ****       -22.0000  -2.2500 -15.2500 Du        
    269 ****       -22.0000  -2.2500 -15.0000 Du        
    270 ****       -22.0000  -2.2500 -14.7500 Du        
    271 ****       -22.0000  -2.2500 -14.5000 Du        
    272 ****       -22.0000  -2.2500 -14.2500 Du        
    273 ****       -22.0000  -2.2500 -14.0000 Du        
    274 ****       -22.0000  -2.0000 -16.5000 Du        
    275 ****       -22.0000  -2.0000 -16.2500 Du        
    276 ****       -22.0000  -2.0000 -16.0000 Du        
    277 ****       -22.0000  -2.0000 -15.7500 Du        
    278 ****       -22.0000  -2.0000 -15.5000 Du        
    279 ****       -22.0000  -2.0000 -15.2500 Du        
    280 ****       -22.0000  -2.0000 -15.0000 Du        
    281 ****       -22.0000  -2.0000 -14.7500 Du        
    282 ****       -22.0000  -2.0000 -14.5000 Du        
    283 ****       -22.0000  -2.0000 -14.2500 Du        
    284 ****       -22.0000  -1.7500 -16.5000 Du        
    285 ****       -22.0000  -1.7500 -16.2500 Du        
    286 ****       -22.0000  -1.7500 -16.0000 Du        
    287 ****       -22.0000  -1.7500 -15.7500 Du        
    288 ****       -22.0000  -1.7500 -15.5000 Du        
    289 ****       -22.0000  -1.7500 -15.2500 Du        
    290 ****       -22.0000  -1.7500 -15.0000 Du        
    291 ****       -22.0000  -1.7500 -14.7500 Du        
    292 ****       -21.7500 -17.2500  -0.7500 Du        
    293 ****       -21.7500 -17.2500  -0.5000 Du        
    294 ****       -21.7500 -17.2500  -0.2500 Du        
    295 ****       -21.7500 -17.2500   0.0000 Du        
    296 ****       -21.7500 -17.0000  -1.0000 Du        
    297 ****       -21.7500 -17.0000  -0.7500 Du        
    298 ****       -21.7500 -17.0000  -0.5000 Du        
    299 ****       -21.7500 -17.0000  -0.2500 Du        
    300 ****       -21.7500 -17.0000   0.0000 Du        
    301 ****       -21.7500 -16.7500  -1.2500 Du        
    302 ****       -21.7500 -12.5000 -14.0000 Du        
    303 ****       -21.7500 -12.5000 -13.7500 Du        
    304 ****       -21.7500 -12.2500 -14.2500 Du        
    305 ****       -21.7500 -12.2500 -14.0000 Du        
    306 ****       -21.7500 -12.2500 -13.7500 Du        
    307 ****       -21.7500 -12.2500 -13.5000 Du        
    308 ****       -21.7500 -12.2500 -13.2500 Du        
    309 ****       -21.7500 -12.0000 -14.2500 Du        
    310 ****       -21.7500 -12.0000 -14.0000 Du        
    311 ****       -21.7500 -12.0000 -13.7500 Du        
    312 ****       -21.7500 -12.0000 -13.5000 Du        
    313 ****       -21.7500 -12.0000 -13.2500 Du        
    314 ****       -21.7500 -12.0000 -13.0000 Du        
    315 ****       -21.7500 -11.7500 -14.2500 Du        
    316 ****       -21.7500 -11.7500 -14.0000 Du        
    317 ****       -21.7500 -11.7500 -13.7500 Du        
    318 ****       -21.7500 -11.7500 -13.5000 Du        
    319 ****       -21.7500 -11.7500 -13.2500 Du        
    320 ****       -21.7500 -11.7500 -13.0000 Du        
    321 ****       -21.7500 -11.5000 -14.2500 Du        
    322 ****       -21.7500 -11.5000 -14.0000 Du        
    323 ****       -21.7500 -11.5000 -13.7500 Du        
    324 ****       -21.7500 -11.5000 -13.5000 Du        
    325 ****       -21.7500 -11.5000 -13.2500 Du        
    326 ****       -21.7500 -11.5000 -13.0000 Du        
    327 ****       -21.7500 -11.2500 -14.2500 Du        
    328 ****       -21.7500 -11.2500 -14.0000 Du        
    329 ****       -21.7500 -11.2500 -13.7500 Du        
    330 ****       -21.7500 -11.2500 -13.5000 Du        
    331 ****       -21.7500 -11.2500 -13.2500 Du        
    332 ****       -21.7500 -11.2500 -13.0000 Du        
    333 ****       -21.7500 -11.0000 -14.2500 Du        
    334 ****       -21.7500 -11.0000 -14.0000 Du        
    335 ****       -21.7500 -11.0000 -13.7500 Du        
    336 ****       -21.7500 -11.0000 -13.5000 Du        
    337 ****       -21.7500 -11.0000 -13.2500 Du        
    338 ****       -21.7500  -9.5000 -20.0000 Du        
    339 ****       -21.7500  -9.5000 -19.7500 Du        
    340 ****       -21.7500  -9.5000 -19.5000 Du        
    341 ****       -21.7500  -9.2500 -20.2500 Du        
    342 ****       -21.7500  -9.2500 -20.0000 Du        
    343 ****       -21.7500  -9.2500 -19.7500 Du        
    344 ****       -21.7500  -9.0000 -28.0000 Du        
    345 ****       -21.7500  -9.0000 -20.2500 Du        
    346 ****       -21.7500  -4.0000 -15.2500 Du        
    347 ****       -21.7500  -4.0000 -15.0000 Du        
    348 ****       -21.7500  -4.0000 -14.7500 Du        
    349 ****       -21.7500  -4.0000 -14.5000 Du        
    350 ****       -21.7500  -4.0000 -14.2500 Du        
    351 ****       -21.7500  -3.7500 -15.2500 Du        
    352 ****       -21.7500  -3.7500 -15.0000 Du        
    353 ****       -21.7500  -3.7500 -14.7500 Du        
    354 ****       -21.7500  -3.7500 -14.5000 Du        
    355 ****       -21.7500  -3.7500 -14.2500 Du        
    356 ****       -21.7500  -3.7500 -14.0000 Du        
    357 ****       -21.7500  -3.5000 -15.5000 Du        
    358 ****       -21.7500  -3.5000 -15.2500 Du        
    359 ****       -21.7500  -3.5000 -15.0000 Du        
    360 ****       -21.7500  -3.5000 -14.7500 Du        
    361 ****       -21.7500  -3.5000 -14.5000 Du        
    362 ****       -21.7500  -3.5000 -14.2500 Du        
    363 ****       -21.7500  -3.5000 -14.0000 Du        
    364 ****       -21.7500  -3.5000 -13.7500 Du        
    365 ****       -21.7500  -3.2500 -15.5000 Du        
    366 ****       -21.7500  -3.2500 -15.2500 Du        
    367 ****       -21.7500  -3.2500 -15.0000 Du        
    368 ****       -21.7500  -3.2500 -14.7500 Du        
    369 ****       -21.7500  -3.2500 -14.5000 Du        
    370 ****       -21.7500  -3.2500 -14.2500 Du        
    371 ****       -21.7500  -3.2500 -14.0000 Du        
    372 ****       -21.7500  -3.2500 -13.7500 Du        
    373 ****       -21.7500  -3.2500 -13.5000 Du        
    374 ****       -21.7500  -3.0000 -15.7500 Du        
    375 ****       -21.7500  -3.0000 -15.5000 Du        
    376 ****       -21.7500  -3.0000 -15.2500 Du        
    377 ****       -21.7500  -3.0000 -15.0000 Du        
    378 ****       -21.7500  -3.0000 -14.7500 Du        
    379 ****       -21.7500  -3.0000 -14.5000 Du        
    380 ****       -21.7500  -3.0000 -14.2500 Du        
    381 ****       -21.7500  -3.0000 -14.0000 Du        
    382 ****       -21.7500  -3.0000 -13.7500 Du        
    383 ****       -21.7500  -3.0000 -13.5000 Du        
    384 ****       -21.7500  -3.0000 -13.2500 Du        
    385 ****       -21.7500  -2.7500 -16.0000 Du        
    386 ****       -21.7500  -2.7500 -15.7500 Du        
    387 ****       -21.7500  -2.7500 -15.5000 Du        
    388 ****       -21.7500  -2.7500 -15.2500 Du        
    389 ****       -21.7500  -2.7500 -15.0000 Du        
    390 ****       -21.7500  -2.7500 -14.7500 Du        
    391 ****       -21.7500  -2.7500 -14.5000 Du        
    392 ****       -21.7500  -2.7500 -14.2500 Du        
    393 ****       -21.7500  -2.7500 -14.0000 Du        
    394 ****       -21.7500  -2.7500 -13.7500 Du        
    395 ****       -21.7500  -2.7500 -13.5000 Du        
    396 ****       -21.7500  -2.5000 -16.2500 Du        
    397 ****       -21.7500  -2.5000 -16.0000 Du        
    398 ****       -21.7500  -2.5000 -15.7500 Du        
    399 ****       -21.7500  -2.5000 -15.5000 Du        
    400 ****       -21.7500  -2.5000 -15.2500 Du        
    401 ****       -21.7500  -2.5000 -15.0000 Du        
    402 ****       -21.7500  -2.5000 -14.7500 Du        
    403 ****       -21.7500  -2.5000 -14.5000 Du        
    404 ****       -21.7500  -2.5000 -14.2500 Du        
    405 ****       -21.7500  -2.5000 -14.0000 Du        
    406 ****       -21.7500  -2.5000 -13.7500 Du        
    407 ****       -21.7500  -2.2500 -16.2500 Du        
    408 ****       -21.7500  -2.2500 -16.0000 Du        
    409 ****       -21.7500  -2.2500 -15.7500 Du        
    410 ****       -21.7500  -2.2500 -15.5000 Du        
    411 ****       -21.7500  -2.2500 -15.2500 Du        
    412 ****       -21.7500  -2.2500 -15.0000 Du        
    413 ****       -21.7500  -2.2500 -14.7500 Du        
    414 ****       -21.7500  -2.2500 -14.5000 Du        
    415 ****       -21.7500  -2.2500 -14.2500 Du        
    416 ****       -21.7500  -2.0000 -16.5000 Du        
    417 ****       -21.7500  -2.0000 -16.2500 Du        
    418 ****       -21.7500  -2.0000 -16.0000 Du        
    419 ****       -21.7500  -2.0000 -15.7500 Du        
    420 ****       -21.7500  -2.0000 -15.5000 Du        
    421 ****       -21.7500  -2.0000 -15.2500 Du        
    422 ****       -21.7500  -2.0000 -15.0000 Du        
    423 ****       -21.7500  -2.0000 -14.7500 Du        
    424 ****       -21.7500  -1.7500 -16.5000 Du        
    425 ****       -21.7500  -1.7500 -16.2500 Du        
    426 ****       -21.7500  -1.7500 -16.0000 Du        
    427 ****       -21.7500  -1.7500 -15.7500 Du        
    428 ****       -21.7500  -1.7500 -15.5000 Du        
    429 ****       -21.7500  -1.7500 -15.2500 Du        
    430 ****       -21.7500  -1.7500 -15.0000 Du        
    431 ****       -21.5000 -17.5000  -0.7500 Du        
    432 ****       -21.5000 -17.5000  -0.2500 Du        
    433 ****       -21.5000 -17.5000   0.0000 Du        
    434 ****       -21.5000 -17.5000   0.2500 Du        
    435 ****       -21.5000 -17.2500  -1.2500 Du        
    436 ****       -21.5000 -17.2500  -1.0000 Du        
    437 ****       -21.5000 -17.2500  -0.7500 Du        
    438 ****       -21.5000 -17.2500  -0.5000 Du        
    439 ****       -21.5000 -17.2500  -0.2500 Du        
    440 ****       -21.5000 -17.2500   0.0000 Du        
    441 ****       -21.5000 -17.2500   0.2500 Du        
    442 ****       -21.5000 -17.2500   0.5000 Du        
    443 ****       -21.5000 -17.0000  -1.7500 Du        
    444 ****       -21.5000 -17.0000  -1.5000 Du        
    445 ****       -21.5000 -17.0000  -1.2500 Du        
    446 ****       -21.5000 -17.0000  -1.0000 Du        
    447 ****       -21.5000 -17.0000  -0.7500 Du        
    448 ****       -21.5000 -17.0000  -0.5000 Du        
    449 ****       -21.5000 -17.0000  -0.2500 Du        
    450 ****       -21.5000 -17.0000   0.0000 Du        
    451 ****       -21.5000 -17.0000   0.2500 Du        
    452 ****       -21.5000 -17.0000   0.5000 Du        
    453 ****       -21.5000 -16.7500  -1.7500 Du        
    454 ****       -21.5000 -16.7500  -1.5000 Du        
    455 ****       -21.5000 -16.7500  -1.2500 Du        
    456 ****       -21.5000 -16.7500  -1.0000 Du        
    457 ****       -21.5000 -16.7500  -0.7500 Du        
    458 ****       -21.5000 -16.7500  -0.5000 Du        
    459 ****       -21.5000 -16.7500  -0.2500 Du        
    460 ****       -21.5000 -16.7500   0.0000 Du        
    461 ****       -21.5000 -16.5000  -2.2500 Du        
    462 ****       -21.5000 -16.5000  -2.0000 Du        
    463 ****       -21.5000 -16.5000  -1.7500 Du        
    464 ****       -21.5000 -16.5000  -1.5000 Du        
    465 ****       -21.5000 -12.7500 -14.2500 Du        
    466 ****       -21.5000 -12.7500 -14.0000 Du        
    467 ****       -21.5000 -12.7500 -13.7500 Du        
    468 ****       -21.5000 -12.5000 -14.2500 Du        
    469 ****       -21.5000 -12.5000 -14.0000 Du        
    470 ****       -21.5000 -12.5000 -13.7500 Du        
    471 ****       -21.5000 -12.2500 -14.5000 Du        
    472 ****       -21.5000 -12.2500 -14.2500 Du        
    473 ****       -21.5000 -12.2500 -14.0000 Du        
    474 ****       -21.5000 -12.2500 -13.7500 Du        
    475 ****       -21.5000 -12.2500 -13.5000 Du        
    476 ****       -21.5000 -12.0000 -14.7500 Du        
    477 ****       -21.5000 -12.0000 -14.5000 Du        
    478 ****       -21.5000 -12.0000 -14.2500 Du        
    479 ****       -21.5000 -12.0000 -14.0000 Du        
    480 ****       -21.5000 -12.0000 -13.7500 Du        
    481 ****       -21.5000 -12.0000 -13.5000 Du        
    482 ****       -21.5000 -12.0000 -13.2500 Du        
    483 ****       -21.5000 -11.7500 -14.7500 Du        
    484 ****       -21.5000 -11.7500 -14.5000 Du        
    485 ****       -21.5000 -11.7500 -14.2500 Du        
    486 ****       -21.5000 -11.7500 -14.0000 Du        
    487 ****       -21.5000 -11.7500 -13.7500 Du        
    488 ****       -21.5000 -11.7500 -13.5000 Du        
    489 ****       -21.5000 -11.7500 -13.2500 Du        
    490 ****       -21.5000 -11.5000 -14.5000 Du        
    491 ****       -21.5000 -11.5000 -14.2500 Du        
    492 ****       -21.5000 -11.5000 -14.0000 Du        
    493 ****       -21.5000 -11.5000 -13.7500 Du        
    494 ****       -21.5000 -11.5000 -13.5000 Du        
    495 ****       -21.5000 -11.5000 -13.2500 Du        
    496 ****       -21.5000 -11.2500 -14.5000 Du        
    497 ****       -21.5000 -11.2500 -14.2500 Du        
    498 ****       -21.5000 -11.2500 -14.0000 Du        
    499 ****       -21.5000 -11.2500 -13.7500 Du        
    500 ****       -21.5000 -11.2500 -13.5000 Du        
    501 ****       -21.5000 -11.2500 -13.2500 Du        
    502 ****       -21.5000 -11.0000 -14.2500 Du        
    503 ****       -21.5000 -11.0000 -14.0000 Du        
    504 ****       -21.5000 -11.0000 -13.7500 Du        
    505 ****       -21.5000 -11.0000 -13.2500 Du        
    506 ****       -21.5000  -9.0000 -28.7500 Du        
    507 ****       -21.5000  -8.7500 -28.7500 Du        
    508 ****       -21.5000  -8.7500 -28.5000 Du        
    509 ****       -21.5000  -8.5000 -28.7500 Du        
    510 ****       -21.5000  -8.2500 -28.7500 Du        
    511 ****       -21.5000  -8.0000 -28.7500 Du        
    512 ****       -21.5000  -4.0000 -15.0000 Du        
    513 ****       -21.5000  -4.0000 -14.7500 Du        
    514 ****       -21.5000  -4.0000 -14.5000 Du        
    515 ****       -21.5000  -4.0000 -14.2500 Du        
    516 ****       -21.5000  -3.7500 -15.2500 Du        
    517 ****       -21.5000  -3.7500 -15.0000 Du        
    518 ****       -21.5000  -3.7500 -14.7500 Du        
    519 ****       -21.5000  -3.7500 -14.5000 Du        
    520 ****       -21.5000  -3.7500 -14.2500 Du        
    521 ****       -21.5000  -3.7500 -14.0000 Du        
    522 ****       -21.5000  -3.7500 -13.7500 Du        
    523 ****       -21.5000  -3.5000 -15.2500 Du        
    524 ****       -21.5000  -3.5000 -15.0000 Du        
    525 ****       -21.5000  -3.5000 -14.7500 Du        
    526 ****       -21.5000  -3.5000 -14.5000 Du        
    527 ****       -21.5000  -3.5000 -14.2500 Du        
    528 ****       -21.5000  -3.5000 -14.0000 Du        
    529 ****       -21.5000  -3.5000 -13.7500 Du        
    530 ****       -21.5000  -3.5000 -13.5000 Du        
    531 ****       -21.5000  -3.5000 -13.2500 Du        
    532 ****       -21.5000  -3.2500 -15.5000 Du        
    533 ****       -21.5000  -3.2500 -15.2500 Du        
    534 ****       -21.5000  -3.2500 -15.0000 Du        
    535 ****       -21.5000  -3.2500 -14.7500 Du        
    536 ****       -21.5000  -3.2500 -14.5000 Du        
    537 ****       -21.5000  -3.2500 -14.2500 Du        
    538 ****       -21.5000  -3.2500 -14.0000 Du        
    539 ****       -21.5000  -3.2500 -13.7500 Du        
    540 ****       -21.5000  -3.2500 -13.5000 Du        
    541 ****       -21.5000  -3.2500 -13.2500 Du        
    542 ****       -21.5000  -3.2500 -13.0000 Du        
    543 ****       -21.5000  -3.0000 -15.7500 Du        
    544 ****       -21.5000  -3.0000 -15.5000 Du        
    545 ****       -21.5000  -3.0000 -15.2500 Du        
    546 ****       -21.5000  -3.0000 -15.0000 Du        
    547 ****       -21.5000  -3.0000 -14.7500 Du        
    548 ****       -21.5000  -3.0000 -14.5000 Du        
    549 ****       -21.5000  -3.0000 -14.2500 Du        
    550 ****       -21.5000  -3.0000 -14.0000 Du        
    551 ****       -21.5000  -3.0000 -13.7500 Du        
    552 ****       -21.5000  -3.0000 -13.5000 Du        
    553 ****       -21.5000  -3.0000 -13.2500 Du        
    554 ****       -21.5000  -3.0000 -13.0000 Du        
    555 ****       -21.5000  -3.0000 -12.7500 Du        
    556 ****       -21.5000  -2.7500 -15.7500 Du        
    557 ****       -21.5000  -2.7500 -15.5000 Du        
    558 ****       -21.5000  -2.7500 -15.2500 Du        
    559 ****       -21.5000  -2.7500 -15.0000 Du        
    560 ****       -21.5000  -2.7500 -14.7500 Du        
    561 ****       -21.5000  -2.7500 -14.5000 Du        
    562 ****       -21.5000  -2.7500 -14.2500 Du        
    563 ****       -21.5000  -2.7500 -14.0000 Du        
    564 ****       -21.5000  -2.7500 -13.7500 Du        
    565 ****       -21.5000  -2.7500 -13.5000 Du        
    566 ****       -21.5000  -2.7500 -13.2500 Du        
    567 ****       -21.5000  -2.7500 -13.0000 Du        
    568 ****       -21.5000  -2.7500 -12.7500 Du        
    569 ****       -21.5000  -2.5000 -16.0000 Du        
    570 ****       -21.5000  -2.5000 -15.7500 Du        
    571 ****       -21.5000  -2.5000 -15.5000 Du        
    572 ****       -21.5000  -2.5000 -15.2500 Du        
    573 ****       -21.5000  -2.5000 -15.0000 Du        
    574 ****       -21.5000  -2.5000 -14.7500 Du        
    575 ****       -21.5000  -2.5000 -14.5000 Du        
    576 ****       -21.5000  -2.5000 -14.2500 Du        
    577 ****       -21.5000  -2.5000 -14.0000 Du        
    578 ****       -21.5000  -2.5000 -13.7500 Du        
    579 ****       -21.5000  -2.2500 -16.2500 Du        
    580 ****       -21.5000  -2.2500 -16.0000 Du        
    581 ****       -21.5000  -2.2500 -15.7500 Du        
    582 ****       -21.5000  -2.2500 -15.5000 Du        
    583 ****       -21.5000  -2.2500 -15.2500 Du        
    584 ****       -21.5000  -2.2500 -15.0000 Du        
    585 ****       -21.5000  -2.2500 -14.7500 Du        
    586 ****       -21.5000  -2.2500 -14.5000 Du        
    587 ****       -21.5000  -2.2500 -14.2500 Du        
    588 ****       -21.5000  -2.0000 -16.2500 Du        
    589 ****       -21.5000  -2.0000 -16.0000 Du        
    590 ****       -21.5000  -2.0000 -15.7500 Du        
    591 ****       -21.5000  -2.0000 -15.5000 Du        
    592 ****       -21.5000  -2.0000 -15.2500 Du        
    593 ****       -21.5000  -2.0000 -15.0000 Du        
    594 ****       -21.2500 -17.5000  -0.7500 Du        
    595 ****       -21.2500 -17.2500  -1.2500 Du        
    596 ****       -21.2500 -17.2500  -1.0000 Du        
    597 ****       -21.2500 -17.2500  -0.7500 Du        
    598 ****       -21.2500 -17.2500  -0.5000 Du        
    599 ****       -21.2500 -17.2500  -0.2500 Du        
    600 ****       -21.2500 -17.2500   0.0000 Du        
    601 ****       -21.2500 -17.2500   0.2500 Du        
    602 ****       -21.2500 -17.2500   0.5000 Du        
    603 ****       -21.2500 -17.0000  -2.0000 Du        
    604 ****       -21.2500 -17.0000  -1.7500 Du        
    605 ****       -21.2500 -17.0000  -1.5000 Du        
    606 ****       -21.2500 -17.0000  -1.2500 Du        
    607 ****       -21.2500 -17.0000  -1.0000 Du        
    608 ****       -21.2500 -17.0000  -0.7500 Du        
    609 ****       -21.2500 -17.0000  -0.5000 Du        
    610 ****       -21.2500 -17.0000  -0.2500 Du        
    611 ****       -21.2500 -17.0000   0.0000 Du        
    612 ****       -21.2500 -17.0000   0.2500 Du        
    613 ****       -21.2500 -17.0000   0.5000 Du        
    614 ****       -21.2500 -16.7500  -2.2500 Du        
    615 ****       -21.2500 -16.7500  -2.0000 Du        
    616 ****       -21.2500 -16.7500  -1.7500 Du        
    617 ****       -21.2500 -16.7500  -1.5000 Du        
    618 ****       -21.2500 -16.7500  -1.2500 Du        
    619 ****       -21.2500 -16.7500  -1.0000 Du        
    620 ****       -21.2500 -16.7500  -0.7500 Du        
    621 ****       -21.2500 -16.7500  -0.5000 Du        
    622 ****       -21.2500 -16.7500  -0.2500 Du        
    623 ****       -21.2500 -16.7500   0.0000 Du        
    624 ****       -21.2500 -16.7500   0.2500 Du        
    625 ****       -21.2500 -16.5000  -2.7500 Du        
    626 ****       -21.2500 -16.5000  -2.5000 Du        
    627 ****       -21.2500 -16.5000  -2.2500 Du        
    628 ****       -21.2500 -16.5000  -2.0000 Du        
    629 ****       -21.2500 -16.5000  -1.7500 Du        
    630 ****       -21.2500 -16.5000  -1.5000 Du        
    631 ****       -21.2500 -16.5000  -1.2500 Du        
    632 ****       -21.2500 -16.2500  -3.5000 Du        
    633 ****       -21.2500 -16.2500  -3.2500 Du        
    634 ****       -21.2500 -16.2500  -3.0000 Du        
    635 ****       -21.2500 -16.2500  -2.7500 Du        
    636 ****       -21.2500 -16.2500  -2.5000 Du        
    637 ****       -21.2500 -16.2500  -2.2500 Du        
    638 ****       -21.2500 -16.2500  -2.0000 Du        
    639 ****       -21.2500 -16.0000  -3.5000 Du        
    640 ****       -21.2500 -16.0000  -3.2500 Du        
    641 ****       -21.2500 -15.7500  -3.2500 Du        
    642 ****       -21.2500 -13.0000 -14.2500 Du        
    643 ****       -21.2500 -12.7500 -14.5000 Du        
    644 ****       -21.2500 -12.7500 -14.2500 Du        
    645 ****       -21.2500 -12.7500 -14.0000 Du        
    646 ****       -21.2500 -12.7500 -13.7500 Du        
    647 ****       -21.2500 -12.5000 -14.7500 Du        
    648 ****       -21.2500 -12.5000 -14.5000 Du        
    649 ****       -21.2500 -12.5000 -14.2500 Du        
    650 ****       -21.2500 -12.5000 -14.0000 Du        
    651 ****       -21.2500 -12.5000 -13.7500 Du        
    652 ****       -21.2500 -12.2500 -15.0000 Du        
    653 ****       -21.2500 -12.2500 -14.7500 Du        
    654 ****       -21.2500 -12.2500 -14.5000 Du        
    655 ****       -21.2500 -12.2500 -14.2500 Du        
    656 ****       -21.2500 -12.2500 -14.0000 Du        
    657 ****       -21.2500 -12.2500 -13.7500 Du        
    658 ****       -21.2500 -12.2500 -13.5000 Du        
    659 ****       -21.2500 -12.0000 -15.0000 Du        
    660 ****       -21.2500 -12.0000 -14.7500 Du        
    661 ****       -21.2500 -12.0000 -14.5000 Du        
    662 ****       -21.2500 -12.0000 -14.2500 Du        
    663 ****       -21.2500 -12.0000 -14.0000 Du        
    664 ****       -21.2500 -12.0000 -13.7500 Du        
    665 ****       -21.2500 -12.0000 -13.5000 Du        
    666 ****       -21.2500 -12.0000 -13.2500 Du        
    667 ****       -21.2500 -11.7500 -15.0000 Du        
    668 ****       -21.2500 -11.7500 -14.7500 Du        
    669 ****       -21.2500 -11.7500 -14.5000 Du        
    670 ****       -21.2500 -11.7500 -14.2500 Du        
    671 ****       -21.2500 -11.7500 -14.0000 Du        
    672 ****       -21.2500 -11.7500 -13.7500 Du        
    673 ****       -21.2500 -11.7500 -13.5000 Du        
    674 ****       -21.2500 -11.7500 -13.2500 Du        
    675 ****       -21.2500 -11.5000 -15.0000 Du        
    676 ****       -21.2500 -11.5000 -14.7500 Du        
    677 ****       -21.2500 -11.5000 -14.5000 Du        
    678 ****       -21.2500 -11.5000 -14.2500 Du        
    679 ****       -21.2500 -11.5000 -14.0000 Du        
    680 ****       -21.2500 -11.5000 -13.7500 Du        
    681 ****       -21.2500 -11.5000 -13.5000 Du        
    682 ****       -21.2500 -11.5000 -13.2500 Du        
    683 ****       -21.2500 -11.2500 -15.0000 Du        
    684 ****       -21.2500 -11.2500 -14.7500 Du        
    685 ****       -21.2500 -11.2500 -14.5000 Du        
    686 ****       -21.2500 -11.2500 -14.2500 Du        
    687 ****       -21.2500 -11.2500 -14.0000 Du        
    688 ****       -21.2500 -11.2500 -13.7500 Du        
    689 ****       -21.2500 -11.2500 -13.5000 Du        
    690 ****       -21.2500 -11.2500 -13.2500 Du        
    691 ****       -21.2500 -11.2500 -13.0000 Du        
    692 ****       -21.2500 -11.0000 -14.2500 Du        
    693 ****       -21.2500 -11.0000 -14.0000 Du        
    694 ****       -21.2500 -11.0000 -13.7500 Du        
    695 ****       -21.2500 -11.0000 -13.5000 Du        
    696 ****       -21.2500 -11.0000 -13.2500 Du        
    697 ****       -21.2500  -9.2500 -21.0000 Du        
    698 ****       -21.2500  -9.0000 -28.7500 Du        
    699 ****       -21.2500  -9.0000 -28.2500 Du        
    700 ****       -21.2500  -8.7500 -28.7500 Du        
    701 ****       -21.2500  -8.7500 -28.5000 Du        
    702 ****       -21.2500  -8.7500 -28.2500 Du        
    703 ****       -21.2500  -8.5000 -28.7500 Du        
    704 ****       -21.2500  -8.2500 -28.7500 Du        
    705 ****       -21.2500  -8.0000 -28.7500 Du        
    706 ****       -21.2500  -7.7500 -28.7500 Du        
    707 ****       -21.2500  -4.0000 -14.7500 Du        
    708 ****       -21.2500  -4.0000 -14.5000 Du        
    709 ****       -21.2500  -4.0000 -14.2500 Du        
    710 ****       -21.2500  -3.7500 -14.7500 Du        
    711 ****       -21.2500  -3.7500 -14.5000 Du        
    712 ****       -21.2500  -3.7500 -14.2500 Du        
    713 ****       -21.2500  -3.7500 -14.0000 Du        
    714 ****       -21.2500  -3.5000 -15.0000 Du        
    715 ****       -21.2500  -3.5000 -14.7500 Du        
    716 ****       -21.2500  -3.5000 -14.5000 Du        
    717 ****       -21.2500  -3.5000 -14.2500 Du        
    718 ****       -21.2500  -3.5000 -14.0000 Du        
    719 ****       -21.2500  -3.5000 -13.7500 Du        
    720 ****       -21.2500  -3.5000 -13.5000 Du        
    721 ****       -21.2500  -3.5000 -13.2500 Du        
    722 ****       -21.2500  -3.2500 -15.2500 Du        
    723 ****       -21.2500  -3.2500 -15.0000 Du        
    724 ****       -21.2500  -3.2500 -14.7500 Du        
    725 ****       -21.2500  -3.2500 -14.5000 Du        
    726 ****       -21.2500  -3.2500 -14.2500 Du        
    727 ****       -21.2500  -3.2500 -14.0000 Du        
    728 ****       -21.2500  -3.2500 -13.7500 Du        
    729 ****       -21.2500  -3.2500 -13.5000 Du        
    730 ****       -21.2500  -3.2500 -13.2500 Du        
    731 ****       -21.2500  -3.2500 -13.0000 Du        
    732 ****       -21.2500  -3.0000 -15.2500 Du        
    733 ****       -21.2500  -3.0000 -15.0000 Du        
    734 ****       -21.2500  -3.0000 -14.7500 Du        
    735 ****       -21.2500  -3.0000 -14.5000 Du        
    736 ****       -21.2500  -3.0000 -14.2500 Du        
    737 ****       -21.2500  -3.0000 -14.0000 Du        
    738 ****       -21.2500  -3.0000 -13.7500 Du        
    739 ****       -21.2500  -3.0000 -13.5000 Du        
    740 ****       -21.2500  -3.0000 -13.2500 Du        
    741 ****       -21.2500  -3.0000 -13.0000 Du        
    742 ****       -21.2500  -3.0000 -12.7500 Du        
    743 ****       -21.2500  -3.0000 -12.5000 Du        
    744 ****       -21.2500  -2.7500 -15.5000 Du        
    745 ****       -21.2500  -2.7500 -15.2500 Du        
    746 ****       -21.2500  -2.7500 -15.0000 Du        
    747 ****       -21.2500  -2.7500 -14.7500 Du        
    748 ****       -21.2500  -2.7500 -14.5000 Du        
    749 ****       -21.2500  -2.7500 -14.2500 Du        
    750 ****       -21.2500  -2.7500 -14.0000 Du        
    751 ****       -21.2500  -2.7500 -13.7500 Du        
    752 ****       -21.2500  -2.7500 -13.5000 Du        
    753 ****       -21.2500  -2.7500 -13.2500 Du        
    754 ****       -21.2500  -2.7500 -13.0000 Du        
    755 ****       -21.2500  -2.7500 -12.7500 Du        
    756 ****       -21.2500  -2.7500 -12.2500 Du        
    757 ****       -21.2500  -2.5000 -15.5000 Du        
    758 ****       -21.2500  -2.5000 -15.2500 Du        
    759 ****       -21.2500  -2.5000 -15.0000 Du        
    760 ****       -21.2500  -2.5000 -14.7500 Du        
    761 ****       -21.2500  -2.2500 -15.7500 Du        
    762 ****       -21.2500  -2.2500 -15.5000 Du        
    763 ****       -21.2500  -2.2500 -15.2500 Du        
    764 ****       -21.0000 -17.2500  -1.5000 Du        
    765 ****       -21.0000 -17.2500  -1.2500 Du        
    766 ****       -21.0000 -17.2500  -1.0000 Du        
    767 ****       -21.0000 -17.2500  -0.7500 Du        
    768 ****       -21.0000 -17.2500  -0.5000 Du        
    769 ****       -21.0000 -17.2500  -0.2500 Du        
    770 ****       -21.0000 -17.2500   0.0000 Du        
    771 ****       -21.0000 -17.2500   0.2500 Du        
    772 ****       -21.0000 -17.2500   0.5000 Du        
    773 ****       -21.0000 -17.2500   0.7500 Du        
    774 ****       -21.0000 -17.2500   1.0000 Du        
    775 ****       -21.0000 -17.0000  -2.0000 Du        
    776 ****       -21.0000 -17.0000  -1.7500 Du        
    777 ****       -21.0000 -17.0000  -1.5000 Du        
    778 ****       -21.0000 -17.0000  -1.2500 Du        
    779 ****       -21.0000 -17.0000  -1.0000 Du        
    780 ****       -21.0000 -17.0000  -0.7500 Du        
    781 ****       -21.0000 -17.0000  -0.5000 Du        
    782 ****       -21.0000 -17.0000  -0.2500 Du        
    783 ****       -21.0000 -17.0000   0.0000 Du        
    784 ****       -21.0000 -17.0000   0.2500 Du        
    785 ****       -21.0000 -17.0000   0.5000 Du        
    786 ****       -21.0000 -17.0000   0.7500 Du        
    787 ****       -21.0000 -17.0000   1.0000 Du        
    788 ****       -21.0000 -16.7500  -3.2500 Du        
    789 ****       -21.0000 -16.7500  -3.0000 Du        
    790 ****       -21.0000 -16.7500  -2.7500 Du        
    791 ****       -21.0000 -16.7500  -2.5000 Du        
    792 ****       -21.0000 -16.7500  -2.2500 Du        
    793 ****       -21.0000 -16.7500  -2.0000 Du        
    794 ****       -21.0000 -16.7500  -1.7500 Du        
    795 ****       -21.0000 -16.7500  -1.5000 Du        
    796 ****       -21.0000 -16.7500  -1.2500 Du        
    797 ****       -21.0000 -16.7500  -1.0000 Du        
    798 ****       -21.0000 -16.7500  -0.7500 Du        
    799 ****       -21.0000 -16.7500  -0.5000 Du        
    800 ****       -21.0000 -16.7500  -0.2500 Du        
    801 ****       -21.0000 -16.7500   0.0000 Du        
    802 ****       -21.0000 -16.7500   0.2500 Du        
    803 ****       -21.0000 -16.7500   0.5000 Du        
    804 ****       -21.0000 -16.7500   0.7500 Du        
    805 ****       -21.0000 -16.7500   1.0000 Du        
    806 ****       -21.0000 -16.5000  -3.5000 Du        
    807 ****       -21.0000 -16.5000  -3.2500 Du        
    808 ****       -21.0000 -16.5000  -3.0000 Du        
    809 ****       -21.0000 -16.5000  -2.7500 Du        
    810 ****       -21.0000 -16.5000  -2.5000 Du        
    811 ****       -21.0000 -16.5000  -2.2500 Du        
    812 ****       -21.0000 -16.5000  -2.0000 Du        
    813 ****       -21.0000 -16.5000  -1.7500 Du        
    814 ****       -21.0000 -16.5000  -1.5000 Du        
    815 ****       -21.0000 -16.5000  -1.2500 Du        
    816 ****       -21.0000 -16.5000  -1.0000 Du        
    817 ****       -21.0000 -16.2500  -3.7500 Du        
    818 ****       -21.0000 -16.2500  -3.5000 Du        
    819 ****       -21.0000 -16.2500  -3.2500 Du        
    820 ****       -21.0000 -16.2500  -3.0000 Du        
    821 ****       -21.0000 -16.2500  -2.7500 Du        
    822 ****       -21.0000 -16.2500  -2.5000 Du        
    823 ****       -21.0000 -16.2500  -2.2500 Du        
    824 ****       -21.0000 -16.2500  -2.0000 Du        
    825 ****       -21.0000 -16.2500  -1.7500 Du        
    826 ****       -21.0000 -16.0000 -28.7500 Du        
    827 ****       -21.0000 -16.0000  -3.7500 Du        
    828 ****       -21.0000 -16.0000  -3.5000 Du        
    829 ****       -21.0000 -16.0000  -3.2500 Du        
    830 ****       -21.0000 -16.0000  -3.0000 Du        
    831 ****       -21.0000 -16.0000  -2.7500 Du        
    832 ****       -21.0000 -16.0000  -2.5000 Du        
    833 ****       -21.0000 -16.0000  -2.2500 Du        
    834 ****       -21.0000 -15.7500 -28.7500 Du        
    835 ****       -21.0000 -15.7500 -28.5000 Du        
    836 ****       -21.0000 -15.7500  -4.0000 Du        
    837 ****       -21.0000 -15.7500  -3.7500 Du        
    838 ****       -21.0000 -15.7500  -3.5000 Du        
    839 ****       -21.0000 -15.7500  -3.2500 Du        
    840 ****       -21.0000 -15.7500  -3.0000 Du        
    841 ****       -21.0000 -15.7500  -2.7500 Du        
    842 ****       -21.0000 -15.5000 -28.7500 Du        
    843 ****       -21.0000 -15.5000 -28.5000 Du        
    844 ****       -21.0000 -15.5000  -3.7500 Du        
    845 ****       -21.0000 -15.5000  -3.5000 Du        
    846 ****       -21.0000 -15.5000  -3.2500 Du        
    847 ****       -21.0000 -15.5000  -3.0000 Du        
    848 ****       -21.0000 -15.2500 -28.7500 Du        
    849 ****       -21.0000 -15.2500 -28.5000 Du        
    850 ****       -21.0000 -13.0000 -14.7500 Du        
    851 ****       -21.0000 -13.0000 -14.5000 Du        
    852 ****       -21.0000 -13.0000 -14.2500 Du        
    853 ****       -21.0000 -13.0000 -14.0000 Du        
    854 ****       -21.0000 -12.7500 -15.0000 Du        
    855 ****       -21.0000 -12.7500 -14.7500 Du        
    856 ****       -21.0000 -12.7500 -14.5000 Du        
    857 ****       -21.0000 -12.7500 -14.2500 Du        
    858 ****       -21.0000 -12.7500 -14.0000 Du        
    859 ****       -21.0000 -12.7500 -13.7500 Du        
    860 ****       -21.0000 -12.5000 -15.2500 Du        
    861 ****       -21.0000 -12.5000 -15.0000 Du        
    862 ****       -21.0000 -12.5000 -14.7500 Du        
    863 ****       -21.0000 -12.5000 -14.5000 Du        
    864 ****       -21.0000 -12.5000 -14.2500 Du        
    865 ****       -21.0000 -12.5000 -14.0000 Du        
    866 ****       -21.0000 -12.5000 -13.7500 Du        
    867 ****       -21.0000 -12.2500 -15.2500 Du        
    868 ****       -21.0000 -12.2500 -15.0000 Du        
    869 ****       -21.0000 -12.2500 -14.7500 Du        
    870 ****       -21.0000 -12.2500 -14.5000 Du        
    871 ****       -21.0000 -12.2500 -14.2500 Du        
    872 ****       -21.0000 -12.2500 -14.0000 Du        
    873 ****       -21.0000 -12.2500 -13.7500 Du        
    874 ****       -21.0000 -12.2500 -13.5000 Du        
    875 ****       -21.0000 -12.0000 -15.5000 Du        
    876 ****       -21.0000 -12.0000 -15.2500 Du        
    877 ****       -21.0000 -12.0000 -15.0000 Du        
    878 ****       -21.0000 -12.0000 -14.7500 Du        
    879 ****       -21.0000 -12.0000 -14.5000 Du        
    880 ****       -21.0000 -12.0000 -14.2500 Du        
    881 ****       -21.0000 -12.0000 -14.0000 Du        
    882 ****       -21.0000 -12.0000 -13.7500 Du        
    883 ****       -21.0000 -12.0000 -13.5000 Du        
    884 ****       -21.0000 -12.0000 -13.2500 Du        
    885 ****       -21.0000 -11.7500 -15.5000 Du        
    886 ****       -21.0000 -11.7500 -15.2500 Du        
    887 ****       -21.0000 -11.7500 -15.0000 Du        
    888 ****       -21.0000 -11.7500 -14.7500 Du        
    889 ****       -21.0000 -11.7500 -14.5000 Du        
    890 ****       -21.0000 -11.7500 -14.2500 Du        
    891 ****       -21.0000 -11.7500 -14.0000 Du        
    892 ****       -21.0000 -11.7500 -13.7500 Du        
    893 ****       -21.0000 -11.7500 -13.5000 Du        
    894 ****       -21.0000 -11.7500 -13.2500 Du        
    895 ****       -21.0000 -11.5000 -15.5000 Du        
    896 ****       -21.0000 -11.5000 -15.2500 Du        
    897 ****       -21.0000 -11.5000 -15.0000 Du        
    898 ****       -21.0000 -11.5000 -14.7500 Du        
    899 ****       -21.0000 -11.5000 -14.5000 Du        
    900 ****       -21.0000 -11.5000 -14.2500 Du        
    901 ****       -21.0000 -11.5000 -14.0000 Du        
    902 ****       -21.0000 -11.5000 -13.7500 Du        
    903 ****       -21.0000 -11.5000 -13.5000 Du        
    904 ****       -21.0000 -11.5000 -13.2500 Du        
    905 ****       -21.0000 -11.5000 -13.0000 Du        
    906 ****       -21.0000 -11.2500 -15.2500 Du        
    907 ****       -21.0000 -11.2500 -15.0000 Du        
    908 ****       -21.0000 -11.2500 -14.7500 Du        
    909 ****       -21.0000 -11.2500 -14.5000 Du        
    910 ****       -21.0000 -11.2500 -14.2500 Du        
    911 ****       -21.0000 -11.2500 -14.0000 Du        
    912 ****       -21.0000 -11.2500 -13.7500 Du        
    913 ****       -21.0000 -11.2500 -13.5000 Du        
    914 ****       -21.0000 -11.2500 -13.2500 Du        
    915 ****       -21.0000 -11.2500 -13.0000 Du        
    916 ****       -21.0000  -9.2500 -21.5000 Du        
    917 ****       -21.0000  -9.2500 -21.2500 Du        
    918 ****       -21.0000  -9.0000 -28.7500 Du        
    919 ****       -21.0000  -9.0000 -28.2500 Du        
    920 ****       -21.0000  -8.7500 -28.7500 Du        
    921 ****       -21.0000  -8.7500 -28.5000 Du        
    922 ****       -21.0000  -8.7500 -28.2500 Du        
    923 ****       -21.0000  -8.5000 -29.0000 Du        
    924 ****       -21.0000  -8.5000 -28.7500 Du        
    925 ****       -21.0000  -8.5000 -28.5000 Du        
    926 ****       -21.0000  -8.5000 -28.2500 Du        
    927 ****       -21.0000  -8.2500 -29.0000 Du        
    928 ****       -21.0000  -8.2500 -28.7500 Du        
    929 ****       -21.0000  -8.0000 -29.0000 Du        
    930 ****       -21.0000  -8.0000 -28.7500 Du        
    931 ****       -21.0000  -7.7500 -29.0000 Du        
    932 ****       -21.0000  -7.7500 -28.7500 Du        
    933 ****       -21.0000  -3.7500 -14.5000 Du        
    934 ****       -21.0000  -3.7500 -14.2500 Du        
    935 ****       -21.0000  -3.7500 -14.0000 Du        
    936 ****       -21.0000  -3.5000 -14.5000 Du        
    937 ****       -21.0000  -3.5000 -14.2500 Du        
    938 ****       -21.0000  -3.5000 -14.0000 Du        
    939 ****       -21.0000  -3.5000 -13.7500 Du        
    940 ****       -21.0000  -3.5000 -13.5000 Du        
    941 ****       -21.0000  -3.2500 -14.5000 Du        
    942 ****       -21.0000  -3.2500 -14.2500 Du        
    943 ****       -21.0000  -3.2500 -14.0000 Du        
    944 ****       -21.0000  -3.2500 -13.7500 Du        
    945 ****       -21.0000  -3.2500 -13.5000 Du        
    946 ****       -21.0000  -3.2500 -13.2500 Du        
    947 ****       -21.0000  -3.2500 -13.0000 Du        
    948 ****       -21.0000  -3.2500 -12.7500 Du        
    949 ****       -21.0000  -3.2500 -12.5000 Du        
    950 ****       -21.0000  -3.2500 -12.2500 Du        
    951 ****       -21.0000  -3.2500 -12.0000 Du        
    952 ****       -21.0000  -3.0000 -14.5000 Du        
    953 ****       -21.0000  -3.0000 -14.2500 Du        
    954 ****       -21.0000  -3.0000 -14.0000 Du        
    955 ****       -21.0000  -3.0000 -13.7500 Du        
    956 ****       -21.0000  -3.0000 -13.5000 Du        
    957 ****       -21.0000  -3.0000 -13.2500 Du        
    958 ****       -21.0000  -3.0000 -13.0000 Du        
    959 ****       -21.0000  -3.0000 -12.7500 Du        
    960 ****       -21.0000  -3.0000 -12.5000 Du        
    961 ****       -21.0000  -3.0000 -12.2500 Du        
    962 ****       -21.0000  -3.0000 -12.0000 Du        
    963 ****       -21.0000  -3.0000 -11.7500 Du        
    964 ****       -21.0000  -2.7500 -12.2500 Du        
    965 ****       -21.0000  -2.7500 -12.0000 Du        
    966 ****       -21.0000  -2.7500 -11.7500 Du        
    967 ****       -20.7500 -17.2500  -1.5000 Du        
    968 ****       -20.7500 -17.2500  -1.2500 Du        
    969 ****       -20.7500 -17.2500  -1.0000 Du        
    970 ****       -20.7500 -17.2500  -0.7500 Du        
    971 ****       -20.7500 -17.2500  -0.5000 Du        
    972 ****       -20.7500 -17.2500  -0.2500 Du        
    973 ****       -20.7500 -17.2500   0.0000 Du        
    974 ****       -20.7500 -17.2500   0.2500 Du        
    975 ****       -20.7500 -17.2500   0.5000 Du        
    976 ****       -20.7500 -17.2500   0.7500 Du        
    977 ****       -20.7500 -17.2500   1.0000 Du        
    978 ****       -20.7500 -17.0000  -2.7500 Du        
    979 ****       -20.7500 -17.0000  -2.2500 Du        
    980 ****       -20.7500 -17.0000  -2.0000 Du        
    981 ****       -20.7500 -17.0000  -1.7500 Du        
    982 ****       -20.7500 -17.0000  -1.5000 Du        
    983 ****       -20.7500 -17.0000  -1.2500 Du        
    984 ****       -20.7500 -17.0000  -1.0000 Du        
    985 ****       -20.7500 -17.0000  -0.7500 Du        
    986 ****       -20.7500 -17.0000  -0.5000 Du        
    987 ****       -20.7500 -17.0000  -0.2500 Du        
    988 ****       -20.7500 -17.0000   0.0000 Du        
    989 ****       -20.7500 -17.0000   0.2500 Du        
    990 ****       -20.7500 -17.0000   0.5000 Du        
    991 ****       -20.7500 -17.0000   0.7500 Du        
    992 ****       -20.7500 -17.0000   1.0000 Du        
    993 ****       -20.7500 -16.7500  -3.5000 Du        
    994 ****       -20.7500 -16.7500  -3.2500 Du        
    995 ****       -20.7500 -16.7500  -3.0000 Du        
    996 ****       -20.7500 -16.7500  -2.7500 Du        
    997 ****       -20.7500 -16.7500  -2.5000 Du        
    998 ****       -20.7500 -16.7500  -2.2500 Du        
    999 ****       -20.7500 -16.7500  -2.0000 Du        
   1000 ****       -20.7500 -16.7500  -1.7500 Du        
   1001 ****       -20.7500 -16.7500  -1.5000 Du        
   1002 ****       -20.7500 -16.7500  -1.2500 Du        
   1003 ****       -20.7500 -16.7500  -1.0000 Du        
   1004 ****       -20.7500 -16.7500  -0.7500 Du        
   1005 ****       -20.7500 -16.7500  -0.5000 Du        
   1006 ****       -20.7500 -16.7500  -0.2500 Du        
   1007 ****       -20.7500 -16.7500   0.0000 Du        
   1008 ****       -20.7500 -16.7500   0.2500 Du        
   1009 ****       -20.7500 -16.7500   0.5000 Du        
   1010 ****       -20.7500 -16.7500   0.7500 Du        
   1011 ****       -20.7500 -16.7500   1.0000 Du        
   1012 ****       -20.7500 -16.5000  -4.0000 Du        
   1013 ****       -20.7500 -16.5000  -3.7500 Du        
   1014 ****       -20.7500 -16.5000  -3.5000 Du        
   1015 ****       -20.7500 -16.5000  -3.2500 Du        
   1016 ****       -20.7500 -16.5000  -3.0000 Du        
   1017 ****       -20.7500 -16.5000  -2.7500 Du        
   1018 ****       -20.7500 -16.5000  -2.5000 Du        
   1019 ****       -20.7500 -16.5000  -2.2500 Du        
   1020 ****       -20.7500 -16.5000  -2.0000 Du        
   1021 ****       -20.7500 -16.5000  -1.7500 Du        
   1022 ****       -20.7500 -16.5000  -1.5000 Du        
   1023 ****       -20.7500 -16.5000  -1.2500 Du        
   1024 ****       -20.7500 -16.5000  -1.0000 Du        
   1025 ****       -20.7500 -16.5000  -0.7500 Du        
   1026 ****       -20.7500 -16.2500 -28.7500 Du        
   1027 ****       -20.7500 -16.2500 -28.5000 Du        
   1028 ****       -20.7500 -16.2500  -4.2500 Du        
   1029 ****       -20.7500 -16.2500  -4.0000 Du        
   1030 ****       -20.7500 -16.2500  -3.7500 Du        
   1031 ****       -20.7500 -16.2500  -3.5000 Du        
   1032 ****       -20.7500 -16.2500  -3.2500 Du        
   1033 ****       -20.7500 -16.2500  -3.0000 Du        
   1034 ****       -20.7500 -16.2500  -2.7500 Du        
   1035 ****       -20.7500 -16.2500  -2.5000 Du        
   1036 ****       -20.7500 -16.2500  -2.2500 Du        
   1037 ****       -20.7500 -16.2500  -2.0000 Du        
   1038 ****       -20.7500 -16.2500  -1.7500 Du        
   1039 ****       -20.7500 -16.2500  -1.5000 Du        
   1040 ****       -20.7500 -16.0000 -28.7500 Du        
   1041 ****       -20.7500 -16.0000 -28.5000 Du        
   1042 ****       -20.7500 -16.0000 -28.2500 Du        
   1043 ****       -20.7500 -16.0000  -4.2500 Du        
   1044 ****       -20.7500 -16.0000  -4.0000 Du        
   1045 ****       -20.7500 -16.0000  -3.7500 Du        
   1046 ****       -20.7500 -16.0000  -3.5000 Du        
   1047 ****       -20.7500 -16.0000  -3.2500 Du        
   1048 ****       -20.7500 -16.0000  -3.0000 Du        
   1049 ****       -20.7500 -16.0000  -2.7500 Du        
   1050 ****       -20.7500 -16.0000  -2.5000 Du        
   1051 ****       -20.7500 -16.0000  -2.2500 Du        
   1052 ****       -20.7500 -16.0000  -2.0000 Du        
   1053 ****       -20.7500 -15.7500 -28.7500 Du        
   1054 ****       -20.7500 -15.7500 -28.5000 Du        
   1055 ****       -20.7500 -15.7500 -28.2500 Du        
   1056 ****       -20.7500 -15.7500  -4.2500 Du        
   1057 ****       -20.7500 -15.7500  -4.0000 Du        
   1058 ****       -20.7500 -15.7500  -3.7500 Du        
   1059 ****       -20.7500 -15.7500  -3.5000 Du        
   1060 ****       -20.7500 -15.7500  -3.2500 Du        
   1061 ****       -20.7500 -15.7500  -3.0000 Du        
   1062 ****       -20.7500 -15.7500  -2.7500 Du        
   1063 ****       -20.7500 -15.7500  -2.5000 Du        
   1064 ****       -20.7500 -15.5000 -28.7500 Du        
   1065 ****       -20.7500 -15.5000 -28.5000 Du        
   1066 ****       -20.7500 -15.5000 -28.2500 Du        
   1067 ****       -20.7500 -15.5000  -4.2500 Du        
   1068 ****       -20.7500 -15.5000  -4.0000 Du        
   1069 ****       -20.7500 -15.5000  -3.7500 Du        
   1070 ****       -20.7500 -15.5000  -3.5000 Du        
   1071 ****       -20.7500 -15.5000  -3.2500 Du        
   1072 ****       -20.7500 -15.5000  -3.0000 Du        
   1073 ****       -20.7500 -15.5000  -2.7500 Du        
   1074 ****       -20.7500 -15.2500 -28.7500 Du        
   1075 ****       -20.7500 -15.2500 -28.5000 Du        
   1076 ****       -20.7500 -15.2500 -28.2500 Du        
   1077 ****       -20.7500 -15.2500  -3.7500 Du        
   1078 ****       -20.7500 -15.2500  -3.5000 Du        
   1079 ****       -20.7500 -15.2500  -3.2500 Du        
   1080 ****       -20.7500 -15.0000 -28.7500 Du        
   1081 ****       -20.7500 -15.0000 -28.5000 Du        
   1082 ****       -20.7500 -13.2500 -14.7500 Du        
   1083 ****       -20.7500 -13.2500 -14.5000 Du        
   1084 ****       -20.7500 -13.2500 -14.2500 Du        
   1085 ****       -20.7500 -13.0000 -15.2500 Du        
   1086 ****       -20.7500 -13.0000 -15.0000 Du        
   1087 ****       -20.7500 -13.0000 -14.7500 Du        
   1088 ****       -20.7500 -13.0000 -14.5000 Du        
   1089 ****       -20.7500 -13.0000 -14.2500 Du        
   1090 ****       -20.7500 -13.0000 -14.0000 Du        
   1091 ****       -20.7500 -12.7500 -15.2500 Du        
   1092 ****       -20.7500 -12.7500 -15.0000 Du        
   1093 ****       -20.7500 -12.7500 -14.7500 Du        
   1094 ****       -20.7500 -12.7500 -14.5000 Du        
   1095 ****       -20.7500 -12.7500 -14.2500 Du        
   1096 ****       -20.7500 -12.7500 -14.0000 Du        
   1097 ****       -20.7500 -12.7500 -13.7500 Du        
   1098 ****       -20.7500 -12.5000 -15.5000 Du        
   1099 ****       -20.7500 -12.5000 -15.2500 Du        
   1100 ****       -20.7500 -12.5000 -15.0000 Du        
   1101 ****       -20.7500 -12.5000 -14.7500 Du        
   1102 ****       -20.7500 -12.5000 -14.5000 Du        
   1103 ****       -20.7500 -12.5000 -14.2500 Du        
   1104 ****       -20.7500 -12.5000 -14.0000 Du        
   1105 ****       -20.7500 -12.5000 -13.7500 Du        
   1106 ****       -20.7500 -12.2500 -15.5000 Du        
   1107 ****       -20.7500 -12.2500 -15.2500 Du        
   1108 ****       -20.7500 -12.2500 -15.0000 Du        
   1109 ****       -20.7500 -12.2500 -14.7500 Du        
   1110 ****       -20.7500 -12.2500 -14.5000 Du        
   1111 ****       -20.7500 -12.2500 -14.2500 Du        
   1112 ****       -20.7500 -12.2500 -14.0000 Du        
   1113 ****       -20.7500 -12.2500 -13.7500 Du        
   1114 ****       -20.7500 -12.2500 -13.5000 Du        
   1115 ****       -20.7500 -12.0000 -15.7500 Du        
   1116 ****       -20.7500 -12.0000 -15.5000 Du        
   1117 ****       -20.7500 -12.0000 -15.2500 Du        
   1118 ****       -20.7500 -12.0000 -15.0000 Du        
   1119 ****       -20.7500 -12.0000 -14.7500 Du        
   1120 ****       -20.7500 -12.0000 -14.5000 Du        
   1121 ****       -20.7500 -12.0000 -14.2500 Du        
   1122 ****       -20.7500 -12.0000 -14.0000 Du        
   1123 ****       -20.7500 -12.0000 -13.7500 Du        
   1124 ****       -20.7500 -12.0000 -13.5000 Du        
   1125 ****       -20.7500 -11.7500 -15.7500 Du        
   1126 ****       -20.7500 -11.7500 -15.5000 Du        
   1127 ****       -20.7500 -11.7500 -15.2500 Du        
   1128 ****       -20.7500 -11.7500 -15.0000 Du        
   1129 ****       -20.7500 -11.7500 -14.7500 Du        
   1130 ****       -20.7500 -11.7500 -14.5000 Du        
   1131 ****       -20.7500 -11.7500 -14.2500 Du        
   1132 ****       -20.7500 -11.7500 -14.0000 Du        
   1133 ****       -20.7500 -11.7500 -13.7500 Du        
   1134 ****       -20.7500 -11.7500 -13.5000 Du        
   1135 ****       -20.7500 -11.7500 -13.2500 Du        
   1136 ****       -20.7500 -11.5000 -15.7500 Du        
   1137 ****       -20.7500 -11.5000 -15.5000 Du        
   1138 ****       -20.7500 -11.5000 -15.2500 Du        
   1139 ****       -20.7500 -11.5000 -15.0000 Du        
   1140 ****       -20.7500 -11.5000 -14.7500 Du        
   1141 ****       -20.7500 -11.5000 -14.5000 Du        
   1142 ****       -20.7500 -11.5000 -14.2500 Du        
   1143 ****       -20.7500 -11.5000 -14.0000 Du        
   1144 ****       -20.7500 -11.5000 -13.7500 Du        
   1145 ****       -20.7500 -11.5000 -13.5000 Du        
   1146 ****       -20.7500 -11.5000 -13.2500 Du        
   1147 ****       -20.7500 -11.5000 -13.0000 Du        
   1148 ****       -20.7500 -11.2500 -15.5000 Du        
   1149 ****       -20.7500 -11.2500 -15.2500 Du        
   1150 ****       -20.7500 -11.2500 -15.0000 Du        
   1151 ****       -20.7500 -11.2500 -14.7500 Du        
   1152 ****       -20.7500 -11.2500 -14.5000 Du        
   1153 ****       -20.7500 -11.2500 -14.2500 Du        
   1154 ****       -20.7500 -11.2500 -14.0000 Du        
   1155 ****       -20.7500 -11.2500 -13.7500 Du        
   1156 ****       -20.7500 -11.2500 -13.5000 Du        
   1157 ****       -20.7500 -11.2500 -13.2500 Du        
   1158 ****       -20.7500  -9.5000 -22.0000 Du        
   1159 ****       -20.7500  -9.2500 -22.5000 Du        
   1160 ****       -20.7500  -9.2500 -22.2500 Du        
   1161 ****       -20.7500  -9.2500 -22.0000 Du        
   1162 ****       -20.7500  -9.2500 -21.7500 Du        
   1163 ****       -20.7500  -9.2500 -21.5000 Du        
   1164 ****       -20.7500  -9.0000 -22.5000 Du        
   1165 ****       -20.7500  -9.0000 -22.2500 Du        
   1166 ****       -20.7500  -9.0000 -22.0000 Du        
   1167 ****       -20.7500  -8.7500 -28.2500 Du        
   1168 ****       -20.7500  -8.7500 -28.0000 Du        
   1169 ****       -20.7500  -8.5000 -28.7500 Du        
   1170 ****       -20.7500  -8.5000 -28.2500 Du        
   1171 ****       -20.7500  -8.2500 -29.0000 Du        
   1172 ****       -20.7500  -8.2500 -28.7500 Du        
   1173 ****       -20.7500  -8.2500 -28.5000 Du        
   1174 ****       -20.7500  -8.2500 -28.2500 Du        
   1175 ****       -20.7500  -8.2500 -28.0000 Du        
   1176 ****       -20.7500  -8.0000 -29.0000 Du        
   1177 ****       -20.7500  -8.0000 -28.7500 Du        
   1178 ****       -20.7500  -8.0000 -28.2500 Du        
   1179 ****       -20.7500  -7.7500 -29.0000 Du        
   1180 ****       -20.7500  -7.7500 -28.7500 Du        
   1181 ****       -20.7500  -3.2500 -12.7500 Du        
   1182 ****       -20.7500  -3.2500 -12.5000 Du        
   1183 ****       -20.7500  -3.2500 -12.2500 Du        
   1184 ****       -20.7500  -3.2500 -12.0000 Du        
   1185 ****       -20.7500  -3.2500 -11.7500 Du        
   1186 ****       -20.7500  -3.0000 -12.7500 Du        
   1187 ****       -20.7500  -3.0000 -12.5000 Du        
   1188 ****       -20.7500  -3.0000 -12.2500 Du        
   1189 ****       -20.7500  -3.0000 -12.0000 Du        
   1190 ****       -20.7500  -3.0000 -11.7500 Du        
   1191 ****       -20.7500  -2.7500 -12.2500 Du        
   1192 ****       -20.7500  -2.7500 -12.0000 Du        
   1193 ****       -20.7500  -2.7500 -11.7500 Du        
   1194 ****       -20.5000 -18.0000  -7.7500 Du        
   1195 ****       -20.5000 -17.2500 -23.2500 Du        
   1196 ****       -20.5000 -17.2500 -23.0000 Du        
   1197 ****       -20.5000 -17.2500  -2.0000 Du        
   1198 ****       -20.5000 -17.2500  -1.7500 Du        
   1199 ****       -20.5000 -17.2500  -1.5000 Du        
   1200 ****       -20.5000 -17.2500  -1.2500 Du        
   1201 ****       -20.5000 -17.2500  -1.0000 Du        
   1202 ****       -20.5000 -17.2500  -0.7500 Du        
   1203 ****       -20.5000 -17.2500  -0.5000 Du        
   1204 ****       -20.5000 -17.2500  -0.2500 Du        
   1205 ****       -20.5000 -17.0000 -23.5000 Du        
   1206 ****       -20.5000 -17.0000 -23.2500 Du        
   1207 ****       -20.5000 -17.0000 -23.0000 Du        
   1208 ****       -20.5000 -17.0000 -22.7500 Du        
   1209 ****       -20.5000 -17.0000  -3.0000 Du        
   1210 ****       -20.5000 -17.0000  -2.7500 Du        
   1211 ****       -20.5000 -17.0000  -2.5000 Du        
   1212 ****       -20.5000 -17.0000  -2.2500 Du        
   1213 ****       -20.5000 -17.0000  -2.0000 Du        
   1214 ****       -20.5000 -17.0000  -1.7500 Du        
   1215 ****       -20.5000 -17.0000  -1.5000 Du        
   1216 ****       -20.5000 -17.0000  -1.2500 Du        
   1217 ****       -20.5000 -17.0000  -1.0000 Du        
   1218 ****       -20.5000 -17.0000  -0.7500 Du        
   1219 ****       -20.5000 -17.0000  -0.5000 Du        
   1220 ****       -20.5000 -17.0000  -0.2500 Du        
   1221 ****       -20.5000 -17.0000   0.0000 Du        
   1222 ****       -20.5000 -17.0000   0.2500 Du        
   1223 ****       -20.5000 -17.0000   0.5000 Du        
   1224 ****       -20.5000 -17.0000   0.7500 Du        
   1225 ****       -20.5000 -17.0000   1.0000 Du        
   1226 ****       -20.5000 -17.0000   1.2500 Du        
   1227 ****       -20.5000 -17.0000   1.5000 Du        
   1228 ****       -20.5000 -16.7500 -23.5000 Du        
   1229 ****       -20.5000 -16.7500 -23.2500 Du        
   1230 ****       -20.5000 -16.7500 -23.0000 Du        
   1231 ****       -20.5000 -16.7500  -4.5000 Du        
   1232 ****       -20.5000 -16.7500  -4.2500 Du        
   1233 ****       -20.5000 -16.7500  -4.0000 Du        
   1234 ****       -20.5000 -16.7500  -3.7500 Du        
   1235 ****       -20.5000 -16.7500  -3.5000 Du        
   1236 ****       -20.5000 -16.7500  -3.2500 Du        
   1237 ****       -20.5000 -16.7500  -3.0000 Du        
   1238 ****       -20.5000 -16.7500  -2.7500 Du        
   1239 ****       -20.5000 -16.7500  -2.5000 Du        
   1240 ****       -20.5000 -16.7500  -2.2500 Du        
   1241 ****       -20.5000 -16.7500  -2.0000 Du        
   1242 ****       -20.5000 -16.7500  -1.7500 Du        
   1243 ****       -20.5000 -16.7500  -1.5000 Du        
   1244 ****       -20.5000 -16.7500  -1.2500 Du        
   1245 ****       -20.5000 -16.7500  -1.0000 Du        
   1246 ****       -20.5000 -16.7500  -0.7500 Du        
   1247 ****       -20.5000 -16.7500  -0.5000 Du        
   1248 ****       -20.5000 -16.7500  -0.2500 Du        
   1249 ****       -20.5000 -16.7500   0.0000 Du        
   1250 ****       -20.5000 -16.7500   0.2500 Du        
   1251 ****       -20.5000 -16.7500   0.5000 Du        
   1252 ****       -20.5000 -16.7500   0.7500 Du        
   1253 ****       -20.5000 -16.7500   1.0000 Du        
   1254 ****       -20.5000 -16.7500   1.2500 Du        
   1255 ****       -20.5000 -16.7500   1.5000 Du        
   1256 ****       -20.5000 -16.5000 -23.2500 Du        
   1257 ****       -20.5000 -16.5000 -23.0000 Du        
   1258 ****       -20.5000 -16.5000  -4.7500 Du        
   1259 ****       -20.5000 -16.5000  -4.5000 Du        
   1260 ****       -20.5000 -16.5000  -4.2500 Du        
   1261 ****       -20.5000 -16.5000  -4.0000 Du        
   1262 ****       -20.5000 -16.5000  -3.7500 Du        
   1263 ****       -20.5000 -16.5000  -3.5000 Du        
   1264 ****       -20.5000 -16.5000  -3.2500 Du        
   1265 ****       -20.5000 -16.5000  -3.0000 Du        
   1266 ****       -20.5000 -16.5000  -2.7500 Du        
   1267 ****       -20.5000 -16.5000  -2.5000 Du        
   1268 ****       -20.5000 -16.5000  -2.2500 Du        
   1269 ****       -20.5000 -16.5000  -2.0000 Du        
   1270 ****       -20.5000 -16.5000  -1.7500 Du        
   1271 ****       -20.5000 -16.5000  -1.5000 Du        
   1272 ****       -20.5000 -16.5000  -1.2500 Du        
   1273 ****       -20.5000 -16.5000  -1.0000 Du        
   1274 ****       -20.5000 -16.5000  -0.7500 Du        
   1275 ****       -20.5000 -16.5000  -0.5000 Du        
   1276 ****       -20.5000 -16.5000  -0.2500 Du        
   1277 ****       -20.5000 -16.5000   0.0000 Du        
   1278 ****       -20.5000 -16.5000   0.2500 Du        
   1279 ****       -20.5000 -16.5000   0.5000 Du        
   1280 ****       -20.5000 -16.5000   0.7500 Du        
   1281 ****       -20.5000 -16.5000   1.0000 Du        
   1282 ****       -20.5000 -16.2500 -28.7500 Du        
   1283 ****       -20.5000 -16.2500 -28.5000 Du        
   1284 ****       -20.5000 -16.2500 -28.2500 Du        
   1285 ****       -20.5000 -16.2500  -4.7500 Du        
   1286 ****       -20.5000 -16.2500  -4.5000 Du        
   1287 ****       -20.5000 -16.2500  -4.2500 Du        
   1288 ****       -20.5000 -16.2500  -4.0000 Du        
   1289 ****       -20.5000 -16.2500  -3.7500 Du        
   1290 ****       -20.5000 -16.2500  -3.5000 Du        
   1291 ****       -20.5000 -16.2500  -3.2500 Du        
   1292 ****       -20.5000 -16.2500  -3.0000 Du        
   1293 ****       -20.5000 -16.2500  -2.7500 Du        
   1294 ****       -20.5000 -16.2500  -2.5000 Du        
   1295 ****       -20.5000 -16.2500  -2.2500 Du        
   1296 ****       -20.5000 -16.2500  -2.0000 Du        
   1297 ****       -20.5000 -16.2500  -1.7500 Du        
   1298 ****       -20.5000 -16.2500  -1.5000 Du        
   1299 ****       -20.5000 -16.2500  -1.2500 Du        
   1300 ****       -20.5000 -16.0000 -29.2500 Du        
   1301 ****       -20.5000 -16.0000 -29.0000 Du        
   1302 ****       -20.5000 -16.0000 -28.7500 Du        
   1303 ****       -20.5000 -16.0000 -28.5000 Du        
   1304 ****       -20.5000 -16.0000 -28.2500 Du        
   1305 ****       -20.5000 -16.0000  -4.7500 Du        
   1306 ****       -20.5000 -16.0000  -4.5000 Du        
   1307 ****       -20.5000 -16.0000  -4.2500 Du        
   1308 ****       -20.5000 -16.0000  -4.0000 Du        
   1309 ****       -20.5000 -16.0000  -3.7500 Du        
   1310 ****       -20.5000 -16.0000  -3.5000 Du        
   1311 ****       -20.5000 -16.0000  -3.2500 Du        
   1312 ****       -20.5000 -16.0000  -3.0000 Du        
   1313 ****       -20.5000 -16.0000  -2.7500 Du        
   1314 ****       -20.5000 -16.0000  -2.5000 Du        
   1315 ****       -20.5000 -16.0000  -2.2500 Du        
   1316 ****       -20.5000 -16.0000  -2.0000 Du        
   1317 ****       -20.5000 -16.0000  -1.7500 Du        
   1318 ****       -20.5000 -15.7500 -29.2500 Du        
   1319 ****       -20.5000 -15.7500 -29.0000 Du        
   1320 ****       -20.5000 -15.7500 -28.7500 Du        
   1321 ****       -20.5000 -15.7500 -28.5000 Du        
   1322 ****       -20.5000 -15.7500 -28.2500 Du        
   1323 ****       -20.5000 -15.7500 -28.0000 Du        
   1324 ****       -20.5000 -15.7500  -4.5000 Du        
   1325 ****       -20.5000 -15.7500  -4.2500 Du        
   1326 ****       -20.5000 -15.7500  -4.0000 Du        
   1327 ****       -20.5000 -15.7500  -3.7500 Du        
   1328 ****       -20.5000 -15.7500  -3.5000 Du        
   1329 ****       -20.5000 -15.7500  -3.2500 Du        
   1330 ****       -20.5000 -15.7500  -3.0000 Du        
   1331 ****       -20.5000 -15.7500  -2.7500 Du        
   1332 ****       -20.5000 -15.7500  -2.5000 Du        
   1333 ****       -20.5000 -15.7500  -2.2500 Du        
   1334 ****       -20.5000 -15.5000 -29.2500 Du        
   1335 ****       -20.5000 -15.5000 -29.0000 Du        
   1336 ****       -20.5000 -15.5000 -28.7500 Du        
   1337 ****       -20.5000 -15.5000 -28.5000 Du        
   1338 ****       -20.5000 -15.5000 -28.2500 Du        
   1339 ****       -20.5000 -15.5000  -4.2500 Du        
   1340 ****       -20.5000 -15.5000  -4.0000 Du        
   1341 ****       -20.5000 -15.5000  -3.7500 Du        
   1342 ****       -20.5000 -15.5000  -3.5000 Du        
   1343 ****       -20.5000 -15.5000  -3.2500 Du        
   1344 ****       -20.5000 -15.5000  -3.0000 Du        
   1345 ****       -20.5000 -15.5000  -2.7500 Du        
   1346 ****       -20.5000 -15.5000  -2.5000 Du        
   1347 ****       -20.5000 -15.2500 -29.2500 Du        
   1348 ****       -20.5000 -15.2500 -29.0000 Du        
   1349 ****       -20.5000 -15.2500 -28.7500 Du        
   1350 ****       -20.5000 -15.2500 -28.5000 Du        
   1351 ****       -20.5000 -15.2500 -28.2500 Du        
   1352 ****       -20.5000 -15.2500  -3.5000 Du        
   1353 ****       -20.5000 -15.2500  -3.2500 Du        
   1354 ****       -20.5000 -15.2500  -3.0000 Du        
   1355 ****       -20.5000 -15.2500  -2.7500 Du        
   1356 ****       -20.5000 -15.0000 -29.0000 Du        
   1357 ****       -20.5000 -15.0000 -28.7500 Du        
   1358 ****       -20.5000 -15.0000 -28.5000 Du        
   1359 ****       -20.5000 -15.0000 -28.2500 Du        
   1360 ****       -20.5000 -13.5000 -14.7500 Du        
   1361 ****       -20.5000 -13.2500 -15.2500 Du        
   1362 ****       -20.5000 -13.2500 -15.0000 Du        
   1363 ****       -20.5000 -13.2500 -14.7500 Du        
   1364 ****       -20.5000 -13.2500 -14.5000 Du        
   1365 ****       -20.5000 -13.0000 -15.7500 Du        
   1366 ****       -20.5000 -13.0000 -15.5000 Du        
   1367 ****       -20.5000 -13.0000 -15.2500 Du        
   1368 ****       -20.5000 -13.0000 -15.0000 Du        
   1369 ****       -20.5000 -13.0000 -14.7500 Du        
   1370 ****       -20.5000 -13.0000 -14.5000 Du        
   1371 ****       -20.5000 -13.0000 -14.2500 Du        
   1372 ****       -20.5000 -12.7500 -15.7500 Du        
   1373 ****       -20.5000 -12.7500 -15.5000 Du        
   1374 ****       -20.5000 -12.7500 -15.2500 Du        
   1375 ****       -20.5000 -12.7500 -15.0000 Du        
   1376 ****       -20.5000 -12.7500 -14.7500 Du        
   1377 ****       -20.5000 -12.7500 -14.5000 Du        
   1378 ****       -20.5000 -12.7500 -14.2500 Du        
   1379 ****       -20.5000 -12.7500 -14.0000 Du        
   1380 ****       -20.5000 -12.7500 -13.7500 Du        
   1381 ****       -20.5000 -12.5000 -15.5000 Du        
   1382 ****       -20.5000 -12.5000 -15.2500 Du        
   1383 ****       -20.5000 -12.5000 -15.0000 Du        
   1384 ****       -20.5000 -12.5000 -14.7500 Du        
   1385 ****       -20.5000 -12.5000 -14.5000 Du        
   1386 ****       -20.5000 -12.5000 -14.2500 Du        
   1387 ****       -20.5000 -12.5000 -14.0000 Du        
   1388 ****       -20.5000 -12.5000 -13.7500 Du        
   1389 ****       -20.5000 -12.2500 -15.7500 Du        
   1390 ****       -20.5000 -12.2500 -15.5000 Du        
   1391 ****       -20.5000 -12.2500 -15.2500 Du        
   1392 ****       -20.5000 -12.2500 -15.0000 Du        
   1393 ****       -20.5000 -12.2500 -14.7500 Du        
   1394 ****       -20.5000 -12.2500 -14.5000 Du        
   1395 ****       -20.5000 -12.2500 -14.2500 Du        
   1396 ****       -20.5000 -12.2500 -14.0000 Du        
   1397 ****       -20.5000 -12.2500 -13.7500 Du        
   1398 ****       -20.5000 -12.0000 -15.7500 Du        
   1399 ****       -20.5000 -12.0000 -15.5000 Du        
   1400 ****       -20.5000 -12.0000 -15.2500 Du        
   1401 ****       -20.5000 -12.0000 -15.0000 Du        
   1402 ****       -20.5000 -12.0000 -14.7500 Du        
   1403 ****       -20.5000 -12.0000 -14.5000 Du        
   1404 ****       -20.5000 -12.0000 -14.2500 Du        
   1405 ****       -20.5000 -12.0000 -14.0000 Du        
   1406 ****       -20.5000 -12.0000 -13.7500 Du        
   1407 ****       -20.5000 -12.0000 -13.5000 Du        
   1408 ****       -20.5000 -11.7500 -15.7500 Du        
   1409 ****       -20.5000 -11.7500 -15.5000 Du        
   1410 ****       -20.5000 -11.7500 -15.2500 Du        
   1411 ****       -20.5000 -11.7500 -15.0000 Du        
   1412 ****       -20.5000 -11.7500 -14.7500 Du        
   1413 ****       -20.5000 -11.7500 -14.5000 Du        
   1414 ****       -20.5000 -11.7500 -14.2500 Du        
   1415 ****       -20.5000 -11.7500 -14.0000 Du        
   1416 ****       -20.5000 -11.7500 -13.7500 Du        
   1417 ****       -20.5000 -11.7500 -13.5000 Du        
   1418 ****       -20.5000 -11.7500 -13.2500 Du        
   1419 ****       -20.5000 -11.5000 -15.5000 Du        
   1420 ****       -20.5000 -11.5000 -15.2500 Du        
   1421 ****       -20.5000 -11.5000 -15.0000 Du        
   1422 ****       -20.5000 -11.5000 -14.7500 Du        
   1423 ****       -20.5000 -11.5000 -14.5000 Du        
   1424 ****       -20.5000 -11.5000 -14.2500 Du        
   1425 ****       -20.5000 -11.5000 -14.0000 Du        
   1426 ****       -20.5000 -11.5000 -13.7500 Du        
   1427 ****       -20.5000  -9.2500 -22.2500 Du        
   1428 ****       -20.5000  -9.2500 -22.0000 Du        
   1429 ****       -20.5000  -8.7500 -28.2500 Du        
   1430 ****       -20.5000  -8.7500 -28.0000 Du        
   1431 ****       -20.5000  -8.5000 -28.2500 Du        
   1432 ****       -20.5000  -8.2500 -28.7500 Du        
   1433 ****       -20.5000  -8.2500 -28.5000 Du        
   1434 ****       -20.5000  -8.2500 -28.2500 Du        
   1435 ****       -20.5000  -8.2500 -28.0000 Du        
   1436 ****       -20.5000  -8.0000 -28.7500 Du        
   1437 ****       -20.5000  -8.0000 -28.5000 Du        
   1438 ****       -20.5000  -8.0000 -28.2500 Du        
   1439 ****       -20.5000  -8.0000 -28.0000 Du        
   1440 ****       -20.5000  -7.7500 -29.0000 Du        
   1441 ****       -20.5000  -7.7500 -28.7500 Du        
   1442 ****       -20.5000  -7.7500 -28.5000 Du        
   1443 ****       -20.5000  -7.7500 -28.2500 Du        
   1444 ****       -20.5000  -7.5000 -28.7500 Du        
   1445 ****       -20.5000  -3.2500 -12.0000 Du        
   1446 ****       -20.5000  -3.2500 -11.7500 Du        
   1447 ****       -20.5000  -3.2500 -11.5000 Du        
   1448 ****       -20.5000  -3.2500 -11.2500 Du        
   1449 ****       -20.5000  -3.0000 -12.2500 Du        
   1450 ****       -20.5000  -3.0000 -12.0000 Du        
   1451 ****       -20.5000  -3.0000 -11.7500 Du        
   1452 ****       -20.5000  -3.0000 -11.5000 Du        
   1453 ****       -20.5000  -3.0000 -11.2500 Du        
   1454 ****       -20.5000  -2.7500 -12.0000 Du        
   1455 ****       -20.5000  -2.7500 -11.7500 Du        
   1456 ****       -20.5000  -2.7500 -11.5000 Du        
   1457 ****       -20.5000  -2.7500 -11.2500 Du        
   1458 ****       -20.5000  -2.5000 -11.2500 Du        
   1459 ****       -20.2500 -18.2500  -8.0000 Du        
   1460 ****       -20.2500 -18.2500  -7.5000 Du        
   1461 ****       -20.2500 -18.2500  -7.2500 Du        
   1462 ****       -20.2500 -18.0000  -8.0000 Du        
   1463 ****       -20.2500 -18.0000  -7.7500 Du        
   1464 ****       -20.2500 -18.0000  -7.5000 Du        
   1465 ****       -20.2500 -17.7500 -23.2500 Du        
   1466 ****       -20.2500 -17.7500 -23.0000 Du        
   1467 ****       -20.2500 -17.7500  -7.7500 Du        
   1468 ****       -20.2500 -17.7500  -7.0000 Du        
   1469 ****       -20.2500 -17.5000 -23.7500 Du        
   1470 ****       -20.2500 -17.5000 -23.5000 Du        
   1471 ****       -20.2500 -17.5000 -23.2500 Du        
   1472 ****       -20.2500 -17.5000 -23.0000 Du        
   1473 ****       -20.2500 -17.5000 -22.7500 Du        
   1474 ****       -20.2500 -17.2500 -24.0000 Du        
   1475 ****       -20.2500 -17.2500 -23.7500 Du        
   1476 ****       -20.2500 -17.2500 -23.5000 Du        
   1477 ****       -20.2500 -17.2500 -23.2500 Du        
   1478 ****       -20.2500 -17.2500 -23.0000 Du        
   1479 ****       -20.2500 -17.2500 -22.7500 Du        
   1480 ****       -20.2500 -17.2500  -2.0000 Du        
   1481 ****       -20.2500 -17.2500  -1.7500 Du        
   1482 ****       -20.2500 -17.2500  -1.5000 Du        
   1483 ****       -20.2500 -17.2500  -1.2500 Du        
   1484 ****       -20.2500 -17.2500  -1.0000 Du        
   1485 ****       -20.2500 -17.2500  -0.7500 Du        
   1486 ****       -20.2500 -17.0000 -24.0000 Du        
   1487 ****       -20.2500 -17.0000 -23.7500 Du        
   1488 ****       -20.2500 -17.0000 -23.5000 Du        
   1489 ****       -20.2500 -17.0000 -23.2500 Du        
   1490 ****       -20.2500 -17.0000 -23.0000 Du        
   1491 ****       -20.2500 -17.0000 -22.7500 Du        
   1492 ****       -20.2500 -17.0000  -4.0000 Du        
   1493 ****       -20.2500 -17.0000  -3.5000 Du        
   1494 ****       -20.2500 -17.0000  -3.0000 Du        
   1495 ****       -20.2500 -17.0000  -2.7500 Du        
   1496 ****       -20.2500 -17.0000  -2.5000 Du        
   1497 ****       -20.2500 -17.0000  -2.2500 Du        
   1498 ****       -20.2500 -17.0000  -2.0000 Du        
   1499 ****       -20.2500 -17.0000  -1.7500 Du        
   1500 ****       -20.2500 -17.0000  -1.5000 Du        
   1501 ****       -20.2500 -17.0000  -1.2500 Du        
   1502 ****       -20.2500 -17.0000  -1.0000 Du        
   1503 ****       -20.2500 -17.0000  -0.7500 Du        
   1504 ****       -20.2500 -17.0000  -0.5000 Du        
   1505 ****       -20.2500 -17.0000  -0.2500 Du        
   1506 ****       -20.2500 -17.0000   0.0000 Du        
   1507 ****       -20.2500 -17.0000   0.2500 Du        
   1508 ****       -20.2500 -17.0000   0.5000 Du        
   1509 ****       -20.2500 -17.0000   0.7500 Du        
   1510 ****       -20.2500 -17.0000   1.0000 Du        
   1511 ****       -20.2500 -17.0000   1.2500 Du        
   1512 ****       -20.2500 -17.0000   1.5000 Du        
   1513 ****       -20.2500 -16.7500 -24.0000 Du        
   1514 ****       -20.2500 -16.7500 -23.7500 Du        
   1515 ****       -20.2500 -16.7500 -23.5000 Du        
   1516 ****       -20.2500 -16.7500 -23.2500 Du        
   1517 ****       -20.2500 -16.7500 -23.0000 Du        
   1518 ****       -20.2500 -16.7500  -5.0000 Du        
   1519 ****       -20.2500 -16.7500  -4.7500 Du        
   1520 ****       -20.2500 -16.7500  -4.5000 Du        
   1521 ****       -20.2500 -16.7500  -4.2500 Du        
   1522 ****       -20.2500 -16.7500  -4.0000 Du        
   1523 ****       -20.2500 -16.7500  -3.7500 Du        
   1524 ****       -20.2500 -16.7500  -3.5000 Du        
   1525 ****       -20.2500 -16.7500  -3.2500 Du        
   1526 ****       -20.2500 -16.7500  -3.0000 Du        
   1527 ****       -20.2500 -16.7500  -2.7500 Du        
   1528 ****       -20.2500 -16.7500  -2.5000 Du        
   1529 ****       -20.2500 -16.7500  -2.2500 Du        
   1530 ****       -20.2500 -16.7500  -2.0000 Du        
   1531 ****       -20.2500 -16.7500  -1.7500 Du        
   1532 ****       -20.2500 -16.7500  -1.5000 Du        
   1533 ****       -20.2500 -16.7500  -1.2500 Du        
   1534 ****       -20.2500 -16.7500  -1.0000 Du        
   1535 ****       -20.2500 -16.7500  -0.7500 Du        
   1536 ****       -20.2500 -16.7500  -0.5000 Du        
   1537 ****       -20.2500 -16.7500  -0.2500 Du        
   1538 ****       -20.2500 -16.7500   0.0000 Du        
   1539 ****       -20.2500 -16.7500   0.2500 Du        
   1540 ****       -20.2500 -16.7500   0.5000 Du        
   1541 ****       -20.2500 -16.7500   0.7500 Du        
   1542 ****       -20.2500 -16.7500   1.0000 Du        
   1543 ****       -20.2500 -16.7500   1.2500 Du        
   1544 ****       -20.2500 -16.7500   1.5000 Du        
   1545 ****       -20.2500 -16.5000 -23.5000 Du        
   1546 ****       -20.2500 -16.5000 -23.2500 Du        
   1547 ****       -20.2500 -16.5000 -23.0000 Du        
   1548 ****       -20.2500 -16.5000  -5.0000 Du        
   1549 ****       -20.2500 -16.5000  -4.7500 Du        
   1550 ****       -20.2500 -16.5000  -4.5000 Du        
   1551 ****       -20.2500 -16.5000  -4.2500 Du        
   1552 ****       -20.2500 -16.5000  -4.0000 Du        
   1553 ****       -20.2500 -16.5000  -3.7500 Du        
   1554 ****       -20.2500 -16.5000  -3.5000 Du        
   1555 ****       -20.2500 -16.5000  -3.2500 Du        
   1556 ****       -20.2500 -16.5000  -3.0000 Du        
   1557 ****       -20.2500 -16.5000  -2.7500 Du        
   1558 ****       -20.2500 -16.5000  -2.5000 Du        
   1559 ****       -20.2500 -16.5000  -2.2500 Du        
   1560 ****       -20.2500 -16.5000  -2.0000 Du        
   1561 ****       -20.2500 -16.5000  -1.7500 Du        
   1562 ****       -20.2500 -16.5000  -1.5000 Du        
   1563 ****       -20.2500 -16.5000  -1.2500 Du        
   1564 ****       -20.2500 -16.5000  -1.0000 Du        
   1565 ****       -20.2500 -16.5000  -0.7500 Du        
   1566 ****       -20.2500 -16.5000  -0.5000 Du        
   1567 ****       -20.2500 -16.5000  -0.2500 Du        
   1568 ****       -20.2500 -16.5000   0.0000 Du        
   1569 ****       -20.2500 -16.5000   0.2500 Du        
   1570 ****       -20.2500 -16.5000   0.5000 Du        
   1571 ****       -20.2500 -16.5000   0.7500 Du        
   1572 ****       -20.2500 -16.5000   1.0000 Du        
   1573 ****       -20.2500 -16.5000   1.2500 Du        
   1574 ****       -20.2500 -16.5000   1.5000 Du        
   1575 ****       -20.2500 -16.2500 -28.7500 Du        
   1576 ****       -20.2500 -16.2500 -28.5000 Du        
   1577 ****       -20.2500 -16.2500 -28.2500 Du        
   1578 ****       -20.2500 -16.2500 -28.0000 Du        
   1579 ****       -20.2500 -16.2500 -23.2500 Du        
   1580 ****       -20.2500 -16.2500  -5.0000 Du        
   1581 ****       -20.2500 -16.2500  -4.7500 Du        
   1582 ****       -20.2500 -16.2500  -4.5000 Du        
   1583 ****       -20.2500 -16.2500  -4.2500 Du        
   1584 ****       -20.2500 -16.2500  -4.0000 Du        
   1585 ****       -20.2500 -16.2500  -3.7500 Du        
   1586 ****       -20.2500 -16.2500  -3.5000 Du        
   1587 ****       -20.2500 -16.2500  -3.2500 Du        
   1588 ****       -20.2500 -16.2500  -3.0000 Du        
   1589 ****       -20.2500 -16.2500  -2.7500 Du        
   1590 ****       -20.2500 -16.2500  -2.5000 Du        
   1591 ****       -20.2500 -16.2500  -2.2500 Du        
   1592 ****       -20.2500 -16.2500  -2.0000 Du        
   1593 ****       -20.2500 -16.2500  -1.7500 Du        
   1594 ****       -20.2500 -16.2500  -1.5000 Du        
   1595 ****       -20.2500 -16.2500  -1.2500 Du        
   1596 ****       -20.2500 -16.2500  -1.0000 Du        
   1597 ****       -20.2500 -16.2500  -0.7500 Du        
   1598 ****       -20.2500 -16.0000 -29.2500 Du        
   1599 ****       -20.2500 -16.0000 -29.0000 Du        
   1600 ****       -20.2500 -16.0000 -28.7500 Du        
   1601 ****       -20.2500 -16.0000 -28.5000 Du        
   1602 ****       -20.2500 -16.0000 -28.2500 Du        
   1603 ****       -20.2500 -16.0000 -28.0000 Du        
   1604 ****       -20.2500 -16.0000  -5.0000 Du        
   1605 ****       -20.2500 -16.0000  -4.7500 Du        
   1606 ****       -20.2500 -16.0000  -4.5000 Du        
   1607 ****       -20.2500 -16.0000  -4.2500 Du        
   1608 ****       -20.2500 -16.0000  -4.0000 Du        
   1609 ****       -20.2500 -16.0000  -3.7500 Du        
   1610 ****       -20.2500 -16.0000  -3.5000 Du        
   1611 ****       -20.2500 -16.0000  -3.2500 Du        
   1612 ****       -20.2500 -16.0000  -3.0000 Du        
   1613 ****       -20.2500 -16.0000  -2.7500 Du        
   1614 ****       -20.2500 -16.0000  -2.5000 Du        
   1615 ****       -20.2500 -16.0000  -2.2500 Du        
   1616 ****       -20.2500 -16.0000  -2.0000 Du        
   1617 ****       -20.2500 -16.0000  -1.7500 Du        
   1618 ****       -20.2500 -16.0000  -1.5000 Du        
   1619 ****       -20.2500 -15.7500 -29.2500 Du        
   1620 ****       -20.2500 -15.7500 -29.0000 Du        
   1621 ****       -20.2500 -15.7500 -28.7500 Du        
   1622 ****       -20.2500 -15.7500 -28.5000 Du        
   1623 ****       -20.2500 -15.7500 -28.2500 Du        
   1624 ****       -20.2500 -15.7500 -28.0000 Du        
   1625 ****       -20.2500 -15.7500  -5.0000 Du        
   1626 ****       -20.2500 -15.7500  -4.7500 Du        
   1627 ****       -20.2500 -15.7500  -4.5000 Du        
   1628 ****       -20.2500 -15.7500  -4.2500 Du        
   1629 ****       -20.2500 -15.7500  -4.0000 Du        
   1630 ****       -20.2500 -15.7500  -3.7500 Du        
   1631 ****       -20.2500 -15.7500  -3.5000 Du        
   1632 ****       -20.2500 -15.7500  -3.2500 Du        
   1633 ****       -20.2500 -15.7500  -3.0000 Du        
   1634 ****       -20.2500 -15.7500  -2.7500 Du        
   1635 ****       -20.2500 -15.7500  -2.5000 Du        
   1636 ****       -20.2500 -15.7500  -2.2500 Du        
   1637 ****       -20.2500 -15.7500  -2.0000 Du        
   1638 ****       -20.2500 -15.5000 -29.2500 Du        
   1639 ****       -20.2500 -15.5000 -29.0000 Du        
   1640 ****       -20.2500 -15.5000 -28.7500 Du        
   1641 ****       -20.2500 -15.5000 -28.5000 Du        
   1642 ****       -20.2500 -15.5000 -28.2500 Du        
   1643 ****       -20.2500 -15.5000  -3.7500 Du        
   1644 ****       -20.2500 -15.5000  -3.5000 Du        
   1645 ****       -20.2500 -15.5000  -3.2500 Du        
   1646 ****       -20.2500 -15.5000  -3.0000 Du        
   1647 ****       -20.2500 -15.5000  -2.7500 Du        
   1648 ****       -20.2500 -15.5000  -2.5000 Du        
   1649 ****       -20.2500 -15.2500 -29.2500 Du        
   1650 ****       -20.2500 -15.2500 -29.0000 Du        
   1651 ****       -20.2500 -15.2500 -28.7500 Du        
   1652 ****       -20.2500 -15.2500 -28.5000 Du        
   1653 ****       -20.2500 -15.2500 -28.2500 Du        
   1654 ****       -20.2500 -15.2500  -3.0000 Du        
   1655 ****       -20.2500 -15.0000 -29.0000 Du        
   1656 ****       -20.2500 -15.0000 -28.7500 Du        
   1657 ****       -20.2500 -15.0000 -28.5000 Du        
   1658 ****       -20.2500 -13.7500 -15.0000 Du        
   1659 ****       -20.2500 -13.5000 -15.2500 Du        
   1660 ****       -20.2500 -13.5000 -15.0000 Du        
   1661 ****       -20.2500 -13.5000 -14.7500 Du        
   1662 ****       -20.2500 -13.2500 -15.7500 Du        
   1663 ****       -20.2500 -13.2500 -15.5000 Du        
   1664 ****       -20.2500 -13.2500 -15.2500 Du        
   1665 ****       -20.2500 -13.2500 -15.0000 Du        
   1666 ****       -20.2500 -13.2500 -14.7500 Du        
   1667 ****       -20.2500 -13.2500 -14.5000 Du        
   1668 ****       -20.2500 -13.2500 -14.2500 Du        
   1669 ****       -20.2500 -13.0000 -15.7500 Du        
   1670 ****       -20.2500 -13.0000 -15.5000 Du        
   1671 ****       -20.2500 -13.0000 -15.2500 Du        
   1672 ****       -20.2500 -13.0000 -15.0000 Du        
   1673 ****       -20.2500 -13.0000 -14.7500 Du        
   1674 ****       -20.2500 -13.0000 -14.5000 Du        
   1675 ****       -20.2500 -13.0000 -14.2500 Du        
   1676 ****       -20.2500 -12.7500 -15.7500 Du        
   1677 ****       -20.2500 -12.7500 -15.5000 Du        
   1678 ****       -20.2500 -12.7500 -15.2500 Du        
   1679 ****       -20.2500 -12.7500 -15.0000 Du        
   1680 ****       -20.2500 -12.7500 -14.7500 Du        
   1681 ****       -20.2500 -12.7500 -14.5000 Du        
   1682 ****       -20.2500 -12.7500 -14.2500 Du        
   1683 ****       -20.2500 -12.7500 -14.0000 Du        
   1684 ****       -20.2500 -12.7500 -13.7500 Du        
   1685 ****       -20.2500 -12.5000 -15.7500 Du        
   1686 ****       -20.2500 -12.5000 -15.5000 Du        
   1687 ****       -20.2500 -12.5000 -15.2500 Du        
   1688 ****       -20.2500 -12.5000 -15.0000 Du        
   1689 ****       -20.2500 -12.5000 -14.7500 Du        
   1690 ****       -20.2500 -12.5000 -14.5000 Du        
   1691 ****       -20.2500 -12.5000 -14.2500 Du        
   1692 ****       -20.2500 -12.5000 -14.0000 Du        
   1693 ****       -20.2500 -12.5000 -13.7500 Du        
   1694 ****       -20.2500 -12.2500 -15.7500 Du        
   1695 ****       -20.2500 -12.2500 -15.5000 Du        
   1696 ****       -20.2500 -12.2500 -15.2500 Du        
   1697 ****       -20.2500 -12.2500 -15.0000 Du        
   1698 ****       -20.2500 -12.2500 -14.7500 Du        
   1699 ****       -20.2500 -12.2500 -14.5000 Du        
   1700 ****       -20.2500 -12.2500 -14.2500 Du        
   1701 ****       -20.2500 -12.2500 -14.0000 Du        
   1702 ****       -20.2500 -12.2500 -13.7500 Du        
   1703 ****       -20.2500 -12.0000 -15.7500 Du        
   1704 ****       -20.2500 -12.0000 -15.5000 Du        
   1705 ****       -20.2500 -12.0000 -15.2500 Du        
   1706 ****       -20.2500 -12.0000 -15.0000 Du        
   1707 ****       -20.2500 -12.0000 -14.7500 Du        
   1708 ****       -20.2500 -12.0000 -14.5000 Du        
   1709 ****       -20.2500 -12.0000 -14.2500 Du        
   1710 ****       -20.2500 -12.0000 -14.0000 Du        
   1711 ****       -20.2500 -12.0000 -13.7500 Du        
   1712 ****       -20.2500 -12.0000 -13.5000 Du        
   1713 ****       -20.2500 -11.7500 -16.0000 Du        
   1714 ****       -20.2500 -11.7500 -15.7500 Du        
   1715 ****       -20.2500 -11.7500 -15.5000 Du        
   1716 ****       -20.2500 -11.7500 -15.2500 Du        
   1717 ****       -20.2500 -11.7500 -15.0000 Du        
   1718 ****       -20.2500 -11.7500 -14.7500 Du        
   1719 ****       -20.2500 -11.7500 -14.5000 Du        
   1720 ****       -20.2500 -11.7500 -14.2500 Du        
   1721 ****       -20.2500 -11.7500 -14.0000 Du        
   1722 ****       -20.2500 -11.7500 -13.7500 Du        
   1723 ****       -20.2500 -11.7500 -13.5000 Du        
   1724 ****       -20.2500 -11.5000 -15.5000 Du        
   1725 ****       -20.2500 -11.5000 -15.2500 Du        
   1726 ****       -20.2500 -11.5000 -15.0000 Du        
   1727 ****       -20.2500 -11.5000 -14.7500 Du        
   1728 ****       -20.2500 -11.5000 -14.0000 Du        
   1729 ****       -20.2500  -8.7500 -28.2500 Du        
   1730 ****       -20.2500  -8.7500 -28.0000 Du        
   1731 ****       -20.2500  -8.7500 -27.7500 Du        
   1732 ****       -20.2500  -8.5000 -28.2500 Du        
   1733 ****       -20.2500  -8.5000 -28.0000 Du        
   1734 ****       -20.2500  -8.2500 -28.2500 Du        
   1735 ****       -20.2500  -8.2500 -28.0000 Du        
   1736 ****       -20.2500  -8.2500 -27.7500 Du        
   1737 ****       -20.2500  -8.0000 -28.7500 Du        
   1738 ****       -20.2500  -8.0000 -28.5000 Du        
   1739 ****       -20.2500  -8.0000 -28.2500 Du        
   1740 ****       -20.2500  -8.0000 -28.0000 Du        
   1741 ****       -20.2500  -8.0000 -27.7500 Du        
   1742 ****       -20.2500  -7.7500 -28.7500 Du        
   1743 ****       -20.2500  -7.7500 -28.5000 Du        
   1744 ****       -20.2500  -7.7500 -28.2500 Du        
   1745 ****       -20.2500  -7.5000 -28.7500 Du        
   1746 ****       -20.2500  -3.0000 -11.7500 Du        
   1747 ****       -20.2500  -3.0000 -11.5000 Du        
   1748 ****       -20.2500  -3.0000 -11.2500 Du        
   1749 ****       -20.2500  -3.0000 -11.0000 Du        
   1750 ****       -20.2500  -2.7500 -11.7500 Du        
   1751 ****       -20.2500  -2.7500 -11.5000 Du        
   1752 ****       -20.2500  -2.7500 -11.2500 Du        
   1753 ****       -20.2500  -2.7500 -10.7500 Du        
   1754 ****       -20.2500  -2.5000 -11.2500 Du        
   1755 ****       -20.2500  -2.5000 -11.0000 Du        
   1756 ****       -20.2500  -2.2500 -11.0000 Du        
   1757 ****       -20.0000 -18.5000  -7.7500 Du        
   1758 ****       -20.0000 -18.2500 -23.2500 Du        
   1759 ****       -20.0000 -18.2500 -23.0000 Du        
   1760 ****       -20.0000 -18.2500  -8.0000 Du        
   1761 ****       -20.0000 -18.2500  -7.7500 Du        
   1762 ****       -20.0000 -18.2500  -7.5000 Du        
   1763 ****       -20.0000 -18.0000 -23.7500 Du        
   1764 ****       -20.0000 -18.0000 -23.5000 Du        
   1765 ****       -20.0000 -18.0000 -23.2500 Du        
   1766 ****       -20.0000 -18.0000 -23.0000 Du        
   1767 ****       -20.0000 -18.0000 -22.7500 Du        
   1768 ****       -20.0000 -18.0000  -8.0000 Du        
   1769 ****       -20.0000 -18.0000  -7.7500 Du        
   1770 ****       -20.0000 -18.0000  -7.5000 Du        
   1771 ****       -20.0000 -18.0000  -7.2500 Du        
   1772 ****       -20.0000 -17.7500 -24.2500 Du        
   1773 ****       -20.0000 -17.7500 -24.0000 Du        
   1774 ****       -20.0000 -17.7500 -23.7500 Du        
   1775 ****       -20.0000 -17.7500 -23.5000 Du        
   1776 ****       -20.0000 -17.7500 -23.2500 Du        
   1777 ****       -20.0000 -17.7500 -23.0000 Du        
   1778 ****       -20.0000 -17.7500 -22.7500 Du        
   1779 ****       -20.0000 -17.7500  -8.0000 Du        
   1780 ****       -20.0000 -17.7500  -7.5000 Du        
   1781 ****       -20.0000 -17.7500  -7.2500 Du        
   1782 ****       -20.0000 -17.7500  -7.0000 Du        
   1783 ****       -20.0000 -17.5000 -24.5000 Du        
   1784 ****       -20.0000 -17.5000 -24.2500 Du        
   1785 ****       -20.0000 -17.5000 -24.0000 Du        
   1786 ****       -20.0000 -17.5000 -23.7500 Du        
   1787 ****       -20.0000 -17.5000 -23.5000 Du        
   1788 ****       -20.0000 -17.5000 -23.2500 Du        
   1789 ****       -20.0000 -17.5000 -23.0000 Du        
   1790 ****       -20.0000 -17.5000 -22.7500 Du        
   1791 ****       -20.0000 -17.2500 -24.7500 Du        
   1792 ****       -20.0000 -17.2500 -24.5000 Du        
   1793 ****       -20.0000 -17.2500 -24.2500 Du        
   1794 ****       -20.0000 -17.2500 -24.0000 Du        
   1795 ****       -20.0000 -17.2500 -23.7500 Du        
   1796 ****       -20.0000 -17.2500 -23.5000 Du        
   1797 ****       -20.0000 -17.2500 -23.2500 Du        
   1798 ****       -20.0000 -17.2500 -23.0000 Du        
   1799 ****       -20.0000 -17.2500  -7.0000 Du        
   1800 ****       -20.0000 -17.2500  -2.0000 Du        
   1801 ****       -20.0000 -17.2500  -1.7500 Du        
   1802 ****       -20.0000 -17.2500  -1.5000 Du        
   1803 ****       -20.0000 -17.2500  -1.2500 Du        
   1804 ****       -20.0000 -17.0000 -24.5000 Du        
   1805 ****       -20.0000 -17.0000 -24.2500 Du        
   1806 ****       -20.0000 -17.0000 -24.0000 Du        
   1807 ****       -20.0000 -17.0000 -23.7500 Du        
   1808 ****       -20.0000 -17.0000 -23.5000 Du        
   1809 ****       -20.0000 -17.0000 -23.2500 Du        
   1810 ****       -20.0000 -17.0000 -23.0000 Du        
   1811 ****       -20.0000 -17.0000  -7.2500 Du        
   1812 ****       -20.0000 -17.0000  -6.7500 Du        
   1813 ****       -20.0000 -17.0000  -4.2500 Du        
   1814 ****       -20.0000 -17.0000  -4.0000 Du        
   1815 ****       -20.0000 -17.0000  -3.2500 Du        
   1816 ****       -20.0000 -17.0000  -3.0000 Du        
   1817 ****       -20.0000 -17.0000  -2.7500 Du        
   1818 ****       -20.0000 -17.0000  -2.5000 Du        
   1819 ****       -20.0000 -17.0000  -2.2500 Du        
   1820 ****       -20.0000 -17.0000  -2.0000 Du        
   1821 ****       -20.0000 -17.0000  -1.7500 Du        
   1822 ****       -20.0000 -17.0000  -1.5000 Du        
   1823 ****       -20.0000 -17.0000  -1.2500 Du        
   1824 ****       -20.0000 -17.0000  -1.0000 Du        
   1825 ****       -20.0000 -17.0000  -0.7500 Du        
   1826 ****       -20.0000 -17.0000  -0.5000 Du        
   1827 ****       -20.0000 -17.0000  -0.2500 Du        
   1828 ****       -20.0000 -17.0000   0.0000 Du        
   1829 ****       -20.0000 -17.0000   0.2500 Du        
   1830 ****       -20.0000 -17.0000   0.5000 Du        
   1831 ****       -20.0000 -17.0000   0.7500 Du        
   1832 ****       -20.0000 -17.0000   1.0000 Du        
   1833 ****       -20.0000 -17.0000   1.2500 Du        
   1834 ****       -20.0000 -17.0000   1.5000 Du        
   1835 ****       -20.0000 -17.0000   1.7500 Du        
   1836 ****       -20.0000 -17.0000   2.0000 Du        
   1837 ****       -20.0000 -16.7500 -24.2500 Du        
   1838 ****       -20.0000 -16.7500 -24.0000 Du        
   1839 ****       -20.0000 -16.7500 -23.7500 Du        
   1840 ****       -20.0000 -16.7500 -23.5000 Du        
   1841 ****       -20.0000 -16.7500 -23.2500 Du        
   1842 ****       -20.0000 -16.7500 -23.0000 Du        
   1843 ****       -20.0000 -16.7500  -5.2500 Du        
   1844 ****       -20.0000 -16.7500  -5.0000 Du        
   1845 ****       -20.0000 -16.7500  -4.7500 Du        
   1846 ****       -20.0000 -16.7500  -4.5000 Du        
   1847 ****       -20.0000 -16.7500  -4.2500 Du        
   1848 ****       -20.0000 -16.7500  -4.0000 Du        
   1849 ****       -20.0000 -16.7500  -3.7500 Du        
   1850 ****       -20.0000 -16.7500  -3.5000 Du        
   1851 ****       -20.0000 -16.7500  -3.2500 Du        
   1852 ****       -20.0000 -16.7500  -3.0000 Du        
   1853 ****       -20.0000 -16.7500  -2.7500 Du        
   1854 ****       -20.0000 -16.7500  -2.5000 Du        
   1855 ****       -20.0000 -16.7500  -2.2500 Du        
   1856 ****       -20.0000 -16.7500  -2.0000 Du        
   1857 ****       -20.0000 -16.7500  -1.7500 Du        
   1858 ****       -20.0000 -16.7500  -1.5000 Du        
   1859 ****       -20.0000 -16.7500  -1.2500 Du        
   1860 ****       -20.0000 -16.7500  -1.0000 Du        
   1861 ****       -20.0000 -16.7500  -0.7500 Du        
   1862 ****       -20.0000 -16.7500  -0.5000 Du        
   1863 ****       -20.0000 -16.7500  -0.2500 Du        
   1864 ****       -20.0000 -16.7500   0.0000 Du        
   1865 ****       -20.0000 -16.7500   0.2500 Du        
   1866 ****       -20.0000 -16.7500   0.5000 Du        
   1867 ****       -20.0000 -16.7500   0.7500 Du        
   1868 ****       -20.0000 -16.7500   1.0000 Du        
   1869 ****       -20.0000 -16.7500   1.2500 Du        
   1870 ****       -20.0000 -16.7500   1.5000 Du        
   1871 ****       -20.0000 -16.7500   1.7500 Du        
   1872 ****       -20.0000 -16.7500   2.0000 Du        
   1873 ****       -20.0000 -16.5000 -24.0000 Du        
   1874 ****       -20.0000 -16.5000 -23.7500 Du        
   1875 ****       -20.0000 -16.5000 -23.5000 Du        
   1876 ****       -20.0000 -16.5000 -23.2500 Du        
   1877 ****       -20.0000 -16.5000  -5.2500 Du        
   1878 ****       -20.0000 -16.5000  -5.0000 Du        
   1879 ****       -20.0000 -16.5000  -4.7500 Du        
   1880 ****       -20.0000 -16.5000  -4.5000 Du        
   1881 ****       -20.0000 -16.5000  -4.2500 Du        
   1882 ****       -20.0000 -16.5000  -4.0000 Du        
   1883 ****       -20.0000 -16.5000  -3.7500 Du        
   1884 ****       -20.0000 -16.5000  -3.5000 Du        
   1885 ****       -20.0000 -16.5000  -3.2500 Du        
   1886 ****       -20.0000 -16.5000  -3.0000 Du        
   1887 ****       -20.0000 -16.5000  -2.7500 Du        
   1888 ****       -20.0000 -16.5000  -2.5000 Du        
   1889 ****       -20.0000 -16.5000  -2.2500 Du        
   1890 ****       -20.0000 -16.5000  -2.0000 Du        
   1891 ****       -20.0000 -16.5000  -1.7500 Du        
   1892 ****       -20.0000 -16.5000  -1.5000 Du        
   1893 ****       -20.0000 -16.5000  -1.2500 Du        
   1894 ****       -20.0000 -16.5000  -1.0000 Du        
   1895 ****       -20.0000 -16.5000  -0.7500 Du        
   1896 ****       -20.0000 -16.5000  -0.5000 Du        
   1897 ****       -20.0000 -16.5000  -0.2500 Du        
   1898 ****       -20.0000 -16.5000   0.0000 Du        
   1899 ****       -20.0000 -16.5000   0.2500 Du        
   1900 ****       -20.0000 -16.5000   0.5000 Du        
   1901 ****       -20.0000 -16.5000   0.7500 Du        
   1902 ****       -20.0000 -16.5000   1.0000 Du        
   1903 ****       -20.0000 -16.5000   1.2500 Du        
   1904 ****       -20.0000 -16.5000   1.5000 Du        
   1905 ****       -20.0000 -16.5000   1.7500 Du        
   1906 ****       -20.0000 -16.5000   2.0000 Du        
   1907 ****       -20.0000 -16.2500 -29.2500 Du        
   1908 ****       -20.0000 -16.2500 -23.7500 Du        
   1909 ****       -20.0000 -16.2500 -23.5000 Du        
   1910 ****       -20.0000 -16.2500 -23.2500 Du        
   1911 ****       -20.0000 -16.2500  -5.5000 Du        
   1912 ****       -20.0000 -16.2500  -5.2500 Du        
   1913 ****       -20.0000 -16.2500  -5.0000 Du        
   1914 ****       -20.0000 -16.2500  -4.7500 Du        
   1915 ****       -20.0000 -16.2500  -4.5000 Du        
   1916 ****       -20.0000 -16.2500  -4.2500 Du        
   1917 ****       -20.0000 -16.2500  -4.0000 Du        
   1918 ****       -20.0000 -16.2500  -3.7500 Du        
   1919 ****       -20.0000 -16.2500  -3.5000 Du        
   1920 ****       -20.0000 -16.2500  -3.2500 Du        
   1921 ****       -20.0000 -16.2500  -3.0000 Du        
   1922 ****       -20.0000 -16.2500  -2.7500 Du        
   1923 ****       -20.0000 -16.2500  -2.5000 Du        
   1924 ****       -20.0000 -16.2500  -2.2500 Du        
   1925 ****       -20.0000 -16.2500  -2.0000 Du        
   1926 ****       -20.0000 -16.2500  -1.7500 Du        
   1927 ****       -20.0000 -16.2500  -1.5000 Du        
   1928 ****       -20.0000 -16.2500  -1.2500 Du        
   1929 ****       -20.0000 -16.2500  -1.0000 Du        
   1930 ****       -20.0000 -16.2500  -0.7500 Du        
   1931 ****       -20.0000 -16.2500  -0.5000 Du        
   1932 ****       -20.0000 -16.2500  -0.2500 Du        
   1933 ****       -20.0000 -16.2500   0.0000 Du        
   1934 ****       -20.0000 -16.2500   0.2500 Du        
   1935 ****       -20.0000 -16.2500   0.5000 Du        
   1936 ****       -20.0000 -16.2500   0.7500 Du        
   1937 ****       -20.0000 -16.2500   1.0000 Du        
   1938 ****       -20.0000 -16.2500   1.2500 Du        
   1939 ****       -20.0000 -16.2500   1.5000 Du        
   1940 ****       -20.0000 -16.2500   1.7500 Du        
   1941 ****       -20.0000 -16.2500   2.0000 Du        
   1942 ****       -20.0000 -16.0000 -29.2500 Du        
   1943 ****       -20.0000 -16.0000 -29.0000 Du        
   1944 ****       -20.0000 -16.0000  -5.2500 Du        
   1945 ****       -20.0000 -16.0000  -5.0000 Du        
   1946 ****       -20.0000 -16.0000  -4.7500 Du        
   1947 ****       -20.0000 -16.0000  -4.5000 Du        
   1948 ****       -20.0000 -16.0000  -4.2500 Du        
   1949 ****       -20.0000 -16.0000  -4.0000 Du        
   1950 ****       -20.0000 -16.0000  -3.7500 Du        
   1951 ****       -20.0000 -16.0000  -3.5000 Du        
   1952 ****       -20.0000 -16.0000  -3.2500 Du        
   1953 ****       -20.0000 -16.0000  -3.0000 Du        
   1954 ****       -20.0000 -16.0000  -2.7500 Du        
   1955 ****       -20.0000 -16.0000  -2.5000 Du        
   1956 ****       -20.0000 -16.0000  -2.2500 Du        
   1957 ****       -20.0000 -16.0000  -2.0000 Du        
   1958 ****       -20.0000 -16.0000  -1.7500 Du        
   1959 ****       -20.0000 -16.0000  -1.5000 Du        
   1960 ****       -20.0000 -16.0000  -1.2500 Du        
   1961 ****       -20.0000 -15.7500 -29.2500 Du        
   1962 ****       -20.0000 -15.7500  -5.0000 Du        
   1963 ****       -20.0000 -15.7500  -4.7500 Du        
   1964 ****       -20.0000 -15.7500  -4.5000 Du        
   1965 ****       -20.0000 -15.7500  -4.2500 Du        
   1966 ****       -20.0000 -15.7500  -3.7500 Du        
   1967 ****       -20.0000 -15.7500  -3.5000 Du        
   1968 ****       -20.0000 -15.7500  -3.2500 Du        
   1969 ****       -20.0000 -15.7500  -3.0000 Du        
   1970 ****       -20.0000 -15.7500  -2.2500 Du        
   1971 ****       -20.0000 -15.7500  -2.0000 Du        
   1972 ****       -20.0000 -15.7500  -1.7500 Du        
   1973 ****       -20.0000 -13.7500 -15.2500 Du        
   1974 ****       -20.0000 -13.7500 -15.0000 Du        
   1975 ****       -20.0000 -13.7500 -14.7500 Du        
   1976 ****       -20.0000 -13.5000 -15.7500 Du        
   1977 ****       -20.0000 -13.5000 -15.5000 Du        
   1978 ****       -20.0000 -13.5000 -15.2500 Du        
   1979 ****       -20.0000 -13.5000 -15.0000 Du        
   1980 ****       -20.0000 -13.5000 -14.7500 Du        
   1981 ****       -20.0000 -13.2500 -16.0000 Du        
   1982 ****       -20.0000 -13.2500 -15.7500 Du        
   1983 ****       -20.0000 -13.2500 -15.5000 Du        
   1984 ****       -20.0000 -13.2500 -15.2500 Du        
   1985 ****       -20.0000 -13.2500 -15.0000 Du        
   1986 ****       -20.0000 -13.2500 -14.7500 Du        
   1987 ****       -20.0000 -13.2500 -14.5000 Du        
   1988 ****       -20.0000 -13.2500 -14.2500 Du        
   1989 ****       -20.0000 -13.0000 -16.0000 Du        
   1990 ****       -20.0000 -13.0000 -15.7500 Du        
   1991 ****       -20.0000 -13.0000 -15.5000 Du        
   1992 ****       -20.0000 -13.0000 -15.2500 Du        
   1993 ****       -20.0000 -13.0000 -15.0000 Du        
   1994 ****       -20.0000 -13.0000 -14.7500 Du        
   1995 ****       -20.0000 -13.0000 -14.5000 Du        
   1996 ****       -20.0000 -13.0000 -14.2500 Du        
   1997 ****       -20.0000 -13.0000 -14.0000 Du        
   1998 ****       -20.0000 -12.7500 -16.0000 Du        
   1999 ****       -20.0000 -12.7500 -15.7500 Du        
   2000 ****       -20.0000 -12.7500 -15.5000 Du        
   2001 ****       -20.0000 -12.7500 -15.2500 Du        
   2002 ****       -20.0000 -12.7500 -15.0000 Du        
   2003 ****       -20.0000 -12.7500 -14.7500 Du        
   2004 ****       -20.0000 -12.7500 -14.5000 Du        
   2005 ****       -20.0000 -12.7500 -14.2500 Du        
   2006 ****       -20.0000 -12.7500 -14.0000 Du        
   2007 ****       -20.0000 -12.5000 -15.7500 Du        
   2008 ****       -20.0000 -12.5000 -15.5000 Du        
   2009 ****       -20.0000 -12.5000 -15.2500 Du        
   2010 ****       -20.0000 -12.5000 -15.0000 Du        
   2011 ****       -20.0000 -12.5000 -14.7500 Du        
   2012 ****       -20.0000 -12.5000 -14.5000 Du        
   2013 ****       -20.0000 -12.5000 -14.2500 Du        
   2014 ****       -20.0000 -12.5000 -14.0000 Du        
   2015 ****       -20.0000 -12.2500 -16.0000 Du        
   2016 ****       -20.0000 -12.2500 -15.7500 Du        
   2017 ****       -20.0000 -12.2500 -15.5000 Du        
   2018 ****       -20.0000 -12.2500 -15.2500 Du        
   2019 ****       -20.0000 -12.2500 -15.0000 Du        
   2020 ****       -20.0000 -12.2500 -14.7500 Du        
   2021 ****       -20.0000 -12.2500 -14.5000 Du        
   2022 ****       -20.0000 -12.2500 -14.2500 Du        
   2023 ****       -20.0000 -12.2500 -14.0000 Du        
   2024 ****       -20.0000 -12.2500 -13.7500 Du        
   2025 ****       -20.0000 -12.0000 -16.0000 Du        
   2026 ****       -20.0000 -12.0000 -15.7500 Du        
   2027 ****       -20.0000 -12.0000 -15.5000 Du        
   2028 ****       -20.0000 -12.0000 -15.2500 Du        
   2029 ****       -20.0000 -12.0000 -15.0000 Du        
   2030 ****       -20.0000 -12.0000 -14.7500 Du        
   2031 ****       -20.0000 -12.0000 -14.5000 Du        
   2032 ****       -20.0000 -12.0000 -14.2500 Du        
   2033 ****       -20.0000 -12.0000 -14.0000 Du        
   2034 ****       -20.0000 -12.0000 -13.7500 Du        
   2035 ****       -20.0000 -11.7500 -16.0000 Du        
   2036 ****       -20.0000 -11.7500 -15.7500 Du        
   2037 ****       -20.0000 -11.7500 -15.5000 Du        
   2038 ****       -20.0000 -11.7500 -15.2500 Du        
   2039 ****       -20.0000 -11.7500 -15.0000 Du        
   2040 ****       -20.0000 -11.7500 -14.7500 Du        
   2041 ****       -20.0000 -11.7500 -14.5000 Du        
   2042 ****       -20.0000 -11.7500 -14.2500 Du        
   2043 ****       -20.0000 -11.7500 -14.0000 Du        
   2044 ****       -20.0000 -11.7500 -13.7500 Du        
   2045 ****       -20.0000 -11.5000 -15.5000 Du        
   2046 ****       -20.0000 -11.5000 -15.2500 Du        
   2047 ****       -20.0000 -11.5000 -15.0000 Du        
   2048 ****       -20.0000 -11.5000 -14.7500 Du        
   2049 ****       -20.0000  -8.7500 -28.0000 Du        
   2050 ****       -20.0000  -8.7500 -27.7500 Du        
   2051 ****       -20.0000  -8.5000 -28.0000 Du        
   2052 ****       -20.0000  -8.5000 -27.7500 Du        
   2053 ****       -20.0000  -8.2500 -28.2500 Du        
   2054 ****       -20.0000  -8.2500 -28.0000 Du        
   2055 ****       -20.0000  -8.2500 -27.7500 Du        
   2056 ****       -20.0000  -8.0000 -28.5000 Du        
   2057 ****       -20.0000  -8.0000 -28.2500 Du        
   2058 ****       -20.0000  -8.0000 -28.0000 Du        
   2059 ****       -20.0000  -8.0000 -27.7500 Du        
   2060 ****       -20.0000  -7.7500 -28.7500 Du        
   2061 ****       -20.0000  -7.7500 -28.5000 Du        
   2062 ****       -20.0000  -7.7500 -28.2500 Du        
   2063 ****       -20.0000  -7.7500 -28.0000 Du        
   2064 ****       -20.0000  -7.7500 -27.7500 Du        
   2065 ****       -20.0000  -7.5000 -28.7500 Du        
   2066 ****       -20.0000  -7.5000 -28.2500 Du        
   2067 ****       -20.0000  -7.5000 -28.0000 Du        
   2068 ****       -20.0000  -7.2500 -28.2500 Du        
   2069 ****       -19.7500 -18.5000 -23.7500 Du        
   2070 ****       -19.7500 -18.5000 -23.5000 Du        
   2071 ****       -19.7500 -18.5000 -23.2500 Du        
   2072 ****       -19.7500 -18.5000 -23.0000 Du        
   2073 ****       -19.7500 -18.5000  -8.0000 Du        
   2074 ****       -19.7500 -18.5000  -7.7500 Du        
   2075 ****       -19.7500 -18.2500 -24.2500 Du        
   2076 ****       -19.7500 -18.2500 -24.0000 Du        
   2077 ****       -19.7500 -18.2500 -23.7500 Du        
   2078 ****       -19.7500 -18.2500 -23.5000 Du        
   2079 ****       -19.7500 -18.2500 -23.2500 Du        
   2080 ****       -19.7500 -18.2500 -23.0000 Du        
   2081 ****       -19.7500 -18.2500 -22.7500 Du        
   2082 ****       -19.7500 -18.2500  -8.2500 Du        
   2083 ****       -19.7500 -18.2500  -8.0000 Du        
   2084 ****       -19.7500 -18.2500  -7.7500 Du        
   2085 ****       -19.7500 -18.2500  -7.5000 Du        
   2086 ****       -19.7500 -18.0000 -24.7500 Du        
   2087 ****       -19.7500 -18.0000 -24.5000 Du        
   2088 ****       -19.7500 -18.0000 -24.2500 Du        
   2089 ****       -19.7500 -18.0000 -24.0000 Du        
   2090 ****       -19.7500 -18.0000 -23.7500 Du        
   2091 ****       -19.7500 -18.0000 -23.5000 Du        
   2092 ****       -19.7500 -18.0000 -23.2500 Du        
   2093 ****       -19.7500 -18.0000 -23.0000 Du        
   2094 ****       -19.7500 -18.0000 -22.7500 Du        
   2095 ****       -19.7500 -18.0000  -8.2500 Du        
   2096 ****       -19.7500 -18.0000  -8.0000 Du        
   2097 ****       -19.7500 -18.0000  -7.7500 Du        
   2098 ****       -19.7500 -18.0000  -7.5000 Du        
   2099 ****       -19.7500 -18.0000  -7.2500 Du        
   2100 ****       -19.7500 -17.7500 -25.5000 Du        
   2101 ****       -19.7500 -17.7500 -25.2500 Du        
   2102 ****       -19.7500 -17.7500 -25.0000 Du        
   2103 ****       -19.7500 -17.7500 -24.7500 Du        
   2104 ****       -19.7500 -17.7500 -24.5000 Du        
   2105 ****       -19.7500 -17.7500 -24.2500 Du        
   2106 ****       -19.7500 -17.7500 -24.0000 Du        
   2107 ****       -19.7500 -17.7500 -23.7500 Du        
   2108 ****       -19.7500 -17.7500 -23.5000 Du        
   2109 ****       -19.7500 -17.7500 -23.2500 Du        
   2110 ****       -19.7500 -17.7500 -23.0000 Du        
   2111 ****       -19.7500 -17.7500 -22.7500 Du        
   2112 ****       -19.7500 -17.7500  -7.7500 Du        
   2113 ****       -19.7500 -17.7500  -7.5000 Du        
   2114 ****       -19.7500 -17.7500  -7.2500 Du        
   2115 ****       -19.7500 -17.5000 -26.0000 Du        
   2116 ****       -19.7500 -17.5000 -25.7500 Du        
   2117 ****       -19.7500 -17.5000 -25.5000 Du        
   2118 ****       -19.7500 -17.5000 -25.2500 Du        
   2119 ****       -19.7500 -17.5000 -25.0000 Du        
   2120 ****       -19.7500 -17.5000 -24.7500 Du        
   2121 ****       -19.7500 -17.5000 -24.5000 Du        
   2122 ****       -19.7500 -17.5000 -24.2500 Du        
   2123 ****       -19.7500 -17.5000 -24.0000 Du        
   2124 ****       -19.7500 -17.5000 -23.7500 Du        
   2125 ****       -19.7500 -17.5000 -23.5000 Du        
   2126 ****       -19.7500 -17.5000 -23.2500 Du        
   2127 ****       -19.7500 -17.5000 -23.0000 Du        
   2128 ****       -19.7500 -17.5000  -7.2500 Du        
   2129 ****       -19.7500 -17.5000  -7.0000 Du        
   2130 ****       -19.7500 -17.2500 -26.2500 Du        
   2131 ****       -19.7500 -17.2500 -26.0000 Du        
   2132 ****       -19.7500 -17.2500 -25.7500 Du        
   2133 ****       -19.7500 -17.2500 -25.5000 Du        
   2134 ****       -19.7500 -17.2500 -25.2500 Du        
   2135 ****       -19.7500 -17.2500 -25.0000 Du        
   2136 ****       -19.7500 -17.2500 -24.7500 Du        
   2137 ****       -19.7500 -17.2500 -24.5000 Du        
   2138 ****       -19.7500 -17.2500 -24.2500 Du        
   2139 ****       -19.7500 -17.2500 -24.0000 Du        
   2140 ****       -19.7500 -17.2500 -23.7500 Du        
   2141 ****       -19.7500 -17.2500 -23.5000 Du        
   2142 ****       -19.7500 -17.2500 -23.2500 Du        
   2143 ****       -19.7500 -17.2500 -23.0000 Du        
   2144 ****       -19.7500 -17.2500  -7.5000 Du        
   2145 ****       -19.7500 -17.2500  -7.2500 Du        
   2146 ****       -19.7500 -17.2500  -7.0000 Du        
   2147 ****       -19.7500 -17.2500  -6.7500 Du        
   2148 ****       -19.7500 -17.0000 -26.2500 Du        
   2149 ****       -19.7500 -17.0000 -26.0000 Du        
   2150 ****       -19.7500 -17.0000 -25.7500 Du        
   2151 ****       -19.7500 -17.0000 -25.5000 Du        
   2152 ****       -19.7500 -17.0000 -25.2500 Du        
   2153 ****       -19.7500 -17.0000 -25.0000 Du        
   2154 ****       -19.7500 -17.0000 -24.7500 Du        
   2155 ****       -19.7500 -17.0000 -24.5000 Du        
   2156 ****       -19.7500 -17.0000 -24.2500 Du        
   2157 ****       -19.7500 -17.0000 -24.0000 Du        
   2158 ****       -19.7500 -17.0000 -23.7500 Du        
   2159 ****       -19.7500 -17.0000 -23.5000 Du        
   2160 ****       -19.7500 -17.0000 -23.2500 Du        
   2161 ****       -19.7500 -17.0000 -23.0000 Du        
   2162 ****       -19.7500 -17.0000  -7.5000 Du        
   2163 ****       -19.7500 -17.0000  -7.2500 Du        
   2164 ****       -19.7500 -17.0000  -7.0000 Du        
   2165 ****       -19.7500 -17.0000  -6.7500 Du        
   2166 ****       -19.7500 -17.0000  -6.2500 Du        
   2167 ****       -19.7500 -17.0000  -6.0000 Du        
   2168 ****       -19.7500 -17.0000  -5.2500 Du        
   2169 ****       -19.7500 -17.0000  -2.7500 Du        
   2170 ****       -19.7500 -17.0000  -2.5000 Du        
   2171 ****       -19.7500 -17.0000  -2.2500 Du        
   2172 ****       -19.7500 -17.0000  -2.0000 Du        
   2173 ****       -19.7500 -17.0000  -1.7500 Du        
   2174 ****       -19.7500 -17.0000  -1.5000 Du        
   2175 ****       -19.7500 -17.0000  -1.2500 Du        
   2176 ****       -19.7500 -17.0000  -1.0000 Du        
   2177 ****       -19.7500 -17.0000  -0.7500 Du        
   2178 ****       -19.7500 -17.0000   1.7500 Du        
   2179 ****       -19.7500 -17.0000   2.0000 Du        
   2180 ****       -19.7500 -16.7500 -24.7500 Du        
   2181 ****       -19.7500 -16.7500 -24.5000 Du        
   2182 ****       -19.7500 -16.7500 -24.2500 Du        
   2183 ****       -19.7500 -16.7500 -24.0000 Du        
   2184 ****       -19.7500 -16.7500 -23.7500 Du        
   2185 ****       -19.7500 -16.7500 -23.5000 Du        
   2186 ****       -19.7500 -16.7500 -23.2500 Du        
   2187 ****       -19.7500 -16.7500  -6.7500 Du        
   2188 ****       -19.7500 -16.7500  -6.2500 Du        
   2189 ****       -19.7500 -16.7500  -5.5000 Du        
   2190 ****       -19.7500 -16.7500  -5.2500 Du        
   2191 ****       -19.7500 -16.7500  -5.0000 Du        
   2192 ****       -19.7500 -16.7500  -4.7500 Du        
   2193 ****       -19.7500 -16.7500  -4.5000 Du        
   2194 ****       -19.7500 -16.7500  -4.2500 Du        
   2195 ****       -19.7500 -16.7500  -4.0000 Du        
   2196 ****       -19.7500 -16.7500  -3.7500 Du        
   2197 ****       -19.7500 -16.7500  -3.5000 Du        
   2198 ****       -19.7500 -16.7500  -3.2500 Du        
   2199 ****       -19.7500 -16.7500  -3.0000 Du        
   2200 ****       -19.7500 -16.7500  -2.7500 Du        
   2201 ****       -19.7500 -16.7500  -2.5000 Du        
   2202 ****       -19.7500 -16.7500  -2.2500 Du        
   2203 ****       -19.7500 -16.7500  -2.0000 Du        
   2204 ****       -19.7500 -16.7500  -1.7500 Du        
   2205 ****       -19.7500 -16.7500  -1.5000 Du        
   2206 ****       -19.7500 -16.7500  -1.2500 Du        
   2207 ****       -19.7500 -16.7500  -1.0000 Du        
   2208 ****       -19.7500 -16.7500  -0.7500 Du        
   2209 ****       -19.7500 -16.7500  -0.5000 Du        
   2210 ****       -19.7500 -16.7500  -0.2500 Du        
   2211 ****       -19.7500 -16.7500   0.0000 Du        
   2212 ****       -19.7500 -16.7500   0.2500 Du        
   2213 ****       -19.7500 -16.7500   0.5000 Du        
   2214 ****       -19.7500 -16.7500   0.7500 Du        
   2215 ****       -19.7500 -16.7500   1.0000 Du        
   2216 ****       -19.7500 -16.7500   1.2500 Du        
   2217 ****       -19.7500 -16.7500   1.5000 Du        
   2218 ****       -19.7500 -16.7500   1.7500 Du        
   2219 ****       -19.7500 -16.7500   2.0000 Du        
   2220 ****       -19.7500 -16.5000 -24.2500 Du        
   2221 ****       -19.7500 -16.5000 -24.0000 Du        
   2222 ****       -19.7500 -16.5000 -23.7500 Du        
   2223 ****       -19.7500 -16.5000 -23.5000 Du        
   2224 ****       -19.7500 -16.5000  -5.5000 Du        
   2225 ****       -19.7500 -16.5000  -5.2500 Du        
   2226 ****       -19.7500 -16.5000  -5.0000 Du        
   2227 ****       -19.7500 -16.5000  -4.7500 Du        
   2228 ****       -19.7500 -16.5000  -4.5000 Du        
   2229 ****       -19.7500 -16.5000  -4.2500 Du        
   2230 ****       -19.7500 -16.5000  -4.0000 Du        
   2231 ****       -19.7500 -16.5000  -3.7500 Du        
   2232 ****       -19.7500 -16.5000  -3.5000 Du        
   2233 ****       -19.7500 -16.5000  -3.2500 Du        
   2234 ****       -19.7500 -16.5000  -3.0000 Du        
   2235 ****       -19.7500 -16.5000  -2.7500 Du        
   2236 ****       -19.7500 -16.5000  -2.5000 Du        
   2237 ****       -19.7500 -16.5000  -2.2500 Du        
   2238 ****       -19.7500 -16.5000  -2.0000 Du        
   2239 ****       -19.7500 -16.5000  -1.7500 Du        
   2240 ****       -19.7500 -16.5000  -1.5000 Du        
   2241 ****       -19.7500 -16.5000  -1.2500 Du        
   2242 ****       -19.7500 -16.5000  -1.0000 Du        
   2243 ****       -19.7500 -16.5000  -0.7500 Du        
   2244 ****       -19.7500 -16.5000  -0.5000 Du        
   2245 ****       -19.7500 -16.5000  -0.2500 Du        
   2246 ****       -19.7500 -16.5000   0.0000 Du        
   2247 ****       -19.7500 -16.5000   0.2500 Du        
   2248 ****       -19.7500 -16.5000   0.5000 Du        
   2249 ****       -19.7500 -16.5000   0.7500 Du        
   2250 ****       -19.7500 -16.5000   1.0000 Du        
   2251 ****       -19.7500 -16.5000   1.2500 Du        
   2252 ****       -19.7500 -16.5000   1.5000 Du        
   2253 ****       -19.7500 -16.5000   1.7500 Du        
   2254 ****       -19.7500 -16.5000   2.0000 Du        
   2255 ****       -19.7500 -16.2500 -24.0000 Du        
   2256 ****       -19.7500 -16.2500 -23.7500 Du        
   2257 ****       -19.7500 -16.2500 -23.5000 Du        
   2258 ****       -19.7500 -16.2500  -5.5000 Du        
   2259 ****       -19.7500 -16.2500  -5.2500 Du        
   2260 ****       -19.7500 -16.2500  -5.0000 Du        
   2261 ****       -19.7500 -16.2500  -4.7500 Du        
   2262 ****       -19.7500 -16.2500  -4.5000 Du        
   2263 ****       -19.7500 -16.2500  -4.2500 Du        
   2264 ****       -19.7500 -16.2500  -4.0000 Du        
   2265 ****       -19.7500 -16.2500  -3.7500 Du        
   2266 ****       -19.7500 -16.2500  -3.5000 Du        
   2267 ****       -19.7500 -16.2500  -2.0000 Du        
   2268 ****       -19.7500 -16.2500  -1.7500 Du        
   2269 ****       -19.7500 -16.2500  -1.5000 Du        
   2270 ****       -19.7500 -16.2500  -1.2500 Du        
   2271 ****       -19.7500 -16.2500  -1.0000 Du        
   2272 ****       -19.7500 -16.2500  -0.7500 Du        
   2273 ****       -19.7500 -16.2500  -0.5000 Du        
   2274 ****       -19.7500 -16.2500  -0.2500 Du        
   2275 ****       -19.7500 -16.2500   0.0000 Du        
   2276 ****       -19.7500 -16.2500   0.2500 Du        
   2277 ****       -19.7500 -16.2500   0.5000 Du        
   2278 ****       -19.7500 -16.2500   0.7500 Du        
   2279 ****       -19.7500 -16.2500   1.0000 Du        
   2280 ****       -19.7500 -16.2500   1.2500 Du        
   2281 ****       -19.7500 -16.2500   1.5000 Du        
   2282 ****       -19.7500 -16.2500   1.7500 Du        
   2283 ****       -19.7500 -16.2500   2.0000 Du        
   2284 ****       -19.7500 -16.0000 -23.5000 Du        
   2285 ****       -19.7500 -16.0000  -5.5000 Du        
   2286 ****       -19.7500 -16.0000  -5.2500 Du        
   2287 ****       -19.7500 -16.0000  -5.0000 Du        
   2288 ****       -19.7500 -16.0000  -4.7500 Du        
   2289 ****       -19.7500 -16.0000  -4.5000 Du        
   2290 ****       -19.7500 -16.0000  -4.2500 Du        
   2291 ****       -19.7500 -16.0000  -4.0000 Du        
   2292 ****       -19.7500 -16.0000  -1.7500 Du        
   2293 ****       -19.7500 -16.0000  -1.5000 Du        
   2294 ****       -19.7500 -16.0000  -1.2500 Du        
   2295 ****       -19.7500 -16.0000  -1.0000 Du        
   2296 ****       -19.7500 -16.0000  -0.7500 Du        
   2297 ****       -19.7500 -14.0000 -15.2500 Du        
   2298 ****       -19.7500 -14.0000 -15.0000 Du        
   2299 ****       -19.7500 -14.0000 -14.7500 Du        
   2300 ****       -19.7500 -13.7500 -15.5000 Du        
   2301 ****       -19.7500 -13.7500 -15.2500 Du        
   2302 ****       -19.7500 -13.7500 -15.0000 Du        
   2303 ****       -19.7500 -13.7500 -14.7500 Du        
   2304 ****       -19.7500 -13.5000 -16.0000 Du        
   2305 ****       -19.7500 -13.5000 -15.7500 Du        
   2306 ****       -19.7500 -13.5000 -15.5000 Du        
   2307 ****       -19.7500 -13.5000 -15.2500 Du        
   2308 ****       -19.7500 -13.5000 -15.0000 Du        
   2309 ****       -19.7500 -13.5000 -14.7500 Du        
   2310 ****       -19.7500 -13.5000 -14.5000 Du        
   2311 ****       -19.7500 -13.2500 -16.0000 Du        
   2312 ****       -19.7500 -13.2500 -15.7500 Du        
   2313 ****       -19.7500 -13.2500 -15.5000 Du        
   2314 ****       -19.7500 -13.2500 -15.2500 Du        
   2315 ****       -19.7500 -13.2500 -15.0000 Du        
   2316 ****       -19.7500 -13.2500 -14.7500 Du        
   2317 ****       -19.7500 -13.2500 -14.5000 Du        
   2318 ****       -19.7500 -13.0000 -16.0000 Du        
   2319 ****       -19.7500 -13.0000 -15.7500 Du        
   2320 ****       -19.7500 -13.0000 -15.5000 Du        
   2321 ****       -19.7500 -13.0000 -15.2500 Du        
   2322 ****       -19.7500 -13.0000 -15.0000 Du        
   2323 ****       -19.7500 -13.0000 -14.7500 Du        
   2324 ****       -19.7500 -13.0000 -14.5000 Du        
   2325 ****       -19.7500 -13.0000 -14.2500 Du        
   2326 ****       -19.7500 -12.7500 -16.0000 Du        
   2327 ****       -19.7500 -12.7500 -15.7500 Du        
   2328 ****       -19.7500 -12.7500 -15.5000 Du        
   2329 ****       -19.7500 -12.7500 -15.2500 Du        
   2330 ****       -19.7500 -12.7500 -15.0000 Du        
   2331 ****       -19.7500 -12.7500 -14.7500 Du        
   2332 ****       -19.7500 -12.7500 -14.5000 Du        
   2333 ****       -19.7500 -12.7500 -14.2500 Du        
   2334 ****       -19.7500 -12.7500 -14.0000 Du        
   2335 ****       -19.7500 -12.5000 -16.0000 Du        
   2336 ****       -19.7500 -12.5000 -15.7500 Du        
   2337 ****       -19.7500 -12.5000 -15.5000 Du        
   2338 ****       -19.7500 -12.5000 -15.2500 Du        
   2339 ****       -19.7500 -12.5000 -15.0000 Du        
   2340 ****       -19.7500 -12.5000 -14.7500 Du        
   2341 ****       -19.7500 -12.5000 -14.5000 Du        
   2342 ****       -19.7500 -12.5000 -14.2500 Du        
   2343 ****       -19.7500 -12.5000 -14.0000 Du        
   2344 ****       -19.7500 -12.2500 -16.0000 Du        
   2345 ****       -19.7500 -12.2500 -15.7500 Du        
   2346 ****       -19.7500 -12.2500 -15.5000 Du        
   2347 ****       -19.7500 -12.2500 -15.2500 Du        
   2348 ****       -19.7500 -12.2500 -15.0000 Du        
   2349 ****       -19.7500 -12.2500 -14.7500 Du        
   2350 ****       -19.7500 -12.2500 -14.5000 Du        
   2351 ****       -19.7500 -12.2500 -14.2500 Du        
   2352 ****       -19.7500 -12.2500 -14.0000 Du        
   2353 ****       -19.7500 -12.0000 -16.0000 Du        
   2354 ****       -19.7500 -12.0000 -15.7500 Du        
   2355 ****       -19.7500 -12.0000 -15.5000 Du        
   2356 ****       -19.7500 -12.0000 -15.2500 Du        
   2357 ****       -19.7500 -12.0000 -15.0000 Du        
   2358 ****       -19.7500 -12.0000 -14.7500 Du        
   2359 ****       -19.7500 -12.0000 -14.5000 Du        
   2360 ****       -19.7500 -12.0000 -14.2500 Du        
   2361 ****       -19.7500 -12.0000 -14.0000 Du        
   2362 ****       -19.7500 -12.0000 -13.7500 Du        
   2363 ****       -19.7500 -11.7500 -16.0000 Du        
   2364 ****       -19.7500 -11.7500 -15.7500 Du        
   2365 ****       -19.7500 -11.7500 -15.5000 Du        
   2366 ****       -19.7500 -11.7500 -15.2500 Du        
   2367 ****       -19.7500 -11.7500 -15.0000 Du        
   2368 ****       -19.7500 -11.7500 -14.7500 Du        
   2369 ****       -19.7500 -11.7500 -14.5000 Du        
   2370 ****       -19.7500 -11.7500 -14.2500 Du        
   2371 ****       -19.7500 -11.7500 -14.0000 Du        
   2372 ****       -19.7500 -11.7500 -13.7500 Du        
   2373 ****       -19.7500 -10.2500  -9.2500 Du        
   2374 ****       -19.7500 -10.2500  -9.0000 Du        
   2375 ****       -19.7500 -10.0000  -9.2500 Du        
   2376 ****       -19.7500 -10.0000  -9.0000 Du        
   2377 ****       -19.7500 -10.0000  -8.7500 Du        
   2378 ****       -19.7500  -9.7500  -9.2500 Du        
   2379 ****       -19.7500  -9.7500  -9.0000 Du        
   2380 ****       -19.7500  -9.7500  -8.7500 Du        
   2381 ****       -19.7500  -9.2500  -9.0000 Du        
   2382 ****       -19.7500  -9.2500  -8.5000 Du        
   2383 ****       -19.7500  -9.2500  -8.2500 Du        
   2384 ****       -19.7500  -9.0000  -9.0000 Du        
   2385 ****       -19.7500  -9.0000  -8.5000 Du        
   2386 ****       -19.7500  -9.0000  -8.2500 Du        
   2387 ****       -19.7500  -9.0000  -8.0000 Du        
   2388 ****       -19.7500  -8.7500 -27.7500 Du        
   2389 ****       -19.7500  -8.7500  -8.0000 Du        
   2390 ****       -19.7500  -8.5000 -27.7500 Du        
   2391 ****       -19.7500  -8.2500 -28.2500 Du        
   2392 ****       -19.7500  -8.2500 -28.0000 Du        
   2393 ****       -19.7500  -8.2500 -27.7500 Du        
   2394 ****       -19.7500  -8.0000 -28.2500 Du        
   2395 ****       -19.7500  -8.0000 -28.0000 Du        
   2396 ****       -19.7500  -8.0000 -27.7500 Du        
   2397 ****       -19.7500  -7.7500 -28.5000 Du        
   2398 ****       -19.7500  -7.7500 -28.2500 Du        
   2399 ****       -19.7500  -7.7500 -28.0000 Du        
   2400 ****       -19.7500  -7.7500 -27.7500 Du        
   2401 ****       -19.7500  -7.5000 -28.7500 Du        
   2402 ****       -19.7500  -7.5000 -28.5000 Du        
   2403 ****       -19.7500  -7.5000 -28.2500 Du        
   2404 ****       -19.7500  -7.5000 -28.0000 Du        
   2405 ****       -19.7500  -7.2500 -28.7500 Du        
   2406 ****       -19.7500  -7.2500 -28.5000 Du        
   2407 ****       -19.7500  -7.2500 -28.2500 Du        
   2408 ****       -19.7500  -7.2500 -28.0000 Du        
   2409 ****       -19.5000 -19.0000  -8.0000 Du        
   2410 ****       -19.5000 -19.0000  -7.7500 Du        
   2411 ****       -19.5000 -18.7500 -24.0000 Du        
   2412 ****       -19.5000 -18.7500 -23.7500 Du        
   2413 ****       -19.5000 -18.7500 -23.5000 Du        
   2414 ****       -19.5000 -18.7500 -23.2500 Du        
   2415 ****       -19.5000 -18.7500 -23.0000 Du        
   2416 ****       -19.5000 -18.7500  -8.2500 Du        
   2417 ****       -19.5000 -18.7500  -8.0000 Du        
   2418 ****       -19.5000 -18.7500  -7.7500 Du        
   2419 ****       -19.5000 -18.5000 -24.5000 Du        
   2420 ****       -19.5000 -18.5000 -24.2500 Du        
   2421 ****       -19.5000 -18.5000 -24.0000 Du        
   2422 ****       -19.5000 -18.5000 -23.7500 Du        
   2423 ****       -19.5000 -18.5000 -23.5000 Du        
   2424 ****       -19.5000 -18.5000 -23.2500 Du        
   2425 ****       -19.5000 -18.5000 -23.0000 Du        
   2426 ****       -19.5000 -18.5000 -22.7500 Du        
   2427 ****       -19.5000 -18.5000  -8.2500 Du        
   2428 ****       -19.5000 -18.5000  -8.0000 Du        
   2429 ****       -19.5000 -18.5000  -7.7500 Du        
   2430 ****       -19.5000 -18.2500 -25.0000 Du        
   2431 ****       -19.5000 -18.2500 -24.7500 Du        
   2432 ****       -19.5000 -18.2500 -24.5000 Du        
   2433 ****       -19.5000 -18.2500 -24.2500 Du        
   2434 ****       -19.5000 -18.2500 -24.0000 Du        
   2435 ****       -19.5000 -18.2500 -23.7500 Du        
   2436 ****       -19.5000 -18.2500 -23.5000 Du        
   2437 ****       -19.5000 -18.2500 -23.2500 Du        
   2438 ****       -19.5000 -18.2500 -23.0000 Du        
   2439 ****       -19.5000 -18.2500 -22.7500 Du        
   2440 ****       -19.5000 -18.2500  -8.2500 Du        
   2441 ****       -19.5000 -18.2500  -8.0000 Du        
   2442 ****       -19.5000 -18.2500  -7.7500 Du        
   2443 ****       -19.5000 -18.2500  -7.5000 Du        
   2444 ****       -19.5000 -18.0000 -25.2500 Du        
   2445 ****       -19.5000 -18.0000 -25.0000 Du        
   2446 ****       -19.5000 -18.0000 -24.7500 Du        
   2447 ****       -19.5000 -18.0000 -24.5000 Du        
   2448 ****       -19.5000 -18.0000 -24.2500 Du        
   2449 ****       -19.5000 -18.0000 -24.0000 Du        
   2450 ****       -19.5000 -18.0000 -23.7500 Du        
   2451 ****       -19.5000 -18.0000 -23.5000 Du        
   2452 ****       -19.5000 -18.0000 -23.2500 Du        
   2453 ****       -19.5000 -18.0000 -23.0000 Du        
   2454 ****       -19.5000 -18.0000  -8.5000 Du        
   2455 ****       -19.5000 -18.0000  -8.2500 Du        
   2456 ****       -19.5000 -18.0000  -8.0000 Du        
   2457 ****       -19.5000 -18.0000  -7.7500 Du        
   2458 ****       -19.5000 -18.0000  -7.5000 Du        
   2459 ****       -19.5000 -18.0000  -7.2500 Du        
   2460 ****       -19.5000 -17.7500 -25.7500 Du        
   2461 ****       -19.5000 -17.7500 -25.5000 Du        
   2462 ****       -19.5000 -17.7500 -25.2500 Du        
   2463 ****       -19.5000 -17.7500 -25.0000 Du        
   2464 ****       -19.5000 -17.7500 -24.7500 Du        
   2465 ****       -19.5000 -17.7500 -24.5000 Du        
   2466 ****       -19.5000 -17.7500 -24.2500 Du        
   2467 ****       -19.5000 -17.7500 -24.0000 Du        
   2468 ****       -19.5000 -17.7500 -23.7500 Du        
   2469 ****       -19.5000 -17.7500 -23.5000 Du        
   2470 ****       -19.5000 -17.7500 -23.2500 Du        
   2471 ****       -19.5000 -17.7500 -23.0000 Du        
   2472 ****       -19.5000 -17.7500 -14.5000 Du        
   2473 ****       -19.5000 -17.7500  -8.0000 Du        
   2474 ****       -19.5000 -17.7500  -7.7500 Du        
   2475 ****       -19.5000 -17.7500  -7.5000 Du        
   2476 ****       -19.5000 -17.7500  -7.2500 Du        
   2477 ****       -19.5000 -17.5000 -26.2500 Du        
   2478 ****       -19.5000 -17.5000 -26.0000 Du        
   2479 ****       -19.5000 -17.5000 -25.7500 Du        
   2480 ****       -19.5000 -17.5000 -25.5000 Du        
   2481 ****       -19.5000 -17.5000 -25.2500 Du        
   2482 ****       -19.5000 -17.5000 -25.0000 Du        
   2483 ****       -19.5000 -17.5000 -24.7500 Du        
   2484 ****       -19.5000 -17.5000 -24.5000 Du        
   2485 ****       -19.5000 -17.5000 -24.2500 Du        
   2486 ****       -19.5000 -17.5000 -24.0000 Du        
   2487 ****       -19.5000 -17.5000 -23.7500 Du        
   2488 ****       -19.5000 -17.5000 -23.5000 Du        
   2489 ****       -19.5000 -17.5000 -23.2500 Du        
   2490 ****       -19.5000 -17.5000 -23.0000 Du        
   2491 ****       -19.5000 -17.5000 -14.7500 Du        
   2492 ****       -19.5000 -17.5000 -14.5000 Du        
   2493 ****       -19.5000 -17.5000  -7.5000 Du        
   2494 ****       -19.5000 -17.5000  -7.2500 Du        
   2495 ****       -19.5000 -17.5000  -7.0000 Du        
   2496 ****       -19.5000 -17.5000  -6.7500 Du        
   2497 ****       -19.5000 -17.2500 -26.5000 Du        
   2498 ****       -19.5000 -17.2500 -26.2500 Du        
   2499 ****       -19.5000 -17.2500 -26.0000 Du        
   2500 ****       -19.5000 -17.2500 -25.7500 Du        
   2501 ****       -19.5000 -17.2500 -25.5000 Du        
   2502 ****       -19.5000 -17.2500 -25.2500 Du        
   2503 ****       -19.5000 -17.2500 -25.0000 Du        
   2504 ****       -19.5000 -17.2500 -24.7500 Du        
   2505 ****       -19.5000 -17.2500 -24.5000 Du        
   2506 ****       -19.5000 -17.2500 -24.2500 Du        
   2507 ****       -19.5000 -17.2500 -24.0000 Du        
   2508 ****       -19.5000 -17.2500 -23.7500 Du        
   2509 ****       -19.5000 -17.2500 -23.5000 Du        
   2510 ****       -19.5000 -17.2500 -23.2500 Du        
   2511 ****       -19.5000 -17.2500 -23.0000 Du        
   2512 ****       -19.5000 -17.2500 -14.7500 Du        
   2513 ****       -19.5000 -17.2500 -14.5000 Du        
   2514 ****       -19.5000 -17.2500  -7.7500 Du        
   2515 ****       -19.5000 -17.2500  -7.5000 Du        
   2516 ****       -19.5000 -17.2500  -7.2500 Du        
   2517 ****       -19.5000 -17.2500  -7.0000 Du        
   2518 ****       -19.5000 -17.2500  -6.7500 Du        
   2519 ****       -19.5000 -17.0000 -26.7500 Du        
   2520 ****       -19.5000 -17.0000 -26.5000 Du        
   2521 ****       -19.5000 -17.0000 -26.2500 Du        
   2522 ****       -19.5000 -17.0000 -26.0000 Du        
   2523 ****       -19.5000 -17.0000 -25.7500 Du        
   2524 ****       -19.5000 -17.0000 -25.5000 Du        
   2525 ****       -19.5000 -17.0000 -25.2500 Du        
   2526 ****       -19.5000 -17.0000 -25.0000 Du        
   2527 ****       -19.5000 -17.0000 -24.7500 Du        
   2528 ****       -19.5000 -17.0000 -24.5000 Du        
   2529 ****       -19.5000 -17.0000 -24.2500 Du        
   2530 ****       -19.5000 -17.0000 -24.0000 Du        
   2531 ****       -19.5000 -17.0000 -23.7500 Du        
   2532 ****       -19.5000 -17.0000 -23.5000 Du        
   2533 ****       -19.5000 -17.0000 -23.2500 Du        
   2534 ****       -19.5000 -17.0000  -7.5000 Du        
   2535 ****       -19.5000 -17.0000  -7.2500 Du        
   2536 ****       -19.5000 -17.0000  -7.0000 Du        
   2537 ****       -19.5000 -17.0000  -6.7500 Du        
   2538 ****       -19.5000 -17.0000  -6.2500 Du        
   2539 ****       -19.5000 -17.0000  -6.0000 Du        
   2540 ****       -19.5000 -17.0000  -5.7500 Du        
   2541 ****       -19.5000 -17.0000  -5.2500 Du        
   2542 ****       -19.5000 -17.0000  -5.0000 Du        
   2543 ****       -19.5000 -17.0000  -4.7500 Du        
   2544 ****       -19.5000 -17.0000  -2.2500 Du        
   2545 ****       -19.5000 -17.0000  -2.0000 Du        
   2546 ****       -19.5000 -17.0000  -1.7500 Du        
   2547 ****       -19.5000 -17.0000  -1.5000 Du        
   2548 ****       -19.5000 -17.0000  -1.2500 Du        
   2549 ****       -19.5000 -17.0000   2.2500 Du        
   2550 ****       -19.5000 -17.0000   2.5000 Du        
   2551 ****       -19.5000 -16.7500 -26.7500 Du        
   2552 ****       -19.5000 -16.7500 -26.5000 Du        
   2553 ****       -19.5000 -16.7500 -26.2500 Du        
   2554 ****       -19.5000 -16.7500 -26.0000 Du        
   2555 ****       -19.5000 -16.7500 -25.7500 Du        
   2556 ****       -19.5000 -16.7500 -25.5000 Du        
   2557 ****       -19.5000 -16.7500 -25.2500 Du        
   2558 ****       -19.5000 -16.7500 -25.0000 Du        
   2559 ****       -19.5000 -16.7500 -24.7500 Du        
   2560 ****       -19.5000 -16.7500 -24.5000 Du        
   2561 ****       -19.5000 -16.7500 -24.2500 Du        
   2562 ****       -19.5000 -16.7500 -24.0000 Du        
   2563 ****       -19.5000 -16.7500 -23.7500 Du        
   2564 ****       -19.5000 -16.7500 -23.5000 Du        
   2565 ****       -19.5000 -16.7500  -7.2500 Du        
   2566 ****       -19.5000 -16.7500  -7.0000 Du        
   2567 ****       -19.5000 -16.7500  -6.7500 Du        
   2568 ****       -19.5000 -16.7500  -6.2500 Du        
   2569 ****       -19.5000 -16.7500  -6.0000 Du        
   2570 ****       -19.5000 -16.7500  -5.7500 Du        
   2571 ****       -19.5000 -16.7500  -5.5000 Du        
   2572 ****       -19.5000 -16.7500  -5.2500 Du        
   2573 ****       -19.5000 -16.7500  -5.0000 Du        
   2574 ****       -19.5000 -16.7500  -4.7500 Du        
   2575 ****       -19.5000 -16.7500  -4.5000 Du        
   2576 ****       -19.5000 -16.7500  -4.2500 Du        
   2577 ****       -19.5000 -16.7500  -4.0000 Du        
   2578 ****       -19.5000 -16.7500  -2.2500 Du        
   2579 ****       -19.5000 -16.7500  -2.0000 Du        
   2580 ****       -19.5000 -16.7500  -1.7500 Du        
   2581 ****       -19.5000 -16.7500  -1.5000 Du        
   2582 ****       -19.5000 -16.7500  -1.2500 Du        
   2583 ****       -19.5000 -16.7500  -1.0000 Du        
   2584 ****       -19.5000 -16.7500  -0.7500 Du        
   2585 ****       -19.5000 -16.7500  -0.5000 Du        
   2586 ****       -19.5000 -16.7500  -0.2500 Du        
   2587 ****       -19.5000 -16.7500   0.0000 Du        
   2588 ****       -19.5000 -16.7500   0.2500 Du        
   2589 ****       -19.5000 -16.7500   0.5000 Du        
   2590 ****       -19.5000 -16.7500   0.7500 Du        
   2591 ****       -19.5000 -16.7500   1.0000 Du        
   2592 ****       -19.5000 -16.7500   1.2500 Du        
   2593 ****       -19.5000 -16.7500   1.5000 Du        
   2594 ****       -19.5000 -16.7500   1.7500 Du        
   2595 ****       -19.5000 -16.7500   2.0000 Du        
   2596 ****       -19.5000 -16.7500   2.2500 Du        
   2597 ****       -19.5000 -16.7500   2.5000 Du        
   2598 ****       -19.5000 -16.5000 -24.7500 Du        
   2599 ****       -19.5000 -16.5000 -24.5000 Du        
   2600 ****       -19.5000 -16.5000 -24.2500 Du        
   2601 ****       -19.5000 -16.5000 -24.0000 Du        
   2602 ****       -19.5000 -16.5000 -23.7500 Du        
   2603 ****       -19.5000 -16.5000 -23.5000 Du        
   2604 ****       -19.5000 -16.5000  -6.0000 Du        
   2605 ****       -19.5000 -16.5000  -5.7500 Du        
   2606 ****       -19.5000 -16.5000  -5.5000 Du        
   2607 ****       -19.5000 -16.5000  -5.2500 Du        
   2608 ****       -19.5000 -16.5000  -5.0000 Du        
   2609 ****       -19.5000 -16.5000  -4.7500 Du        
   2610 ****       -19.5000 -16.5000  -4.5000 Du        
   2611 ****       -19.5000 -16.5000  -4.2500 Du        
   2612 ****       -19.5000 -16.5000  -4.0000 Du        
   2613 ****       -19.5000 -16.5000  -3.7500 Du        
   2614 ****       -19.5000 -16.5000  -1.7500 Du        
   2615 ****       -19.5000 -16.5000  -1.5000 Du        
   2616 ****       -19.5000 -16.5000  -1.2500 Du        
   2617 ****       -19.5000 -16.5000  -1.0000 Du        
   2618 ****       -19.5000 -16.5000  -0.7500 Du        
   2619 ****       -19.5000 -16.5000  -0.5000 Du        
   2620 ****       -19.5000 -16.5000  -0.2500 Du        
   2621 ****       -19.5000 -16.5000   0.0000 Du        
   2622 ****       -19.5000 -16.5000   0.2500 Du        
   2623 ****       -19.5000 -16.5000   0.5000 Du        
   2624 ****       -19.5000 -16.5000   0.7500 Du        
   2625 ****       -19.5000 -16.5000   1.0000 Du        
   2626 ****       -19.5000 -16.5000   1.2500 Du        
   2627 ****       -19.5000 -16.5000   1.5000 Du        
   2628 ****       -19.5000 -16.5000   1.7500 Du        
   2629 ****       -19.5000 -16.5000   2.0000 Du        
   2630 ****       -19.5000 -16.5000   2.2500 Du        
   2631 ****       -19.5000 -16.5000   2.5000 Du        
   2632 ****       -19.5000 -16.2500 -24.2500 Du        
   2633 ****       -19.5000 -16.2500 -24.0000 Du        
   2634 ****       -19.5000 -16.2500 -23.7500 Du        
   2635 ****       -19.5000 -16.2500  -6.0000 Du        
   2636 ****       -19.5000 -16.2500  -5.7500 Du        
   2637 ****       -19.5000 -16.2500  -5.5000 Du        
   2638 ****       -19.5000 -16.2500  -5.2500 Du        
   2639 ****       -19.5000 -16.2500  -5.0000 Du        
   2640 ****       -19.5000 -16.2500  -4.7500 Du        
   2641 ****       -19.5000 -16.2500  -4.5000 Du        
   2642 ****       -19.5000 -16.2500  -4.2500 Du        
   2643 ****       -19.5000 -16.2500  -4.0000 Du        
   2644 ****       -19.5000 -16.2500  -1.5000 Du        
   2645 ****       -19.5000 -16.2500  -1.2500 Du        
   2646 ****       -19.5000 -16.2500  -1.0000 Du        
   2647 ****       -19.5000 -16.2500  -0.7500 Du        
   2648 ****       -19.5000 -16.2500  -0.5000 Du        
   2649 ****       -19.5000 -16.2500  -0.2500 Du        
   2650 ****       -19.5000 -16.2500   0.0000 Du        
   2651 ****       -19.5000 -16.2500   0.2500 Du        
   2652 ****       -19.5000 -16.2500   0.5000 Du        
   2653 ****       -19.5000 -16.2500   0.7500 Du        
   2654 ****       -19.5000 -16.2500   1.0000 Du        
   2655 ****       -19.5000 -16.2500   1.2500 Du        
   2656 ****       -19.5000 -16.2500   1.5000 Du        
   2657 ****       -19.5000 -16.2500   1.7500 Du        
   2658 ****       -19.5000 -16.2500   2.0000 Du        
   2659 ****       -19.5000 -16.2500   2.2500 Du        
   2660 ****       -19.5000 -16.2500   2.5000 Du        
   2661 ****       -19.5000 -16.0000 -24.0000 Du        
   2662 ****       -19.5000 -16.0000 -23.7500 Du        
   2663 ****       -19.5000 -16.0000  -6.0000 Du        
   2664 ****       -19.5000 -16.0000  -5.7500 Du        
   2665 ****       -19.5000 -16.0000  -5.5000 Du        
   2666 ****       -19.5000 -16.0000  -5.2500 Du        
   2667 ****       -19.5000 -16.0000  -5.0000 Du        
   2668 ****       -19.5000 -16.0000  -4.7500 Du        
   2669 ****       -19.5000 -16.0000  -4.5000 Du        
   2670 ****       -19.5000 -16.0000  -1.0000 Du        
   2671 ****       -19.5000 -16.0000  -0.7500 Du        
   2672 ****       -19.5000 -16.0000  -0.5000 Du        
   2673 ****       -19.5000 -16.0000   1.0000 Du        
   2674 ****       -19.5000 -16.0000   1.2500 Du        
   2675 ****       -19.5000 -16.0000   1.5000 Du        
   2676 ****       -19.5000 -16.0000   1.7500 Du        
   2677 ****       -19.5000 -16.0000   2.0000 Du        
   2678 ****       -19.5000 -16.0000   2.2500 Du        
   2679 ****       -19.5000 -16.0000   2.5000 Du        
   2680 ****       -19.5000 -14.0000 -15.2500 Du        
   2681 ****       -19.5000 -14.0000 -15.0000 Du        
   2682 ****       -19.5000 -14.0000 -14.7500 Du        
   2683 ****       -19.5000 -13.7500 -16.0000 Du        
   2684 ****       -19.5000 -13.7500 -15.7500 Du        
   2685 ****       -19.5000 -13.7500 -15.5000 Du        
   2686 ****       -19.5000 -13.7500 -15.2500 Du        
   2687 ****       -19.5000 -13.7500 -15.0000 Du        
   2688 ****       -19.5000 -13.7500 -14.7500 Du        
   2689 ****       -19.5000 -13.7500 -14.5000 Du        
   2690 ****       -19.5000 -13.5000 -16.0000 Du        
   2691 ****       -19.5000 -13.5000 -15.7500 Du        
   2692 ****       -19.5000 -13.5000 -15.5000 Du        
   2693 ****       -19.5000 -13.5000 -15.2500 Du        
   2694 ****       -19.5000 -13.5000 -15.0000 Du        
   2695 ****       -19.5000 -13.5000 -14.7500 Du        
   2696 ****       -19.5000 -13.2500 -16.2500 Du        
   2697 ****       -19.5000 -13.2500 -16.0000 Du        
   2698 ****       -19.5000 -13.2500 -15.7500 Du        
   2699 ****       -19.5000 -13.2500 -15.5000 Du        
   2700 ****       -19.5000 -13.2500 -15.2500 Du        
   2701 ****       -19.5000 -13.2500 -15.0000 Du        
   2702 ****       -19.5000 -13.2500 -14.7500 Du        
   2703 ****       -19.5000 -13.0000 -16.2500 Du        
   2704 ****       -19.5000 -13.0000 -16.0000 Du        
   2705 ****       -19.5000 -13.0000 -15.7500 Du        
   2706 ****       -19.5000 -13.0000 -15.5000 Du        
   2707 ****       -19.5000 -13.0000 -15.2500 Du        
   2708 ****       -19.5000 -13.0000 -15.0000 Du        
   2709 ****       -19.5000 -13.0000 -14.7500 Du        
   2710 ****       -19.5000 -13.0000 -14.5000 Du        
   2711 ****       -19.5000 -12.7500 -16.2500 Du        
   2712 ****       -19.5000 -12.7500 -16.0000 Du        
   2713 ****       -19.5000 -12.7500 -15.7500 Du        
   2714 ****       -19.5000 -12.7500 -15.5000 Du        
   2715 ****       -19.5000 -12.7500 -15.2500 Du        
   2716 ****       -19.5000 -12.7500 -15.0000 Du        
   2717 ****       -19.5000 -12.7500 -14.7500 Du        
   2718 ****       -19.5000 -12.5000 -16.0000 Du        
   2719 ****       -19.5000 -12.5000 -15.7500 Du        
   2720 ****       -19.5000 -12.5000 -15.5000 Du        
   2721 ****       -19.5000 -12.5000 -15.2500 Du        
   2722 ****       -19.5000 -12.5000 -15.0000 Du        
   2723 ****       -19.5000 -12.5000 -14.7500 Du        
   2724 ****       -19.5000 -12.2500 -16.0000 Du        
   2725 ****       -19.5000 -12.2500 -15.7500 Du        
   2726 ****       -19.5000 -12.2500 -15.5000 Du        
   2727 ****       -19.5000 -12.2500 -15.2500 Du        
   2728 ****       -19.5000 -12.2500 -15.0000 Du        
   2729 ****       -19.5000 -12.2500 -14.7500 Du        
   2730 ****       -19.5000 -12.0000 -16.2500 Du        
   2731 ****       -19.5000 -12.0000 -16.0000 Du        
   2732 ****       -19.5000 -12.0000 -15.7500 Du        
   2733 ****       -19.5000 -12.0000 -15.5000 Du        
   2734 ****       -19.5000 -12.0000 -15.2500 Du        
   2735 ****       -19.5000 -12.0000 -15.0000 Du        
   2736 ****       -19.5000 -12.0000 -14.7500 Du        
   2737 ****       -19.5000 -11.7500 -16.2500 Du        
   2738 ****       -19.5000 -11.7500 -16.0000 Du        
   2739 ****       -19.5000 -11.7500 -15.7500 Du        
   2740 ****       -19.5000 -10.7500  -9.7500 Du        
   2741 ****       -19.5000 -10.5000 -10.0000 Du        
   2742 ****       -19.5000 -10.5000  -9.7500 Du        
   2743 ****       -19.5000 -10.5000  -9.5000 Du        
   2744 ****       -19.5000 -10.5000  -9.2500 Du        
   2745 ****       -19.5000 -10.2500 -10.5000 Du        
   2746 ****       -19.5000 -10.2500 -10.2500 Du        
   2747 ****       -19.5000 -10.2500 -10.0000 Du        
   2748 ****       -19.5000 -10.2500  -9.7500 Du        
   2749 ****       -19.5000 -10.2500  -9.5000 Du        
   2750 ****       -19.5000 -10.2500  -9.2500 Du        
   2751 ****       -19.5000 -10.2500  -9.0000 Du        
   2752 ****       -19.5000 -10.0000 -10.2500 Du        
   2753 ****       -19.5000 -10.0000 -10.0000 Du        
   2754 ****       -19.5000 -10.0000  -9.7500 Du        
   2755 ****       -19.5000 -10.0000  -9.5000 Du        
   2756 ****       -19.5000 -10.0000  -9.2500 Du        
   2757 ****       -19.5000 -10.0000  -9.0000 Du        
   2758 ****       -19.5000 -10.0000  -8.7500 Du        
   2759 ****       -19.5000  -9.7500 -10.2500 Du        
   2760 ****       -19.5000  -9.7500 -10.0000 Du        
   2761 ****       -19.5000  -9.7500  -9.7500 Du        
   2762 ****       -19.5000  -9.7500  -9.5000 Du        
   2763 ****       -19.5000  -9.7500  -9.2500 Du        
   2764 ****       -19.5000  -9.7500  -9.0000 Du        
   2765 ****       -19.5000  -9.7500  -8.7500 Du        
   2766 ****       -19.5000  -9.5000  -9.7500 Du        
   2767 ****       -19.5000  -9.5000  -9.5000 Du        
   2768 ****       -19.5000  -9.5000  -9.2500 Du        
   2769 ****       -19.5000  -9.5000  -9.0000 Du        
   2770 ****       -19.5000  -9.5000  -8.7500 Du        
   2771 ****       -19.5000  -9.5000  -8.5000 Du        
   2772 ****       -19.5000  -9.5000  -8.2500 Du        
   2773 ****       -19.5000  -9.2500  -9.7500 Du        
   2774 ****       -19.5000  -9.2500  -9.5000 Du        
   2775 ****       -19.5000  -9.2500  -9.2500 Du        
   2776 ****       -19.5000  -9.2500  -9.0000 Du        
   2777 ****       -19.5000  -9.2500  -8.7500 Du        
   2778 ****       -19.5000  -9.2500  -8.5000 Du        
   2779 ****       -19.5000  -9.2500  -8.2500 Du        
   2780 ****       -19.5000  -9.2500  -8.0000 Du        
   2781 ****       -19.5000  -9.0000  -9.5000 Du        
   2782 ****       -19.5000  -9.0000  -9.2500 Du        
   2783 ****       -19.5000  -9.0000  -9.0000 Du        
   2784 ****       -19.5000  -9.0000  -8.7500 Du        
   2785 ****       -19.5000  -9.0000  -8.5000 Du        
   2786 ****       -19.5000  -9.0000  -8.2500 Du        
   2787 ****       -19.5000  -9.0000  -8.0000 Du        
   2788 ****       -19.5000  -8.7500  -9.2500 Du        
   2789 ****       -19.5000  -8.7500  -9.0000 Du        
   2790 ****       -19.5000  -8.7500  -8.7500 Du        
   2791 ****       -19.5000  -8.7500  -8.5000 Du        
   2792 ****       -19.5000  -8.7500  -8.2500 Du        
   2793 ****       -19.5000  -8.7500  -8.0000 Du        
   2794 ****       -19.5000  -8.5000 -27.7500 Du        
   2795 ****       -19.5000  -8.5000  -9.0000 Du        
   2796 ****       -19.5000  -8.5000  -8.7500 Du        
   2797 ****       -19.5000  -8.5000  -8.5000 Du        
   2798 ****       -19.5000  -8.5000  -8.2500 Du        
   2799 ****       -19.5000  -8.5000  -8.0000 Du        
   2800 ****       -19.5000  -8.5000  -7.7500 Du        
   2801 ****       -19.5000  -8.2500 -28.0000 Du        
   2802 ****       -19.5000  -8.2500 -27.7500 Du        
   2803 ****       -19.5000  -8.2500  -9.0000 Du        
   2804 ****       -19.5000  -8.2500  -8.7500 Du        
   2805 ****       -19.5000  -8.2500  -8.5000 Du        
   2806 ****       -19.5000  -8.2500  -8.2500 Du        
   2807 ****       -19.5000  -8.2500  -8.0000 Du        
   2808 ****       -19.5000  -8.0000 -28.2500 Du        
   2809 ****       -19.5000  -8.0000 -28.0000 Du        
   2810 ****       -19.5000  -8.0000 -27.7500 Du        
   2811 ****       -19.5000  -8.0000  -8.7500 Du        
   2812 ****       -19.5000  -8.0000  -8.5000 Du        
   2813 ****       -19.5000  -8.0000  -8.2500 Du        
   2814 ****       -19.5000  -8.0000  -8.0000 Du        
   2815 ****       -19.5000  -8.0000  -7.7500 Du        
   2816 ****       -19.5000  -7.7500 -28.5000 Du        
   2817 ****       -19.5000  -7.7500 -28.2500 Du        
   2818 ****       -19.5000  -7.7500 -28.0000 Du        
   2819 ****       -19.5000  -7.7500 -27.7500 Du        
   2820 ****       -19.5000  -7.7500  -8.2500 Du        
   2821 ****       -19.5000  -7.7500  -8.0000 Du        
   2822 ****       -19.5000  -7.7500  -7.7500 Du        
   2823 ****       -19.5000  -7.5000 -28.5000 Du        
   2824 ****       -19.5000  -7.5000 -28.2500 Du        
   2825 ****       -19.5000  -7.5000 -28.0000 Du        
   2826 ****       -19.5000  -7.5000 -27.7500 Du        
   2827 ****       -19.5000  -7.5000  -7.5000 Du        
   2828 ****       -19.5000  -7.2500 -28.7500 Du        
   2829 ****       -19.5000  -7.2500 -28.5000 Du        
   2830 ****       -19.5000  -7.2500 -28.2500 Du        
   2831 ****       -19.5000  -7.2500 -28.0000 Du        
   2832 ****       -19.5000  -7.2500 -27.7500 Du        
   2833 ****       -19.5000  -7.2500  -7.5000 Du        
   2834 ****       -19.5000  -7.0000 -28.5000 Du        
   2835 ****       -19.5000  -7.0000 -28.2500 Du        
   2836 ****       -19.5000  -7.0000 -28.0000 Du        
   2837 ****       -19.5000  -7.0000 -27.7500 Du        
   2838 ****       -19.5000  -6.7500 -28.2500 Du        
   2839 ****       -19.5000  -6.7500 -28.0000 Du        
   2840 ****       -19.5000  -6.7500 -27.7500 Du        
   2841 ****       -19.5000  -6.0000  -5.0000 Du        
   2842 ****       -19.5000  -5.7500  -5.2500 Du        
   2843 ****       -19.5000  -5.7500  -5.0000 Du        
   2844 ****       -19.5000  -5.7500  -4.7500 Du        
   2845 ****       -19.5000  -5.5000  -5.2500 Du        
   2846 ****       -19.5000  -5.5000  -5.0000 Du        
   2847 ****       -19.5000  -5.5000  -4.7500 Du        
   2848 ****       -19.5000  -5.2500  -5.2500 Du        
   2849 ****       -19.5000  -5.2500  -5.0000 Du        
   2850 ****       -19.5000  -5.2500  -4.7500 Du        
   2851 ****       -19.5000  -5.0000  -5.0000 Du        
   2852 ****       -19.5000  -5.0000  -4.7500 Du        
   2853 ****       -19.2500 -19.0000 -24.0000 Du        
   2854 ****       -19.2500 -19.0000 -23.7500 Du        
   2855 ****       -19.2500 -19.0000 -23.5000 Du        
   2856 ****       -19.2500 -19.0000 -23.2500 Du        
   2857 ****       -19.2500 -19.0000 -23.0000 Du        
   2858 ****       -19.2500 -19.0000  -8.2500 Du        
   2859 ****       -19.2500 -19.0000  -8.0000 Du        
   2860 ****       -19.2500 -19.0000  -7.7500 Du        
   2861 ****       -19.2500 -18.7500 -24.5000 Du        
   2862 ****       -19.2500 -18.7500 -24.2500 Du        
   2863 ****       -19.2500 -18.7500 -24.0000 Du        
   2864 ****       -19.2500 -18.7500 -23.7500 Du        
   2865 ****       -19.2500 -18.7500 -23.5000 Du        
   2866 ****       -19.2500 -18.7500 -23.2500 Du        
   2867 ****       -19.2500 -18.7500 -23.0000 Du        
   2868 ****       -19.2500 -18.7500 -22.7500 Du        
   2869 ****       -19.2500 -18.7500  -8.5000 Du        
   2870 ****       -19.2500 -18.7500  -8.2500 Du        
   2871 ****       -19.2500 -18.7500  -8.0000 Du        
   2872 ****       -19.2500 -18.7500  -7.7500 Du        
   2873 ****       -19.2500 -18.5000 -24.7500 Du        
   2874 ****       -19.2500 -18.5000 -24.5000 Du        
   2875 ****       -19.2500 -18.5000 -24.2500 Du        
   2876 ****       -19.2500 -18.5000 -24.0000 Du        
   2877 ****       -19.2500 -18.5000 -23.7500 Du        
   2878 ****       -19.2500 -18.5000 -23.5000 Du        
   2879 ****       -19.2500 -18.5000 -23.2500 Du        
   2880 ****       -19.2500 -18.5000 -23.0000 Du        
   2881 ****       -19.2500 -18.5000 -22.7500 Du        
   2882 ****       -19.2500 -18.5000  -8.5000 Du        
   2883 ****       -19.2500 -18.5000  -8.2500 Du        
   2884 ****       -19.2500 -18.5000  -8.0000 Du        
   2885 ****       -19.2500 -18.5000  -7.7500 Du        
   2886 ****       -19.2500 -18.2500 -25.0000 Du        
   2887 ****       -19.2500 -18.2500 -24.7500 Du        
   2888 ****       -19.2500 -18.2500 -24.5000 Du        
   2889 ****       -19.2500 -18.2500 -24.2500 Du        
   2890 ****       -19.2500 -18.2500 -24.0000 Du        
   2891 ****       -19.2500 -18.2500 -23.7500 Du        
   2892 ****       -19.2500 -18.2500 -23.5000 Du        
   2893 ****       -19.2500 -18.2500 -23.2500 Du        
   2894 ****       -19.2500 -18.2500 -23.0000 Du        
   2895 ****       -19.2500 -18.2500 -22.7500 Du        
   2896 ****       -19.2500 -18.2500  -8.7500 Du        
   2897 ****       -19.2500 -18.2500  -8.5000 Du        
   2898 ****       -19.2500 -18.2500  -8.2500 Du        
   2899 ****       -19.2500 -18.2500  -8.0000 Du        
   2900 ****       -19.2500 -18.2500  -7.7500 Du        
   2901 ****       -19.2500 -18.2500  -7.5000 Du        
   2902 ****       -19.2500 -18.0000 -25.2500 Du        
   2903 ****       -19.2500 -18.0000 -25.0000 Du        
   2904 ****       -19.2500 -18.0000 -24.7500 Du        
   2905 ****       -19.2500 -18.0000 -24.5000 Du        
   2906 ****       -19.2500 -18.0000 -24.2500 Du        
   2907 ****       -19.2500 -18.0000 -24.0000 Du        
   2908 ****       -19.2500 -18.0000 -23.7500 Du        
   2909 ****       -19.2500 -18.0000 -23.5000 Du        
   2910 ****       -19.2500 -18.0000 -23.2500 Du        
   2911 ****       -19.2500 -18.0000 -23.0000 Du        
   2912 ****       -19.2500 -18.0000  -8.7500 Du        
   2913 ****       -19.2500 -18.0000  -8.5000 Du        
   2914 ****       -19.2500 -18.0000  -8.2500 Du        
   2915 ****       -19.2500 -18.0000  -8.0000 Du        
   2916 ****       -19.2500 -18.0000  -7.7500 Du        
   2917 ****       -19.2500 -18.0000  -7.5000 Du        
   2918 ****       -19.2500 -18.0000  -7.2500 Du        
   2919 ****       -19.2500 -17.7500 -25.7500 Du        
   2920 ****       -19.2500 -17.7500 -25.5000 Du        
   2921 ****       -19.2500 -17.7500 -25.2500 Du        
   2922 ****       -19.2500 -17.7500 -25.0000 Du        
   2923 ****       -19.2500 -17.7500 -24.7500 Du        
   2924 ****       -19.2500 -17.7500 -24.5000 Du        
   2925 ****       -19.2500 -17.7500 -24.2500 Du        
   2926 ****       -19.2500 -17.7500 -24.0000 Du        
   2927 ****       -19.2500 -17.7500 -23.7500 Du        
   2928 ****       -19.2500 -17.7500 -23.5000 Du        
   2929 ****       -19.2500 -17.7500 -23.2500 Du        
   2930 ****       -19.2500 -17.7500 -23.0000 Du        
   2931 ****       -19.2500 -17.7500 -14.7500 Du        
   2932 ****       -19.2500 -17.7500 -14.5000 Du        
   2933 ****       -19.2500 -17.7500 -14.2500 Du        
   2934 ****       -19.2500 -17.7500  -8.2500 Du        
   2935 ****       -19.2500 -17.7500  -8.0000 Du        
   2936 ****       -19.2500 -17.7500  -7.7500 Du        
   2937 ****       -19.2500 -17.7500  -7.5000 Du        
   2938 ****       -19.2500 -17.7500  -7.2500 Du        
   2939 ****       -19.2500 -17.7500  -7.0000 Du        
   2940 ****       -19.2500 -17.5000 -26.2500 Du        
   2941 ****       -19.2500 -17.5000 -26.0000 Du        
   2942 ****       -19.2500 -17.5000 -25.7500 Du        
   2943 ****       -19.2500 -17.5000 -25.5000 Du        
   2944 ****       -19.2500 -17.5000 -25.2500 Du        
   2945 ****       -19.2500 -17.5000 -25.0000 Du        
   2946 ****       -19.2500 -17.5000 -24.7500 Du        
   2947 ****       -19.2500 -17.5000 -24.5000 Du        
   2948 ****       -19.2500 -17.5000 -24.2500 Du        
   2949 ****       -19.2500 -17.5000 -24.0000 Du        
   2950 ****       -19.2500 -17.5000 -23.7500 Du        
   2951 ****       -19.2500 -17.5000 -23.5000 Du        
   2952 ****       -19.2500 -17.5000 -23.2500 Du        
   2953 ****       -19.2500 -17.5000 -23.0000 Du        
   2954 ****       -19.2500 -17.5000 -15.0000 Du        
   2955 ****       -19.2500 -17.5000 -14.7500 Du        
   2956 ****       -19.2500 -17.5000 -14.5000 Du        
   2957 ****       -19.2500 -17.5000 -14.2500 Du        
   2958 ****       -19.2500 -17.5000  -7.5000 Du        
   2959 ****       -19.2500 -17.5000  -7.2500 Du        
   2960 ****       -19.2500 -17.5000  -7.0000 Du        
   2961 ****       -19.2500 -17.5000  -6.7500 Du        
   2962 ****       -19.2500 -17.2500 -26.5000 Du        
   2963 ****       -19.2500 -17.2500 -26.2500 Du        
   2964 ****       -19.2500 -17.2500 -26.0000 Du        
   2965 ****       -19.2500 -17.2500 -25.7500 Du        
   2966 ****       -19.2500 -17.2500 -25.5000 Du        
   2967 ****       -19.2500 -17.2500 -25.2500 Du        
   2968 ****       -19.2500 -17.2500 -25.0000 Du        
   2969 ****       -19.2500 -17.2500 -24.7500 Du        
   2970 ****       -19.2500 -17.2500 -24.5000 Du        
   2971 ****       -19.2500 -17.2500 -24.2500 Du        
   2972 ****       -19.2500 -17.2500 -24.0000 Du        
   2973 ****       -19.2500 -17.2500 -23.7500 Du        
   2974 ****       -19.2500 -17.2500 -23.5000 Du        
   2975 ****       -19.2500 -17.2500 -23.2500 Du        
   2976 ****       -19.2500 -17.2500 -15.0000 Du        
   2977 ****       -19.2500 -17.2500 -14.7500 Du        
   2978 ****       -19.2500 -17.2500 -14.5000 Du        
   2979 ****       -19.2500 -17.2500 -14.2500 Du        
   2980 ****       -19.2500 -17.2500  -7.7500 Du        
   2981 ****       -19.2500 -17.2500  -7.5000 Du        
   2982 ****       -19.2500 -17.2500  -7.2500 Du        
   2983 ****       -19.2500 -17.2500  -7.0000 Du        
   2984 ****       -19.2500 -17.2500  -6.7500 Du        
   2985 ****       -19.2500 -17.0000 -26.5000 Du        
   2986 ****       -19.2500 -17.0000 -26.2500 Du        
   2987 ****       -19.2500 -17.0000 -26.0000 Du        
   2988 ****       -19.2500 -17.0000 -25.7500 Du        
   2989 ****       -19.2500 -17.0000 -25.5000 Du        
   2990 ****       -19.2500 -17.0000 -25.2500 Du        
   2991 ****       -19.2500 -17.0000 -25.0000 Du        
   2992 ****       -19.2500 -17.0000 -24.7500 Du        
   2993 ****       -19.2500 -17.0000 -24.5000 Du        
   2994 ****       -19.2500 -17.0000 -24.2500 Du        
   2995 ****       -19.2500 -17.0000 -24.0000 Du        
   2996 ****       -19.2500 -17.0000 -23.7500 Du        
   2997 ****       -19.2500 -17.0000 -23.5000 Du        
   2998 ****       -19.2500 -17.0000 -23.2500 Du        
   2999 ****       -19.2500 -17.0000 -14.7500 Du        
   3000 ****       -19.2500 -17.0000 -14.5000 Du        
   3001 ****       -19.2500 -17.0000  -7.7500 Du        
   3002 ****       -19.2500 -17.0000  -7.5000 Du        
   3003 ****       -19.2500 -17.0000  -7.2500 Du        
   3004 ****       -19.2500 -17.0000  -7.0000 Du        
   3005 ****       -19.2500 -17.0000  -6.7500 Du        
   3006 ****       -19.2500 -17.0000  -6.5000 Du        
   3007 ****       -19.2500 -17.0000  -6.2500 Du        
   3008 ****       -19.2500 -17.0000  -6.0000 Du        
   3009 ****       -19.2500 -17.0000  -5.7500 Du        
   3010 ****       -19.2500 -17.0000  -5.5000 Du        
   3011 ****       -19.2500 -17.0000  -5.2500 Du        
   3012 ****       -19.2500 -17.0000  -5.0000 Du        
   3013 ****       -19.2500 -16.7500 -26.7500 Du        
   3014 ****       -19.2500 -16.7500 -26.5000 Du        
   3015 ****       -19.2500 -16.7500 -26.2500 Du        
   3016 ****       -19.2500 -16.7500 -26.0000 Du        
   3017 ****       -19.2500 -16.7500 -25.7500 Du        
   3018 ****       -19.2500 -16.7500 -25.5000 Du        
   3019 ****       -19.2500 -16.7500 -25.2500 Du        
   3020 ****       -19.2500 -16.7500 -25.0000 Du        
   3021 ****       -19.2500 -16.7500 -24.7500 Du        
   3022 ****       -19.2500 -16.7500 -24.5000 Du        
   3023 ****       -19.2500 -16.7500 -24.2500 Du        
   3024 ****       -19.2500 -16.7500 -24.0000 Du        
   3025 ****       -19.2500 -16.7500 -23.7500 Du        
   3026 ****       -19.2500 -16.7500 -23.5000 Du        
   3027 ****       -19.2500 -16.7500 -14.7500 Du        
   3028 ****       -19.2500 -16.7500  -7.2500 Du        
   3029 ****       -19.2500 -16.7500  -7.0000 Du        
   3030 ****       -19.2500 -16.7500  -6.7500 Du        
   3031 ****       -19.2500 -16.7500  -6.5000 Du        
   3032 ****       -19.2500 -16.7500  -6.2500 Du        
   3033 ****       -19.2500 -16.7500  -6.0000 Du        
   3034 ****       -19.2500 -16.7500  -5.7500 Du        
   3035 ****       -19.2500 -16.7500  -5.5000 Du        
   3036 ****       -19.2500 -16.7500  -5.2500 Du        
   3037 ****       -19.2500 -16.7500  -5.0000 Du        
   3038 ****       -19.2500 -16.7500  -4.7500 Du        
   3039 ****       -19.2500 -16.7500  -4.5000 Du        
   3040 ****       -19.2500 -16.7500  -4.2500 Du        
   3041 ****       -19.2500 -16.7500  -1.0000 Du        
   3042 ****       -19.2500 -16.7500  -0.7500 Du        
   3043 ****       -19.2500 -16.7500   1.0000 Du        
   3044 ****       -19.2500 -16.7500   1.2500 Du        
   3045 ****       -19.2500 -16.7500   1.5000 Du        
   3046 ****       -19.2500 -16.7500   1.7500 Du        
   3047 ****       -19.2500 -16.7500   2.0000 Du        
   3048 ****       -19.2500 -16.7500   2.2500 Du        
   3049 ****       -19.2500 -16.7500   2.5000 Du        
   3050 ****       -19.2500 -16.5000 -26.5000 Du        
   3051 ****       -19.2500 -16.5000 -26.2500 Du        
   3052 ****       -19.2500 -16.5000 -26.0000 Du        
   3053 ****       -19.2500 -16.5000 -25.7500 Du        
   3054 ****       -19.2500 -16.5000 -25.5000 Du        
   3055 ****       -19.2500 -16.5000 -25.2500 Du        
   3056 ****       -19.2500 -16.5000 -25.0000 Du        
   3057 ****       -19.2500 -16.5000 -24.7500 Du        
   3058 ****       -19.2500 -16.5000 -24.5000 Du        
   3059 ****       -19.2500 -16.5000 -24.2500 Du        
   3060 ****       -19.2500 -16.5000 -24.0000 Du        
   3061 ****       -19.2500 -16.5000 -23.7500 Du        
   3062 ****       -19.2500 -16.5000 -23.5000 Du        
   3063 ****       -19.2500 -16.5000  -6.2500 Du        
   3064 ****       -19.2500 -16.5000  -6.0000 Du        
   3065 ****       -19.2500 -16.5000  -5.7500 Du        
   3066 ****       -19.2500 -16.5000  -5.5000 Du        
   3067 ****       -19.2500 -16.5000  -5.2500 Du        
   3068 ****       -19.2500 -16.5000  -5.0000 Du        
   3069 ****       -19.2500 -16.5000  -4.7500 Du        
   3070 ****       -19.2500 -16.5000  -4.5000 Du        
   3071 ****       -19.2500 -16.5000  -4.2500 Du        
   3072 ****       -19.2500 -16.5000  -1.0000 Du        
   3073 ****       -19.2500 -16.5000  -0.7500 Du        
   3074 ****       -19.2500 -16.5000  -0.5000 Du        
   3075 ****       -19.2500 -16.5000  -0.2500 Du        
   3076 ****       -19.2500 -16.5000   0.0000 Du        
   3077 ****       -19.2500 -16.5000   0.2500 Du        
   3078 ****       -19.2500 -16.5000   0.5000 Du        
   3079 ****       -19.2500 -16.5000   0.7500 Du        
   3080 ****       -19.2500 -16.5000   1.0000 Du        
   3081 ****       -19.2500 -16.5000   1.2500 Du        
   3082 ****       -19.2500 -16.5000   1.5000 Du        
   3083 ****       -19.2500 -16.5000   1.7500 Du        
   3084 ****       -19.2500 -16.5000   2.0000 Du        
   3085 ****       -19.2500 -16.5000   2.2500 Du        
   3086 ****       -19.2500 -16.5000   2.5000 Du        
   3087 ****       -19.2500 -16.2500 -24.7500 Du        
   3088 ****       -19.2500 -16.2500 -24.5000 Du        
   3089 ****       -19.2500 -16.2500 -24.2500 Du        
   3090 ****       -19.2500 -16.2500 -24.0000 Du        
   3091 ****       -19.2500 -16.2500 -23.7500 Du        
   3092 ****       -19.2500 -16.2500  -6.2500 Du        
   3093 ****       -19.2500 -16.2500  -6.0000 Du        
   3094 ****       -19.2500 -16.2500  -5.7500 Du        
   3095 ****       -19.2500 -16.2500  -5.5000 Du        
   3096 ****       -19.2500 -16.2500  -5.2500 Du        
   3097 ****       -19.2500 -16.2500  -5.0000 Du        
   3098 ****       -19.2500 -16.2500  -4.7500 Du        
   3099 ****       -19.2500 -16.2500  -4.5000 Du        
   3100 ****       -19.2500 -16.2500  -0.7500 Du        
   3101 ****       -19.2500 -16.2500  -0.5000 Du        
   3102 ****       -19.2500 -16.2500  -0.2500 Du        
   3103 ****       -19.2500 -16.2500   0.0000 Du        
   3104 ****       -19.2500 -16.2500   0.2500 Du        
   3105 ****       -19.2500 -16.2500   0.5000 Du        
   3106 ****       -19.2500 -16.2500   0.7500 Du        
   3107 ****       -19.2500 -16.2500   1.0000 Du        
   3108 ****       -19.2500 -16.2500   1.2500 Du        
   3109 ****       -19.2500 -16.2500   1.5000 Du        
   3110 ****       -19.2500 -16.2500   1.7500 Du        
   3111 ****       -19.2500 -16.2500   2.0000 Du        
   3112 ****       -19.2500 -16.2500   2.2500 Du        
   3113 ****       -19.2500 -16.2500   2.5000 Du        
   3114 ****       -19.2500 -16.0000 -24.5000 Du        
   3115 ****       -19.2500 -16.0000 -24.2500 Du        
   3116 ****       -19.2500 -16.0000 -24.0000 Du        
   3117 ****       -19.2500 -16.0000 -23.7500 Du        
   3118 ****       -19.2500 -16.0000  -6.0000 Du        
   3119 ****       -19.2500 -16.0000  -5.7500 Du        
   3120 ****       -19.2500 -16.0000  -5.5000 Du        
   3121 ****       -19.2500 -16.0000  -5.2500 Du        
   3122 ****       -19.2500 -16.0000  -5.0000 Du        
   3123 ****       -19.2500 -16.0000   0.7500 Du        
   3124 ****       -19.2500 -16.0000   1.0000 Du        
   3125 ****       -19.2500 -16.0000   1.2500 Du        
   3126 ****       -19.2500 -16.0000   1.5000 Du        
   3127 ****       -19.2500 -16.0000   1.7500 Du        
   3128 ****       -19.2500 -16.0000   2.0000 Du        
   3129 ****       -19.2500 -16.0000   2.2500 Du        
   3130 ****       -19.2500 -16.0000   2.5000 Du        
   3131 ****       -19.2500 -15.7500 -24.0000 Du        
   3132 ****       -19.2500 -14.2500 -15.2500 Du        
   3133 ****       -19.2500 -14.2500 -15.0000 Du        
   3134 ****       -19.2500 -14.2500 -14.7500 Du        
   3135 ****       -19.2500 -14.0000 -16.0000 Du        
   3136 ****       -19.2500 -14.0000 -15.7500 Du        
   3137 ****       -19.2500 -14.0000 -15.5000 Du        
   3138 ****       -19.2500 -14.0000 -15.2500 Du        
   3139 ****       -19.2500 -14.0000 -15.0000 Du        
   3140 ****       -19.2500 -14.0000 -14.7500 Du        
   3141 ****       -19.2500 -13.7500 -16.2500 Du        
   3142 ****       -19.2500 -13.7500 -16.0000 Du        
   3143 ****       -19.2500 -13.7500 -15.7500 Du        
   3144 ****       -19.2500 -13.7500 -15.5000 Du        
   3145 ****       -19.2500 -13.7500 -15.2500 Du        
   3146 ****       -19.2500 -13.7500 -15.0000 Du        
   3147 ****       -19.2500 -13.7500 -14.7500 Du        
   3148 ****       -19.2500 -13.7500 -14.5000 Du        
   3149 ****       -19.2500 -13.5000 -16.5000 Du        
   3150 ****       -19.2500 -13.5000 -16.2500 Du        
   3151 ****       -19.2500 -13.5000 -16.0000 Du        
   3152 ****       -19.2500 -13.5000 -15.7500 Du        
   3153 ****       -19.2500 -13.5000 -15.5000 Du        
   3154 ****       -19.2500 -13.5000 -15.2500 Du        
   3155 ****       -19.2500 -13.5000 -15.0000 Du        
   3156 ****       -19.2500 -13.5000 -14.7500 Du        
   3157 ****       -19.2500 -13.2500 -16.5000 Du        
   3158 ****       -19.2500 -13.2500 -16.2500 Du        
   3159 ****       -19.2500 -13.2500 -16.0000 Du        
   3160 ****       -19.2500 -13.2500 -15.7500 Du        
   3161 ****       -19.2500 -13.2500 -15.5000 Du        
   3162 ****       -19.2500 -13.2500 -15.2500 Du        
   3163 ****       -19.2500 -13.2500 -15.0000 Du        
   3164 ****       -19.2500 -13.2500 -14.7500 Du        
   3165 ****       -19.2500 -13.0000 -16.2500 Du        
   3166 ****       -19.2500 -13.0000 -16.0000 Du        
   3167 ****       -19.2500 -13.0000 -15.7500 Du        
   3168 ****       -19.2500 -13.0000 -15.5000 Du        
   3169 ****       -19.2500 -13.0000 -15.2500 Du        
   3170 ****       -19.2500 -13.0000 -15.0000 Du        
   3171 ****       -19.2500 -13.0000 -14.7500 Du        
   3172 ****       -19.2500 -12.7500 -16.2500 Du        
   3173 ****       -19.2500 -12.7500 -16.0000 Du        
   3174 ****       -19.2500 -12.7500 -15.7500 Du        
   3175 ****       -19.2500 -12.7500 -15.5000 Du        
   3176 ****       -19.2500 -12.7500 -15.2500 Du        
   3177 ****       -19.2500 -12.7500 -15.0000 Du        
   3178 ****       -19.2500 -12.7500 -14.7500 Du        
   3179 ****       -19.2500 -12.5000 -16.2500 Du        
   3180 ****       -19.2500 -12.5000 -16.0000 Du        
   3181 ****       -19.2500 -12.5000 -15.7500 Du        
   3182 ****       -19.2500 -12.5000 -15.2500 Du        
   3183 ****       -19.2500 -12.5000 -15.0000 Du        
   3184 ****       -19.2500 -12.2500 -16.2500 Du        
   3185 ****       -19.2500 -12.2500 -16.0000 Du        
   3186 ****       -19.2500 -12.2500 -15.7500 Du        
   3187 ****       -19.2500 -12.2500 -15.5000 Du        
   3188 ****       -19.2500 -12.2500 -15.2500 Du        
   3189 ****       -19.2500 -12.2500 -15.0000 Du        
   3190 ****       -19.2500 -12.2500 -14.7500 Du        
   3191 ****       -19.2500 -12.0000 -16.2500 Du        
   3192 ****       -19.2500 -12.0000 -16.0000 Du        
   3193 ****       -19.2500 -12.0000 -15.7500 Du        
   3194 ****       -19.2500 -12.0000 -15.5000 Du        
   3195 ****       -19.2500 -12.0000 -15.2500 Du        
   3196 ****       -19.2500 -12.0000 -15.0000 Du        
   3197 ****       -19.2500 -11.7500 -16.2500 Du        
   3198 ****       -19.2500 -11.7500 -16.0000 Du        
   3199 ****       -19.2500 -11.7500 -15.7500 Du        
   3200 ****       -19.2500 -11.2500 -10.0000 Du        
   3201 ****       -19.2500 -11.0000 -11.0000 Du        
   3202 ****       -19.2500 -11.0000 -10.7500 Du        
   3203 ****       -19.2500 -11.0000 -10.2500 Du        
   3204 ****       -19.2500 -11.0000 -10.0000 Du        
   3205 ****       -19.2500 -11.0000  -9.7500 Du        
   3206 ****       -19.2500 -10.7500 -11.2500 Du        
   3207 ****       -19.2500 -10.7500 -11.0000 Du        
   3208 ****       -19.2500 -10.7500 -10.7500 Du        
   3209 ****       -19.2500 -10.7500 -10.2500 Du        
   3210 ****       -19.2500 -10.7500 -10.0000 Du        
   3211 ****       -19.2500 -10.7500  -9.7500 Du        
   3212 ****       -19.2500 -10.5000 -11.0000 Du        
   3213 ****       -19.2500 -10.5000 -10.7500 Du        
   3214 ****       -19.2500 -10.5000 -10.5000 Du        
   3215 ****       -19.2500 -10.5000 -10.2500 Du        
   3216 ****       -19.2500 -10.5000 -10.0000 Du        
   3217 ****       -19.2500 -10.5000  -9.7500 Du        
   3218 ****       -19.2500 -10.5000  -9.5000 Du        
   3219 ****       -19.2500 -10.5000  -9.2500 Du        
   3220 ****       -19.2500 -10.2500 -11.0000 Du        
   3221 ****       -19.2500 -10.2500 -10.7500 Du        
   3222 ****       -19.2500 -10.2500 -10.5000 Du        
   3223 ****       -19.2500 -10.2500 -10.2500 Du        
   3224 ****       -19.2500 -10.2500 -10.0000 Du        
   3225 ****       -19.2500 -10.2500  -9.7500 Du        
   3226 ****       -19.2500 -10.2500  -9.5000 Du        
   3227 ****       -19.2500 -10.2500  -9.2500 Du        
   3228 ****       -19.2500 -10.2500  -9.0000 Du        
   3229 ****       -19.2500 -10.0000 -10.7500 Du        
   3230 ****       -19.2500 -10.0000 -10.5000 Du        
   3231 ****       -19.2500 -10.0000 -10.2500 Du        
   3232 ****       -19.2500 -10.0000 -10.0000 Du        
   3233 ****       -19.2500 -10.0000  -9.7500 Du        
   3234 ****       -19.2500 -10.0000  -9.5000 Du        
   3235 ****       -19.2500 -10.0000  -9.2500 Du        
   3236 ****       -19.2500 -10.0000  -9.0000 Du        
   3237 ****       -19.2500 -10.0000  -8.7500 Du        
   3238 ****       -19.2500  -9.7500 -10.2500 Du        
   3239 ****       -19.2500  -9.7500 -10.0000 Du        
   3240 ****       -19.2500  -9.7500  -9.7500 Du        
   3241 ****       -19.2500  -9.7500  -9.5000 Du        
   3242 ****       -19.2500  -9.7500  -9.2500 Du        
   3243 ****       -19.2500  -9.7500  -9.0000 Du        
   3244 ****       -19.2500  -9.7500  -8.7500 Du        
   3245 ****       -19.2500  -9.5000 -10.2500 Du        
   3246 ****       -19.2500  -9.5000 -10.0000 Du        
   3247 ****       -19.2500  -9.5000  -9.7500 Du        
   3248 ****       -19.2500  -9.5000  -9.5000 Du        
   3249 ****       -19.2500  -9.5000  -9.2500 Du        
   3250 ****       -19.2500  -9.5000  -9.0000 Du        
   3251 ****       -19.2500  -9.5000  -8.7500 Du        
   3252 ****       -19.2500  -9.5000  -8.5000 Du        
   3253 ****       -19.2500  -9.5000  -8.2500 Du        
   3254 ****       -19.2500  -9.2500 -10.0000 Du        
   3255 ****       -19.2500  -9.2500  -9.7500 Du        
   3256 ****       -19.2500  -9.2500  -9.5000 Du        
   3257 ****       -19.2500  -9.2500  -9.2500 Du        
   3258 ****       -19.2500  -9.2500  -9.0000 Du        
   3259 ****       -19.2500  -9.2500  -8.7500 Du        
   3260 ****       -19.2500  -9.2500  -8.5000 Du        
   3261 ****       -19.2500  -9.2500  -8.2500 Du        
   3262 ****       -19.2500  -9.0000  -9.7500 Du        
   3263 ****       -19.2500  -9.0000  -9.5000 Du        
   3264 ****       -19.2500  -9.0000  -9.2500 Du        
   3265 ****       -19.2500  -9.0000  -9.0000 Du        
   3266 ****       -19.2500  -9.0000  -8.7500 Du        
   3267 ****       -19.2500  -9.0000  -8.5000 Du        
   3268 ****       -19.2500  -9.0000  -8.2500 Du        
   3269 ****       -19.2500  -9.0000  -8.0000 Du        
   3270 ****       -19.2500  -8.7500 -27.7500 Du        
   3271 ****       -19.2500  -8.7500  -9.5000 Du        
   3272 ****       -19.2500  -8.7500  -9.2500 Du        
   3273 ****       -19.2500  -8.7500  -9.0000 Du        
   3274 ****       -19.2500  -8.7500  -8.7500 Du        
   3275 ****       -19.2500  -8.7500  -8.5000 Du        
   3276 ****       -19.2500  -8.7500  -8.2500 Du        
   3277 ****       -19.2500  -8.7500  -8.0000 Du        
   3278 ****       -19.2500  -8.5000 -27.7500 Du        
   3279 ****       -19.2500  -8.5000  -9.2500 Du        
   3280 ****       -19.2500  -8.5000  -9.0000 Du        
   3281 ****       -19.2500  -8.5000  -8.7500 Du        
   3282 ****       -19.2500  -8.5000  -8.5000 Du        
   3283 ****       -19.2500  -8.5000  -8.2500 Du        
   3284 ****       -19.2500  -8.5000  -8.0000 Du        
   3285 ****       -19.2500  -8.5000  -7.7500 Du        
   3286 ****       -19.2500  -8.2500 -28.0000 Du        
   3287 ****       -19.2500  -8.2500 -27.7500 Du        
   3288 ****       -19.2500  -8.2500  -9.0000 Du        
   3289 ****       -19.2500  -8.2500  -8.7500 Du        
   3290 ****       -19.2500  -8.2500  -8.5000 Du        
   3291 ****       -19.2500  -8.2500  -8.2500 Du        
   3292 ****       -19.2500  -8.2500  -8.0000 Du        
   3293 ****       -19.2500  -8.2500  -7.7500 Du        
   3294 ****       -19.2500  -8.0000 -28.2500 Du        
   3295 ****       -19.2500  -8.0000 -28.0000 Du        
   3296 ****       -19.2500  -8.0000 -27.7500 Du        
   3297 ****       -19.2500  -8.0000  -8.7500 Du        
   3298 ****       -19.2500  -8.0000  -8.5000 Du        
   3299 ****       -19.2500  -8.0000  -8.2500 Du        
   3300 ****       -19.2500  -8.0000  -8.0000 Du        
   3301 ****       -19.2500  -8.0000  -7.7500 Du        
   3302 ****       -19.2500  -8.0000  -7.5000 Du        
   3303 ****       -19.2500  -7.7500 -28.5000 Du        
   3304 ****       -19.2500  -7.7500 -28.2500 Du        
   3305 ****       -19.2500  -7.7500 -28.0000 Du        
   3306 ****       -19.2500  -7.7500 -27.7500 Du        
   3307 ****       -19.2500  -7.7500  -8.5000 Du        
   3308 ****       -19.2500  -7.7500  -8.2500 Du        
   3309 ****       -19.2500  -7.7500  -8.0000 Du        
   3310 ****       -19.2500  -7.7500  -7.7500 Du        
   3311 ****       -19.2500  -7.7500  -7.5000 Du        
   3312 ****       -19.2500  -7.7500  -7.2500 Du        
   3313 ****       -19.2500  -7.5000 -28.5000 Du        
   3314 ****       -19.2500  -7.5000 -28.2500 Du        
   3315 ****       -19.2500  -7.5000 -28.0000 Du        
   3316 ****       -19.2500  -7.5000 -27.7500 Du        
   3317 ****       -19.2500  -7.5000  -8.2500 Du        
   3318 ****       -19.2500  -7.5000  -8.0000 Du        
   3319 ****       -19.2500  -7.5000  -7.7500 Du        
   3320 ****       -19.2500  -7.5000  -7.5000 Du        
   3321 ****       -19.2500  -7.5000  -7.2500 Du        
   3322 ****       -19.2500  -7.5000  -7.0000 Du        
   3323 ****       -19.2500  -7.2500 -28.7500 Du        
   3324 ****       -19.2500  -7.2500 -28.5000 Du        
   3325 ****       -19.2500  -7.2500 -28.2500 Du        
   3326 ****       -19.2500  -7.2500 -28.0000 Du        
   3327 ****       -19.2500  -7.2500 -27.7500 Du        
   3328 ****       -19.2500  -7.2500  -8.2500 Du        
   3329 ****       -19.2500  -7.2500  -8.0000 Du        
   3330 ****       -19.2500  -7.2500  -7.7500 Du        
   3331 ****       -19.2500  -7.2500  -7.5000 Du        
   3332 ****       -19.2500  -7.2500  -7.2500 Du        
   3333 ****       -19.2500  -7.2500  -7.0000 Du        
   3334 ****       -19.2500  -7.2500  -6.7500 Du        
   3335 ****       -19.2500  -7.0000 -28.7500 Du        
   3336 ****       -19.2500  -7.0000 -28.5000 Du        
   3337 ****       -19.2500  -7.0000 -28.2500 Du        
   3338 ****       -19.2500  -7.0000 -28.0000 Du        
   3339 ****       -19.2500  -7.0000 -27.7500 Du        
   3340 ****       -19.2500  -7.0000  -8.0000 Du        
   3341 ****       -19.2500  -7.0000  -7.7500 Du        
   3342 ****       -19.2500  -7.0000  -7.5000 Du        
   3343 ****       -19.2500  -7.0000  -7.2500 Du        
   3344 ****       -19.2500  -7.0000  -7.0000 Du        
   3345 ****       -19.2500  -6.7500 -28.2500 Du        
   3346 ****       -19.2500  -6.7500 -28.0000 Du        
   3347 ****       -19.2500  -6.7500 -27.7500 Du        
   3348 ****       -19.2500  -6.7500  -8.0000 Du        
   3349 ****       -19.2500  -6.7500  -7.5000 Du        
   3350 ****       -19.2500  -6.7500  -7.2500 Du        
   3351 ****       -19.2500  -6.7500  -7.0000 Du        
   3352 ****       -19.2500  -6.0000  -5.2500 Du        
   3353 ****       -19.2500  -6.0000  -5.0000 Du        
   3354 ****       -19.2500  -5.7500  -5.5000 Du        
   3355 ****       -19.2500  -5.7500  -5.2500 Du        
   3356 ****       -19.2500  -5.7500  -5.0000 Du        
   3357 ****       -19.2500  -5.7500  -4.7500 Du        
   3358 ****       -19.2500  -5.7500  -4.5000 Du        
   3359 ****       -19.2500  -5.5000  -5.5000 Du        
   3360 ****       -19.2500  -5.5000  -5.2500 Du        
   3361 ****       -19.2500  -5.5000  -5.0000 Du        
   3362 ****       -19.2500  -5.5000  -4.7500 Du        
   3363 ****       -19.2500  -5.5000  -4.5000 Du        
   3364 ****       -19.2500  -5.2500  -5.5000 Du        
   3365 ****       -19.2500  -5.2500  -5.2500 Du        
   3366 ****       -19.2500  -5.2500  -5.0000 Du        
   3367 ****       -19.2500  -5.2500  -4.7500 Du        
   3368 ****       -19.2500  -5.2500  -4.5000 Du        
   3369 ****       -19.2500  -5.2500  -4.2500 Du        
   3370 ****       -19.2500  -5.0000  -5.5000 Du        
   3371 ****       -19.2500  -5.0000  -5.2500 Du        
   3372 ****       -19.2500  -5.0000  -5.0000 Du        
   3373 ****       -19.2500  -5.0000  -4.7500 Du        
   3374 ****       -19.2500  -5.0000  -4.5000 Du        
   3375 ****       -19.2500  -4.7500  -5.5000 Du        
   3376 ****       -19.2500  -4.7500  -5.2500 Du        
   3377 ****       -19.2500  -4.7500  -5.0000 Du        
   3378 ****       -19.2500  -4.7500  -4.7500 Du        
   3379 ****       -19.0000 -25.0000  -7.0000 Du        
   3380 ****       -19.0000 -24.7500  -6.7500 Du        
   3381 ****       -19.0000 -24.5000  -6.7500 Du        
   3382 ****       -19.0000 -24.2500  -6.5000 Du        
   3383 ****       -19.0000 -24.2500  -6.2500 Du        
   3384 ****       -19.0000 -19.2500  -8.2500 Du        
   3385 ****       -19.0000 -19.2500  -8.0000 Du        
   3386 ****       -19.0000 -19.2500  -7.7500 Du        
   3387 ****       -19.0000 -19.0000 -24.0000 Du        
   3388 ****       -19.0000 -19.0000 -23.7500 Du        
   3389 ****       -19.0000 -19.0000 -23.5000 Du        
   3390 ****       -19.0000 -19.0000 -23.2500 Du        
   3391 ****       -19.0000 -19.0000 -23.0000 Du        
   3392 ****       -19.0000 -19.0000  -8.5000 Du        
   3393 ****       -19.0000 -19.0000  -8.2500 Du        
   3394 ****       -19.0000 -19.0000  -8.0000 Du        
   3395 ****       -19.0000 -19.0000  -7.7500 Du        
   3396 ****       -19.0000 -18.7500 -24.2500 Du        
   3397 ****       -19.0000 -18.7500 -24.0000 Du        
   3398 ****       -19.0000 -18.7500 -23.7500 Du        
   3399 ****       -19.0000 -18.7500 -23.5000 Du        
   3400 ****       -19.0000 -18.7500 -23.2500 Du        
   3401 ****       -19.0000 -18.7500 -23.0000 Du        
   3402 ****       -19.0000 -18.7500 -22.7500 Du        
   3403 ****       -19.0000 -18.7500  -8.7500 Du        
   3404 ****       -19.0000 -18.7500  -8.5000 Du        
   3405 ****       -19.0000 -18.7500  -8.2500 Du        
   3406 ****       -19.0000 -18.7500  -8.0000 Du        
   3407 ****       -19.0000 -18.7500  -7.7500 Du        
   3408 ****       -19.0000 -18.5000 -24.5000 Du        
   3409 ****       -19.0000 -18.5000 -24.2500 Du        
   3410 ****       -19.0000 -18.5000 -24.0000 Du        
   3411 ****       -19.0000 -18.5000 -23.7500 Du        
   3412 ****       -19.0000 -18.5000 -23.5000 Du        
   3413 ****       -19.0000 -18.5000 -23.2500 Du        
   3414 ****       -19.0000 -18.5000 -23.0000 Du        
   3415 ****       -19.0000 -18.5000 -22.7500 Du        
   3416 ****       -19.0000 -18.5000  -9.0000 Du        
   3417 ****       -19.0000 -18.5000  -8.7500 Du        
   3418 ****       -19.0000 -18.5000  -8.5000 Du        
   3419 ****       -19.0000 -18.5000  -8.2500 Du        
   3420 ****       -19.0000 -18.5000  -8.0000 Du        
   3421 ****       -19.0000 -18.5000  -7.7500 Du        
   3422 ****       -19.0000 -18.2500 -25.0000 Du        
   3423 ****       -19.0000 -18.2500 -24.7500 Du        
   3424 ****       -19.0000 -18.2500 -24.5000 Du        
   3425 ****       -19.0000 -18.2500 -24.2500 Du        
   3426 ****       -19.0000 -18.2500 -24.0000 Du        
   3427 ****       -19.0000 -18.2500 -23.7500 Du        
   3428 ****       -19.0000 -18.2500 -23.5000 Du        
   3429 ****       -19.0000 -18.2500 -23.2500 Du        
   3430 ****       -19.0000 -18.2500 -23.0000 Du        
   3431 ****       -19.0000 -18.2500 -22.7500 Du        
   3432 ****       -19.0000 -18.2500  -9.0000 Du        
   3433 ****       -19.0000 -18.2500  -8.7500 Du        
   3434 ****       -19.0000 -18.2500  -8.5000 Du        
   3435 ****       -19.0000 -18.2500  -8.2500 Du        
   3436 ****       -19.0000 -18.2500  -8.0000 Du        
   3437 ****       -19.0000 -18.2500  -7.7500 Du        
   3438 ****       -19.0000 -18.2500  -7.5000 Du        
   3439 ****       -19.0000 -18.0000 -25.2500 Du        
   3440 ****       -19.0000 -18.0000 -25.0000 Du        
   3441 ****       -19.0000 -18.0000 -24.7500 Du        
   3442 ****       -19.0000 -18.0000 -24.5000 Du        
   3443 ****       -19.0000 -18.0000 -24.2500 Du        
   3444 ****       -19.0000 -18.0000 -24.0000 Du        
   3445 ****       -19.0000 -18.0000 -23.7500 Du        
   3446 ****       -19.0000 -18.0000 -23.5000 Du        
   3447 ****       -19.0000 -18.0000 -23.2500 Du        
   3448 ****       -19.0000 -18.0000 -23.0000 Du        
   3449 ****       -19.0000 -18.0000 -14.2500 Du        
   3450 ****       -19.0000 -18.0000 -14.0000 Du        
   3451 ****       -19.0000 -18.0000 -13.7500 Du        
   3452 ****       -19.0000 -18.0000  -9.0000 Du        
   3453 ****       -19.0000 -18.0000  -8.7500 Du        
   3454 ****       -19.0000 -18.0000  -8.5000 Du        
   3455 ****       -19.0000 -18.0000  -8.2500 Du        
   3456 ****       -19.0000 -18.0000  -8.0000 Du        
   3457 ****       -19.0000 -18.0000  -7.7500 Du        
   3458 ****       -19.0000 -18.0000  -7.5000 Du        
   3459 ****       -19.0000 -18.0000  -7.2500 Du        
   3460 ****       -19.0000 -17.7500 -25.7500 Du        
   3461 ****       -19.0000 -17.7500 -25.5000 Du        
   3462 ****       -19.0000 -17.7500 -25.2500 Du        
   3463 ****       -19.0000 -17.7500 -25.0000 Du        
   3464 ****       -19.0000 -17.7500 -24.7500 Du        
   3465 ****       -19.0000 -17.7500 -24.5000 Du        
   3466 ****       -19.0000 -17.7500 -24.2500 Du        
   3467 ****       -19.0000 -17.7500 -24.0000 Du        
   3468 ****       -19.0000 -17.7500 -23.7500 Du        
   3469 ****       -19.0000 -17.7500 -23.5000 Du        
   3470 ****       -19.0000 -17.7500 -23.2500 Du        
   3471 ****       -19.0000 -17.7500 -23.0000 Du        
   3472 ****       -19.0000 -17.7500 -14.7500 Du        
   3473 ****       -19.0000 -17.7500 -14.5000 Du        
   3474 ****       -19.0000 -17.7500 -14.2500 Du        
   3475 ****       -19.0000 -17.7500 -14.0000 Du        
   3476 ****       -19.0000 -17.7500 -13.7500 Du        
   3477 ****       -19.0000 -17.7500  -8.7500 Du        
   3478 ****       -19.0000 -17.7500  -8.5000 Du        
   3479 ****       -19.0000 -17.7500  -8.2500 Du        
   3480 ****       -19.0000 -17.7500  -8.0000 Du        
   3481 ****       -19.0000 -17.7500  -7.7500 Du        
   3482 ****       -19.0000 -17.7500  -7.5000 Du        
   3483 ****       -19.0000 -17.7500  -7.2500 Du        
   3484 ****       -19.0000 -17.7500  -7.0000 Du        
   3485 ****       -19.0000 -17.5000 -26.0000 Du        
   3486 ****       -19.0000 -17.5000 -25.7500 Du        
   3487 ****       -19.0000 -17.5000 -25.5000 Du        
   3488 ****       -19.0000 -17.5000 -25.2500 Du        
   3489 ****       -19.0000 -17.5000 -25.0000 Du        
   3490 ****       -19.0000 -17.5000 -24.7500 Du        
   3491 ****       -19.0000 -17.5000 -24.5000 Du        
   3492 ****       -19.0000 -17.5000 -24.2500 Du        
   3493 ****       -19.0000 -17.5000 -24.0000 Du        
   3494 ****       -19.0000 -17.5000 -23.7500 Du        
   3495 ****       -19.0000 -17.5000 -23.5000 Du        
   3496 ****       -19.0000 -17.5000 -23.2500 Du        
   3497 ****       -19.0000 -17.5000 -15.0000 Du        
   3498 ****       -19.0000 -17.5000 -14.7500 Du        
   3499 ****       -19.0000 -17.5000 -14.5000 Du        
   3500 ****       -19.0000 -17.5000 -14.2500 Du        
   3501 ****       -19.0000 -17.5000 -14.0000 Du        
   3502 ****       -19.0000 -17.5000  -7.7500 Du        
   3503 ****       -19.0000 -17.5000  -7.5000 Du        
   3504 ****       -19.0000 -17.5000  -7.2500 Du        
   3505 ****       -19.0000 -17.5000  -7.0000 Du        
   3506 ****       -19.0000 -17.5000  -6.7500 Du        
   3507 ****       -19.0000 -17.2500 -26.2500 Du        
   3508 ****       -19.0000 -17.2500 -26.0000 Du        
   3509 ****       -19.0000 -17.2500 -25.7500 Du        
   3510 ****       -19.0000 -17.2500 -25.5000 Du        
   3511 ****       -19.0000 -17.2500 -25.2500 Du        
   3512 ****       -19.0000 -17.2500 -25.0000 Du        
   3513 ****       -19.0000 -17.2500 -24.7500 Du        
   3514 ****       -19.0000 -17.2500 -24.5000 Du        
   3515 ****       -19.0000 -17.2500 -24.2500 Du        
   3516 ****       -19.0000 -17.2500 -24.0000 Du        
   3517 ****       -19.0000 -17.2500 -23.7500 Du        
   3518 ****       -19.0000 -17.2500 -23.5000 Du        
   3519 ****       -19.0000 -17.2500 -23.2500 Du        
   3520 ****       -19.0000 -17.2500 -15.0000 Du        
   3521 ****       -19.0000 -17.2500 -14.7500 Du        
   3522 ****       -19.0000 -17.2500 -14.5000 Du        
   3523 ****       -19.0000 -17.2500 -14.2500 Du        
   3524 ****       -19.0000 -17.2500 -14.0000 Du        
   3525 ****       -19.0000 -17.2500  -8.0000 Du        
   3526 ****       -19.0000 -17.2500  -7.7500 Du        
   3527 ****       -19.0000 -17.2500  -7.5000 Du        
   3528 ****       -19.0000 -17.2500  -7.2500 Du        
   3529 ****       -19.0000 -17.2500  -7.0000 Du        
   3530 ****       -19.0000 -17.2500  -6.7500 Du        
   3531 ****       -19.0000 -17.2500  -6.5000 Du        
   3532 ****       -19.0000 -17.0000 -26.5000 Du        
   3533 ****       -19.0000 -17.0000 -26.2500 Du        
   3534 ****       -19.0000 -17.0000 -26.0000 Du        
   3535 ****       -19.0000 -17.0000 -25.7500 Du        
   3536 ****       -19.0000 -17.0000 -25.5000 Du        
   3537 ****       -19.0000 -17.0000 -25.2500 Du        
   3538 ****       -19.0000 -17.0000 -25.0000 Du        
   3539 ****       -19.0000 -17.0000 -24.7500 Du        
   3540 ****       -19.0000 -17.0000 -24.5000 Du        
   3541 ****       -19.0000 -17.0000 -24.2500 Du        
   3542 ****       -19.0000 -17.0000 -24.0000 Du        
   3543 ****       -19.0000 -17.0000 -23.7500 Du        
   3544 ****       -19.0000 -17.0000 -23.5000 Du        
   3545 ****       -19.0000 -17.0000 -23.2500 Du        
   3546 ****       -19.0000 -17.0000 -15.0000 Du        
   3547 ****       -19.0000 -17.0000 -14.7500 Du        
   3548 ****       -19.0000 -17.0000 -14.5000 Du        
   3549 ****       -19.0000 -17.0000 -14.2500 Du        
   3550 ****       -19.0000 -17.0000  -8.0000 Du        
   3551 ****       -19.0000 -17.0000  -7.7500 Du        
   3552 ****       -19.0000 -17.0000  -7.5000 Du        
   3553 ****       -19.0000 -17.0000  -7.2500 Du        
   3554 ****       -19.0000 -17.0000  -7.0000 Du        
   3555 ****       -19.0000 -17.0000  -6.7500 Du        
   3556 ****       -19.0000 -17.0000  -6.5000 Du        
   3557 ****       -19.0000 -17.0000  -6.2500 Du        
   3558 ****       -19.0000 -17.0000  -6.0000 Du        
   3559 ****       -19.0000 -17.0000  -5.7500 Du        
   3560 ****       -19.0000 -17.0000  -5.5000 Du        
   3561 ****       -19.0000 -17.0000  -5.2500 Du        
   3562 ****       -19.0000 -17.0000  -5.0000 Du        
   3563 ****       -19.0000 -16.7500 -26.5000 Du        
   3564 ****       -19.0000 -16.7500 -26.2500 Du        
   3565 ****       -19.0000 -16.7500 -26.0000 Du        
   3566 ****       -19.0000 -16.7500 -25.7500 Du        
   3567 ****       -19.0000 -16.7500 -25.5000 Du        
   3568 ****       -19.0000 -16.7500 -25.2500 Du        
   3569 ****       -19.0000 -16.7500 -25.0000 Du        
   3570 ****       -19.0000 -16.7500 -24.7500 Du        
   3571 ****       -19.0000 -16.7500 -24.5000 Du        
   3572 ****       -19.0000 -16.7500 -24.2500 Du        
   3573 ****       -19.0000 -16.7500 -24.0000 Du        
   3574 ****       -19.0000 -16.7500 -23.7500 Du        
   3575 ****       -19.0000 -16.7500 -23.5000 Du        
   3576 ****       -19.0000 -16.7500 -15.0000 Du        
   3577 ****       -19.0000 -16.7500 -14.7500 Du        
   3578 ****       -19.0000 -16.7500 -14.5000 Du        
   3579 ****       -19.0000 -16.7500  -7.5000 Du        
   3580 ****       -19.0000 -16.7500  -7.2500 Du        
   3581 ****       -19.0000 -16.7500  -7.0000 Du        
   3582 ****       -19.0000 -16.7500  -6.7500 Du        
   3583 ****       -19.0000 -16.7500  -6.5000 Du        
   3584 ****       -19.0000 -16.7500  -6.2500 Du        
   3585 ****       -19.0000 -16.7500  -6.0000 Du        
   3586 ****       -19.0000 -16.7500  -5.7500 Du        
   3587 ****       -19.0000 -16.7500  -5.5000 Du        
   3588 ****       -19.0000 -16.7500  -5.2500 Du        
   3589 ****       -19.0000 -16.7500  -5.0000 Du        
   3590 ****       -19.0000 -16.7500  -4.7500 Du        
   3591 ****       -19.0000 -16.7500  -4.5000 Du        
   3592 ****       -19.0000 -16.7500   1.5000 Du        
   3593 ****       -19.0000 -16.7500   1.7500 Du        
   3594 ****       -19.0000 -16.7500   2.0000 Du        
   3595 ****       -19.0000 -16.7500   2.2500 Du        
   3596 ****       -19.0000 -16.7500   2.5000 Du        
   3597 ****       -19.0000 -16.7500   2.7500 Du        
   3598 ****       -19.0000 -16.7500   3.0000 Du        
   3599 ****       -19.0000 -16.5000 -26.5000 Du        
   3600 ****       -19.0000 -16.5000 -26.2500 Du        
   3601 ****       -19.0000 -16.5000 -26.0000 Du        
   3602 ****       -19.0000 -16.5000 -25.7500 Du        
   3603 ****       -19.0000 -16.5000 -25.5000 Du        
   3604 ****       -19.0000 -16.5000 -25.2500 Du        
   3605 ****       -19.0000 -16.5000 -25.0000 Du        
   3606 ****       -19.0000 -16.5000 -24.7500 Du        
   3607 ****       -19.0000 -16.5000 -24.5000 Du        
   3608 ****       -19.0000 -16.5000 -24.2500 Du        
   3609 ****       -19.0000 -16.5000 -24.0000 Du        
   3610 ****       -19.0000 -16.5000 -23.7500 Du        
   3611 ****       -19.0000 -16.5000 -14.7500 Du        
   3612 ****       -19.0000 -16.5000 -14.5000 Du        
   3613 ****       -19.0000 -16.5000  -6.2500 Du        
   3614 ****       -19.0000 -16.5000  -6.0000 Du        
   3615 ****       -19.0000 -16.5000  -5.7500 Du        
   3616 ****       -19.0000 -16.5000  -5.5000 Du        
   3617 ****       -19.0000 -16.5000  -5.2500 Du        
   3618 ****       -19.0000 -16.5000  -5.0000 Du        
   3619 ****       -19.0000 -16.5000  -4.7500 Du        
   3620 ****       -19.0000 -16.5000  -4.5000 Du        
   3621 ****       -19.0000 -16.5000   0.7500 Du        
   3622 ****       -19.0000 -16.5000   1.0000 Du        
   3623 ****       -19.0000 -16.5000   1.2500 Du        
   3624 ****       -19.0000 -16.5000   1.5000 Du        
   3625 ****       -19.0000 -16.5000   1.7500 Du        
   3626 ****       -19.0000 -16.5000   2.0000 Du        
   3627 ****       -19.0000 -16.5000   2.2500 Du        
   3628 ****       -19.0000 -16.5000   2.5000 Du        
   3629 ****       -19.0000 -16.5000   2.7500 Du        
   3630 ****       -19.0000 -16.5000   3.0000 Du        
   3631 ****       -19.0000 -16.2500 -26.0000 Du        
   3632 ****       -19.0000 -16.2500 -25.7500 Du        
   3633 ****       -19.0000 -16.2500 -25.5000 Du        
   3634 ****       -19.0000 -16.2500 -25.2500 Du        
   3635 ****       -19.0000 -16.2500 -25.0000 Du        
   3636 ****       -19.0000 -16.2500 -24.7500 Du        
   3637 ****       -19.0000 -16.2500 -24.5000 Du        
   3638 ****       -19.0000 -16.2500 -24.2500 Du        
   3639 ****       -19.0000 -16.2500 -24.0000 Du        
   3640 ****       -19.0000 -16.2500 -23.7500 Du        
   3641 ****       -19.0000 -16.2500 -14.7500 Du        
   3642 ****       -19.0000 -16.2500  -6.0000 Du        
   3643 ****       -19.0000 -16.2500  -5.7500 Du        
   3644 ****       -19.0000 -16.2500  -5.5000 Du        
   3645 ****       -19.0000 -16.2500  -5.2500 Du        
   3646 ****       -19.0000 -16.2500  -5.0000 Du        
   3647 ****       -19.0000 -16.2500   0.7500 Du        
   3648 ****       -19.0000 -16.2500   1.0000 Du        
   3649 ****       -19.0000 -16.2500   1.2500 Du        
   3650 ****       -19.0000 -16.2500   1.5000 Du        
   3651 ****       -19.0000 -16.2500   1.7500 Du        
   3652 ****       -19.0000 -16.2500   2.0000 Du        
   3653 ****       -19.0000 -16.2500   2.2500 Du        
   3654 ****       -19.0000 -16.2500   2.5000 Du        
   3655 ****       -19.0000 -16.2500   2.7500 Du        
   3656 ****       -19.0000 -16.2500   3.0000 Du        
   3657 ****       -19.0000 -16.0000 -24.7500 Du        
   3658 ****       -19.0000 -16.0000 -24.5000 Du        
   3659 ****       -19.0000 -16.0000 -24.2500 Du        
   3660 ****       -19.0000 -16.0000 -24.0000 Du        
   3661 ****       -19.0000 -16.0000 -23.7500 Du        
   3662 ****       -19.0000 -16.0000  -6.0000 Du        
   3663 ****       -19.0000 -16.0000  -5.7500 Du        
   3664 ****       -19.0000 -16.0000  -5.5000 Du        
   3665 ****       -19.0000 -16.0000  -5.2500 Du        
   3666 ****       -19.0000 -16.0000   1.2500 Du        
   3667 ****       -19.0000 -16.0000   1.5000 Du        
   3668 ****       -19.0000 -16.0000   1.7500 Du        
   3669 ****       -19.0000 -16.0000   2.0000 Du        
   3670 ****       -19.0000 -16.0000   2.2500 Du        
   3671 ****       -19.0000 -16.0000   2.5000 Du        
   3672 ****       -19.0000 -16.0000   2.7500 Du        
   3673 ****       -19.0000 -16.0000   3.0000 Du        
   3674 ****       -19.0000 -15.7500 -24.2500 Du        
   3675 ****       -19.0000 -15.7500 -24.0000 Du        
   3676 ****       -19.0000 -15.7500 -23.7500 Du        
   3677 ****       -19.0000 -14.7500 -15.0000 Du        
   3678 ****       -19.0000 -14.7500 -14.7500 Du        
   3679 ****       -19.0000 -14.5000 -15.2500 Du        
   3680 ****       -19.0000 -14.5000 -15.0000 Du        
   3681 ****       -19.0000 -14.5000 -14.7500 Du        
   3682 ****       -19.0000 -14.2500 -16.0000 Du        
   3683 ****       -19.0000 -14.2500 -15.7500 Du        
   3684 ****       -19.0000 -14.2500 -15.5000 Du        
   3685 ****       -19.0000 -14.2500 -15.2500 Du        
   3686 ****       -19.0000 -14.2500 -15.0000 Du        
   3687 ****       -19.0000 -14.2500 -14.7500 Du        
   3688 ****       -19.0000 -14.0000 -16.5000 Du        
   3689 ****       -19.0000 -14.0000 -16.2500 Du        
   3690 ****       -19.0000 -14.0000 -16.0000 Du        
   3691 ****       -19.0000 -14.0000 -15.7500 Du        
   3692 ****       -19.0000 -14.0000 -15.5000 Du        
   3693 ****       -19.0000 -14.0000 -15.2500 Du        
   3694 ****       -19.0000 -14.0000 -15.0000 Du        
   3695 ****       -19.0000 -14.0000 -14.7500 Du        
   3696 ****       -19.0000 -13.7500 -16.7500 Du        
   3697 ****       -19.0000 -13.7500 -16.5000 Du        
   3698 ****       -19.0000 -13.7500 -16.2500 Du        
   3699 ****       -19.0000 -13.7500 -16.0000 Du        
   3700 ****       -19.0000 -13.7500 -15.7500 Du        
   3701 ****       -19.0000 -13.7500 -15.5000 Du        
   3702 ****       -19.0000 -13.7500 -15.2500 Du        
   3703 ****       -19.0000 -13.7500 -15.0000 Du        
   3704 ****       -19.0000 -13.7500 -14.7500 Du        
   3705 ****       -19.0000 -13.7500 -14.5000 Du        
   3706 ****       -19.0000 -13.5000 -16.7500 Du        
   3707 ****       -19.0000 -13.5000 -16.5000 Du        
   3708 ****       -19.0000 -13.5000 -16.2500 Du        
   3709 ****       -19.0000 -13.5000 -16.0000 Du        
   3710 ****       -19.0000 -13.5000 -15.7500 Du        
   3711 ****       -19.0000 -13.5000 -15.5000 Du        
   3712 ****       -19.0000 -13.5000 -15.2500 Du        
   3713 ****       -19.0000 -13.5000 -15.0000 Du        
   3714 ****       -19.0000 -13.5000 -14.7500 Du        
   3715 ****       -19.0000 -13.2500 -16.5000 Du        
   3716 ****       -19.0000 -13.2500 -16.2500 Du        
   3717 ****       -19.0000 -13.2500 -16.0000 Du        
   3718 ****       -19.0000 -13.2500 -15.7500 Du        
   3719 ****       -19.0000 -13.2500 -15.5000 Du        
   3720 ****       -19.0000 -13.2500 -15.2500 Du        
   3721 ****       -19.0000 -13.2500 -15.0000 Du        
   3722 ****       -19.0000 -13.2500 -14.7500 Du        
   3723 ****       -19.0000 -13.0000 -16.5000 Du        
   3724 ****       -19.0000 -13.0000 -16.2500 Du        
   3725 ****       -19.0000 -13.0000 -16.0000 Du        
   3726 ****       -19.0000 -13.0000 -15.7500 Du        
   3727 ****       -19.0000 -13.0000 -15.5000 Du        
   3728 ****       -19.0000 -13.0000 -15.2500 Du        
   3729 ****       -19.0000 -13.0000 -15.0000 Du        
   3730 ****       -19.0000 -13.0000 -14.7500 Du        
   3731 ****       -19.0000 -12.7500 -16.5000 Du        
   3732 ****       -19.0000 -12.7500 -16.2500 Du        
   3733 ****       -19.0000 -12.7500 -16.0000 Du        
   3734 ****       -19.0000 -12.7500 -15.7500 Du        
   3735 ****       -19.0000 -12.7500 -15.5000 Du        
   3736 ****       -19.0000 -12.7500 -15.2500 Du        
   3737 ****       -19.0000 -12.7500 -15.0000 Du        
   3738 ****       -19.0000 -12.7500 -14.7500 Du        
   3739 ****       -19.0000 -12.5000 -16.5000 Du        
   3740 ****       -19.0000 -12.5000 -16.2500 Du        
   3741 ****       -19.0000 -12.5000 -16.0000 Du        
   3742 ****       -19.0000 -12.5000 -15.7500 Du        
   3743 ****       -19.0000 -12.2500 -16.5000 Du        
   3744 ****       -19.0000 -12.2500 -16.2500 Du        
   3745 ****       -19.0000 -12.2500 -16.0000 Du        
   3746 ****       -19.0000 -12.2500 -15.7500 Du        
   3747 ****       -19.0000 -12.2500 -15.5000 Du        
   3748 ****       -19.0000 -12.2500 -15.2500 Du        
   3749 ****       -19.0000 -12.2500 -15.0000 Du        
   3750 ****       -19.0000 -12.2500 -14.7500 Du        
   3751 ****       -19.0000 -12.0000 -16.5000 Du        
   3752 ****       -19.0000 -12.0000 -16.2500 Du        
   3753 ****       -19.0000 -12.0000 -16.0000 Du        
   3754 ****       -19.0000 -12.0000 -15.7500 Du        
   3755 ****       -19.0000 -12.0000 -15.5000 Du        
   3756 ****       -19.0000 -12.0000 -15.2500 Du        
   3757 ****       -19.0000 -12.0000 -15.0000 Du        
   3758 ****       -19.0000 -11.7500 -16.2500 Du        
   3759 ****       -19.0000 -11.7500 -16.0000 Du        
   3760 ****       -19.0000 -11.7500 -15.7500 Du        
   3761 ****       -19.0000 -11.2500 -11.0000 Du        
   3762 ****       -19.0000 -11.2500 -10.7500 Du        
   3763 ****       -19.0000 -11.2500 -10.5000 Du        
   3764 ****       -19.0000 -11.2500 -10.2500 Du        
   3765 ****       -19.0000 -11.2500 -10.0000 Du        
   3766 ****       -19.0000 -11.0000 -11.2500 Du        
   3767 ****       -19.0000 -11.0000 -11.0000 Du        
   3768 ****       -19.0000 -11.0000 -10.7500 Du        
   3769 ****       -19.0000 -11.0000 -10.5000 Du        
   3770 ****       -19.0000 -11.0000 -10.2500 Du        
   3771 ****       -19.0000 -11.0000 -10.0000 Du        
   3772 ****       -19.0000 -11.0000  -9.7500 Du        
   3773 ****       -19.0000 -10.7500 -11.2500 Du        
   3774 ****       -19.0000 -10.7500 -11.0000 Du        
   3775 ****       -19.0000 -10.7500 -10.7500 Du        
   3776 ****       -19.0000 -10.7500 -10.5000 Du        
   3777 ****       -19.0000 -10.7500 -10.2500 Du        
   3778 ****       -19.0000 -10.7500 -10.0000 Du        
   3779 ****       -19.0000 -10.7500  -9.7500 Du        
   3780 ****       -19.0000 -10.5000 -11.2500 Du        
   3781 ****       -19.0000 -10.5000 -11.0000 Du        
   3782 ****       -19.0000 -10.5000 -10.7500 Du        
   3783 ****       -19.0000 -10.5000 -10.5000 Du        
   3784 ****       -19.0000 -10.5000 -10.2500 Du        
   3785 ****       -19.0000 -10.5000 -10.0000 Du        
   3786 ****       -19.0000 -10.5000  -9.7500 Du        
   3787 ****       -19.0000 -10.5000  -9.5000 Du        
   3788 ****       -19.0000 -10.5000  -9.2500 Du        
   3789 ****       -19.0000 -10.2500 -11.2500 Du        
   3790 ****       -19.0000 -10.2500 -11.0000 Du        
   3791 ****       -19.0000 -10.2500 -10.7500 Du        
   3792 ****       -19.0000 -10.2500 -10.5000 Du        
   3793 ****       -19.0000 -10.2500 -10.2500 Du        
   3794 ****       -19.0000 -10.2500 -10.0000 Du        
   3795 ****       -19.0000 -10.2500  -9.7500 Du        
   3796 ****       -19.0000 -10.2500  -9.5000 Du        
   3797 ****       -19.0000 -10.2500  -9.2500 Du        
   3798 ****       -19.0000 -10.2500  -9.0000 Du        
   3799 ****       -19.0000 -10.0000 -10.7500 Du        
   3800 ****       -19.0000 -10.0000 -10.5000 Du        
   3801 ****       -19.0000 -10.0000 -10.2500 Du        
   3802 ****       -19.0000 -10.0000 -10.0000 Du        
   3803 ****       -19.0000 -10.0000  -9.7500 Du        
   3804 ****       -19.0000 -10.0000  -9.5000 Du        
   3805 ****       -19.0000 -10.0000  -9.2500 Du        
   3806 ****       -19.0000 -10.0000  -9.0000 Du        
   3807 ****       -19.0000 -10.0000  -8.7500 Du        
   3808 ****       -19.0000  -9.7500 -10.5000 Du        
   3809 ****       -19.0000  -9.7500 -10.2500 Du        
   3810 ****       -19.0000  -9.7500 -10.0000 Du        
   3811 ****       -19.0000  -9.7500  -9.7500 Du        
   3812 ****       -19.0000  -9.7500  -9.5000 Du        
   3813 ****       -19.0000  -9.7500  -9.2500 Du        
   3814 ****       -19.0000  -9.7500  -9.0000 Du        
   3815 ****       -19.0000  -9.7500  -8.7500 Du        
   3816 ****       -19.0000  -9.5000 -10.2500 Du        
   3817 ****       -19.0000  -9.5000 -10.0000 Du        
   3818 ****       -19.0000  -9.5000  -9.7500 Du        
   3819 ****       -19.0000  -9.5000  -9.5000 Du        
   3820 ****       -19.0000  -9.5000  -9.2500 Du        
   3821 ****       -19.0000  -9.5000  -9.0000 Du        
   3822 ****       -19.0000  -9.5000  -8.7500 Du        
   3823 ****       -19.0000  -9.5000  -8.5000 Du        
   3824 ****       -19.0000  -9.5000  -8.2500 Du        
   3825 ****       -19.0000  -9.2500 -10.0000 Du        
   3826 ****       -19.0000  -9.2500  -9.7500 Du        
   3827 ****       -19.0000  -9.2500  -9.5000 Du        
   3828 ****       -19.0000  -9.2500  -9.2500 Du        
   3829 ****       -19.0000  -9.2500  -9.0000 Du        
   3830 ****       -19.0000  -9.2500  -8.7500 Du        
   3831 ****       -19.0000  -9.2500  -8.5000 Du        
   3832 ****       -19.0000  -9.2500  -8.2500 Du        
   3833 ****       -19.0000  -9.0000  -9.7500 Du        
   3834 ****       -19.0000  -9.0000  -9.5000 Du        
   3835 ****       -19.0000  -9.0000  -9.2500 Du        
   3836 ****       -19.0000  -9.0000  -9.0000 Du        
   3837 ****       -19.0000  -9.0000  -8.7500 Du        
   3838 ****       -19.0000  -9.0000  -8.5000 Du        
   3839 ****       -19.0000  -9.0000  -8.2500 Du        
   3840 ****       -19.0000  -9.0000  -8.0000 Du        
   3841 ****       -19.0000  -8.7500 -27.7500 Du        
   3842 ****       -19.0000  -8.7500  -9.5000 Du        
   3843 ****       -19.0000  -8.7500  -9.2500 Du        
   3844 ****       -19.0000  -8.7500  -9.0000 Du        
   3845 ****       -19.0000  -8.7500  -8.7500 Du        
   3846 ****       -19.0000  -8.7500  -8.5000 Du        
   3847 ****       -19.0000  -8.7500  -8.2500 Du        
   3848 ****       -19.0000  -8.7500  -8.0000 Du        
   3849 ****       -19.0000  -8.5000 -27.7500 Du        
   3850 ****       -19.0000  -8.5000  -9.2500 Du        
   3851 ****       -19.0000  -8.5000  -9.0000 Du        
   3852 ****       -19.0000  -8.5000  -8.7500 Du        
   3853 ****       -19.0000  -8.5000  -8.5000 Du        
   3854 ****       -19.0000  -8.5000  -8.2500 Du        
   3855 ****       -19.0000  -8.5000  -8.0000 Du        
   3856 ****       -19.0000  -8.5000  -7.7500 Du        
   3857 ****       -19.0000  -8.2500 -28.0000 Du        
   3858 ****       -19.0000  -8.2500 -27.7500 Du        
   3859 ****       -19.0000  -8.2500 -27.5000 Du        
   3860 ****       -19.0000  -8.2500  -9.0000 Du        
   3861 ****       -19.0000  -8.2500  -8.7500 Du        
   3862 ****       -19.0000  -8.2500  -8.5000 Du        
   3863 ****       -19.0000  -8.2500  -8.2500 Du        
   3864 ****       -19.0000  -8.2500  -8.0000 Du        
   3865 ****       -19.0000  -8.2500  -7.7500 Du        
   3866 ****       -19.0000  -8.0000 -28.2500 Du        
   3867 ****       -19.0000  -8.0000 -28.0000 Du        
   3868 ****       -19.0000  -8.0000 -27.7500 Du        
   3869 ****       -19.0000  -8.0000  -9.0000 Du        
   3870 ****       -19.0000  -8.0000  -8.7500 Du        
   3871 ****       -19.0000  -8.0000  -8.5000 Du        
   3872 ****       -19.0000  -8.0000  -8.2500 Du        
   3873 ****       -19.0000  -8.0000  -8.0000 Du        
   3874 ****       -19.0000  -8.0000  -7.7500 Du        
   3875 ****       -19.0000  -8.0000  -7.5000 Du        
   3876 ****       -19.0000  -7.7500 -28.2500 Du        
   3877 ****       -19.0000  -7.7500 -28.0000 Du        
   3878 ****       -19.0000  -7.7500 -27.7500 Du        
   3879 ****       -19.0000  -7.7500  -8.7500 Du        
   3880 ****       -19.0000  -7.7500  -8.5000 Du        
   3881 ****       -19.0000  -7.7500  -8.2500 Du        
   3882 ****       -19.0000  -7.7500  -8.0000 Du        
   3883 ****       -19.0000  -7.7500  -7.7500 Du        
   3884 ****       -19.0000  -7.7500  -7.5000 Du        
   3885 ****       -19.0000  -7.7500  -7.2500 Du        
   3886 ****       -19.0000  -7.5000 -28.2500 Du        
   3887 ****       -19.0000  -7.5000 -28.0000 Du        
   3888 ****       -19.0000  -7.5000 -27.7500 Du        
   3889 ****       -19.0000  -7.5000  -8.5000 Du        
   3890 ****       -19.0000  -7.5000  -8.2500 Du        
   3891 ****       -19.0000  -7.5000  -8.0000 Du        
   3892 ****       -19.0000  -7.5000  -7.7500 Du        
   3893 ****       -19.0000  -7.5000  -7.5000 Du        
   3894 ****       -19.0000  -7.5000  -7.2500 Du        
   3895 ****       -19.0000  -7.5000  -7.0000 Du        
   3896 ****       -19.0000  -7.2500 -28.5000 Du        
   3897 ****       -19.0000  -7.2500 -28.2500 Du        
   3898 ****       -19.0000  -7.2500 -28.0000 Du        
   3899 ****       -19.0000  -7.2500 -27.7500 Du        
   3900 ****       -19.0000  -7.2500  -8.2500 Du        
   3901 ****       -19.0000  -7.2500  -8.0000 Du        
   3902 ****       -19.0000  -7.2500  -7.7500 Du        
   3903 ****       -19.0000  -7.2500  -7.5000 Du        
   3904 ****       -19.0000  -7.2500  -7.2500 Du        
   3905 ****       -19.0000  -7.2500  -7.0000 Du        
   3906 ****       -19.0000  -7.2500  -6.7500 Du        
   3907 ****       -19.0000  -7.0000 -28.7500 Du        
   3908 ****       -19.0000  -7.0000 -28.5000 Du        
   3909 ****       -19.0000  -7.0000 -28.2500 Du        
   3910 ****       -19.0000  -7.0000 -28.0000 Du        
   3911 ****       -19.0000  -7.0000 -27.7500 Du        
   3912 ****       -19.0000  -7.0000 -27.5000 Du        
   3913 ****       -19.0000  -7.0000  -8.2500 Du        
   3914 ****       -19.0000  -7.0000  -8.0000 Du        
   3915 ****       -19.0000  -7.0000  -7.7500 Du        
   3916 ****       -19.0000  -7.0000  -7.5000 Du        
   3917 ****       -19.0000  -7.0000  -7.2500 Du        
   3918 ****       -19.0000  -7.0000  -7.0000 Du        
   3919 ****       -19.0000  -7.0000  -6.7500 Du        
   3920 ****       -19.0000  -6.7500 -28.5000 Du        
   3921 ****       -19.0000  -6.7500 -28.2500 Du        
   3922 ****       -19.0000  -6.7500 -28.0000 Du        
   3923 ****       -19.0000  -6.7500 -27.7500 Du        
   3924 ****       -19.0000  -6.7500  -8.2500 Du        
   3925 ****       -19.0000  -6.7500  -8.0000 Du        
   3926 ****       -19.0000  -6.7500  -7.7500 Du        
   3927 ****       -19.0000  -6.7500  -7.5000 Du        
   3928 ****       -19.0000  -6.7500  -7.2500 Du        
   3929 ****       -19.0000  -6.7500  -7.0000 Du        
   3930 ****       -19.0000  -6.7500  -6.7500 Du        
   3931 ****       -19.0000  -6.7500  -6.5000 Du        
   3932 ****       -19.0000  -6.5000  -8.0000 Du        
   3933 ****       -19.0000  -6.5000  -7.7500 Du        
   3934 ****       -19.0000  -6.5000  -7.5000 Du        
   3935 ****       -19.0000  -6.5000  -7.2500 Du        
   3936 ****       -19.0000  -6.5000  -7.0000 Du        
   3937 ****       -19.0000  -6.5000  -6.7500 Du        
   3938 ****       -19.0000  -6.2500  -7.7500 Du        
   3939 ****       -19.0000  -6.2500  -7.5000 Du        
   3940 ****       -19.0000  -6.2500  -7.2500 Du        
   3941 ****       -19.0000  -6.2500  -7.0000 Du        
   3942 ****       -19.0000  -6.2500  -6.7500 Du        
   3943 ****       -19.0000  -6.2500  -6.5000 Du        
   3944 ****       -19.0000  -6.2500  -6.2500 Du        
   3945 ****       -19.0000  -6.2500  -6.0000 Du        
   3946 ****       -19.0000  -6.0000  -7.2500 Du        
   3947 ****       -19.0000  -6.0000  -7.0000 Du        
   3948 ****       -19.0000  -6.0000  -6.2500 Du        
   3949 ****       -19.0000  -6.0000  -6.0000 Du        
   3950 ****       -19.0000  -6.0000  -5.7500 Du        
   3951 ****       -19.0000  -6.0000  -5.5000 Du        
   3952 ****       -19.0000  -6.0000  -5.2500 Du        
   3953 ****       -19.0000  -6.0000  -5.0000 Du        
   3954 ****       -19.0000  -6.0000  -4.7500 Du        
   3955 ****       -19.0000  -5.7500  -6.2500 Du        
   3956 ****       -19.0000  -5.7500  -6.0000 Du        
   3957 ****       -19.0000  -5.7500  -5.7500 Du        
   3958 ****       -19.0000  -5.7500  -5.5000 Du        
   3959 ****       -19.0000  -5.7500  -5.2500 Du        
   3960 ****       -19.0000  -5.7500  -5.0000 Du        
   3961 ****       -19.0000  -5.7500  -4.7500 Du        
   3962 ****       -19.0000  -5.7500  -4.5000 Du        
   3963 ****       -19.0000  -5.7500  -4.2500 Du        
   3964 ****       -19.0000  -5.5000  -5.7500 Du        
   3965 ****       -19.0000  -5.5000  -5.5000 Du        
   3966 ****       -19.0000  -5.5000  -5.2500 Du        
   3967 ****       -19.0000  -5.5000  -5.0000 Du        
   3968 ****       -19.0000  -5.5000  -4.7500 Du        
   3969 ****       -19.0000  -5.5000  -4.5000 Du        
   3970 ****       -19.0000  -5.5000  -4.2500 Du        
   3971 ****       -19.0000  -5.2500  -5.7500 Du        
   3972 ****       -19.0000  -5.2500  -5.5000 Du        
   3973 ****       -19.0000  -5.2500  -5.2500 Du        
   3974 ****       -19.0000  -5.2500  -5.0000 Du        
   3975 ****       -19.0000  -5.2500  -4.7500 Du        
   3976 ****       -19.0000  -5.2500  -4.5000 Du        
   3977 ****       -19.0000  -5.2500  -4.2500 Du        
   3978 ****       -19.0000  -5.0000  -5.5000 Du        
   3979 ****       -19.0000  -5.0000  -5.2500 Du        
   3980 ****       -19.0000  -5.0000  -5.0000 Du        
   3981 ****       -19.0000  -5.0000  -4.7500 Du        
   3982 ****       -19.0000  -5.0000  -4.5000 Du        
   3983 ****       -19.0000  -5.0000  -4.2500 Du        
   3984 ****       -19.0000  -4.7500  -5.5000 Du        
   3985 ****       -19.0000  -4.7500  -5.2500 Du        
   3986 ****       -19.0000  -4.7500  -5.0000 Du        
   3987 ****       -19.0000  -4.7500  -4.7500 Du        
   3988 ****       -19.0000  -4.7500  -4.5000 Du        
   3989 ****       -19.0000  -4.5000  -5.5000 Du        
   3990 ****       -19.0000  -4.5000  -5.2500 Du        
   3991 ****       -19.0000  -4.5000  -5.0000 Du        
   3992 ****       -19.0000  -4.5000  -4.7500 Du        
   3993 ****       -19.0000  -4.2500  -5.2500 Du        
   3994 ****       -19.0000  -4.2500  -5.0000 Du        
   3995 ****       -18.7500 -26.0000  -9.0000 Du        
   3996 ****       -18.7500 -26.0000  -8.7500 Du        
   3997 ****       -18.7500 -25.7500  -9.0000 Du        
   3998 ****       -18.7500 -25.7500  -8.7500 Du        
   3999 ****       -18.7500 -25.5000  -9.2500 Du        
   4000 ****       -18.7500 -25.5000  -9.0000 Du        
   4001 ****       -18.7500 -25.5000  -8.7500 Du        
   4002 ****       -18.7500 -25.5000  -8.0000 Du        
   4003 ****       -18.7500 -25.2500  -8.2500 Du        
   4004 ****       -18.7500 -25.2500  -8.0000 Du        
   4005 ****       -18.7500 -25.2500  -7.7500 Du        
   4006 ****       -18.7500 -25.0000  -8.0000 Du        
   4007 ****       -18.7500 -25.0000  -7.7500 Du        
   4008 ****       -18.7500 -25.0000  -7.2500 Du        
   4009 ****       -18.7500 -24.7500  -7.2500 Du        
   4010 ****       -18.7500 -24.5000  -7.2500 Du        
   4011 ****       -18.7500 -24.5000  -7.0000 Du        
   4012 ****       -18.7500 -24.5000  -6.7500 Du        
   4013 ****       -18.7500 -24.2500  -7.0000 Du        
   4014 ****       -18.7500 -24.2500  -6.7500 Du        
   4015 ****       -18.7500 -24.2500  -6.5000 Du        
   4016 ****       -18.7500 -24.0000  -6.7500 Du        
   4017 ****       -18.7500 -19.5000  -8.5000 Du        
   4018 ****       -18.7500 -19.5000  -8.2500 Du        
   4019 ****       -18.7500 -19.5000  -8.0000 Du        
   4020 ****       -18.7500 -19.2500  -8.7500 Du        
   4021 ****       -18.7500 -19.2500  -8.5000 Du        
   4022 ****       -18.7500 -19.2500  -8.2500 Du        
   4023 ****       -18.7500 -19.2500  -8.0000 Du        
   4024 ****       -18.7500 -19.2500  -7.7500 Du        
   4025 ****       -18.7500 -19.0000 -23.5000 Du        
   4026 ****       -18.7500 -19.0000 -23.2500 Du        
   4027 ****       -18.7500 -19.0000 -23.0000 Du        
   4028 ****       -18.7500 -19.0000  -9.0000 Du        
   4029 ****       -18.7500 -19.0000  -8.7500 Du        
   4030 ****       -18.7500 -19.0000  -8.5000 Du        
   4031 ****       -18.7500 -19.0000  -8.2500 Du        
   4032 ****       -18.7500 -19.0000  -8.0000 Du        
   4033 ****       -18.7500 -19.0000  -7.7500 Du        
   4034 ****       -18.7500 -18.7500 -24.0000 Du        
   4035 ****       -18.7500 -18.7500 -23.7500 Du        
   4036 ****       -18.7500 -18.7500 -23.5000 Du        
   4037 ****       -18.7500 -18.7500 -23.2500 Du        
   4038 ****       -18.7500 -18.7500 -23.0000 Du        
   4039 ****       -18.7500 -18.7500 -22.7500 Du        
   4040 ****       -18.7500 -18.7500  -9.2500 Du        
   4041 ****       -18.7500 -18.7500  -9.0000 Du        
   4042 ****       -18.7500 -18.7500  -8.7500 Du        
   4043 ****       -18.7500 -18.7500  -8.5000 Du        
   4044 ****       -18.7500 -18.7500  -8.2500 Du        
   4045 ****       -18.7500 -18.7500  -8.0000 Du        
   4046 ****       -18.7500 -18.7500  -7.7500 Du        
   4047 ****       -18.7500 -18.7500  -7.5000 Du        
   4048 ****       -18.7500 -18.5000 -24.2500 Du        
   4049 ****       -18.7500 -18.5000 -24.0000 Du        
   4050 ****       -18.7500 -18.5000 -23.7500 Du        
   4051 ****       -18.7500 -18.5000 -23.5000 Du        
   4052 ****       -18.7500 -18.5000 -23.2500 Du        
   4053 ****       -18.7500 -18.5000 -23.0000 Du        
   4054 ****       -18.7500 -18.5000 -22.7500 Du        
   4055 ****       -18.7500 -18.5000  -9.2500 Du        
   4056 ****       -18.7500 -18.5000  -9.0000 Du        
   4057 ****       -18.7500 -18.5000  -8.7500 Du        
   4058 ****       -18.7500 -18.5000  -8.5000 Du        
   4059 ****       -18.7500 -18.5000  -8.2500 Du        
   4060 ****       -18.7500 -18.5000  -8.0000 Du        
   4061 ****       -18.7500 -18.5000  -7.7500 Du        
   4062 ****       -18.7500 -18.2500 -24.7500 Du        
   4063 ****       -18.7500 -18.2500 -24.5000 Du        
   4064 ****       -18.7500 -18.2500 -24.2500 Du        
   4065 ****       -18.7500 -18.2500 -24.0000 Du        
   4066 ****       -18.7500 -18.2500 -23.7500 Du        
   4067 ****       -18.7500 -18.2500 -23.5000 Du        
   4068 ****       -18.7500 -18.2500 -23.2500 Du        
   4069 ****       -18.7500 -18.2500 -23.0000 Du        
   4070 ****       -18.7500 -18.2500 -22.7500 Du        
   4071 ****       -18.7500 -18.2500  -9.5000 Du        
   4072 ****       -18.7500 -18.2500  -9.2500 Du        
   4073 ****       -18.7500 -18.2500  -9.0000 Du        
   4074 ****       -18.7500 -18.2500  -8.7500 Du        
   4075 ****       -18.7500 -18.2500  -8.5000 Du        
   4076 ****       -18.7500 -18.2500  -8.2500 Du        
   4077 ****       -18.7500 -18.2500  -8.0000 Du        
   4078 ****       -18.7500 -18.2500  -7.7500 Du        
   4079 ****       -18.7500 -18.2500  -7.5000 Du        
   4080 ****       -18.7500 -18.2500  -7.2500 Du        
   4081 ****       -18.7500 -18.0000 -25.2500 Du        
   4082 ****       -18.7500 -18.0000 -25.0000 Du        
   4083 ****       -18.7500 -18.0000 -24.7500 Du        
   4084 ****       -18.7500 -18.0000 -24.5000 Du        
   4085 ****       -18.7500 -18.0000 -24.2500 Du        
   4086 ****       -18.7500 -18.0000 -24.0000 Du        
   4087 ****       -18.7500 -18.0000 -23.7500 Du        
   4088 ****       -18.7500 -18.0000 -23.5000 Du        
   4089 ****       -18.7500 -18.0000 -23.2500 Du        
   4090 ****       -18.7500 -18.0000 -23.0000 Du        
   4091 ****       -18.7500 -18.0000 -14.2500 Du        
   4092 ****       -18.7500 -18.0000 -14.0000 Du        
   4093 ****       -18.7500 -18.0000 -13.7500 Du        
   4094 ****       -18.7500 -18.0000 -13.5000 Du        
   4095 ****       -18.7500 -18.0000  -9.2500 Du        
   4096 ****       -18.7500 -18.0000  -9.0000 Du        
   4097 ****       -18.7500 -18.0000  -8.7500 Du        
   4098 ****       -18.7500 -18.0000  -8.5000 Du        
   4099 ****       -18.7500 -18.0000  -8.2500 Du        
   4100 ****       -18.7500 -18.0000  -8.0000 Du        
   4101 ****       -18.7500 -18.0000  -7.7500 Du        
   4102 ****       -18.7500 -18.0000  -7.5000 Du        
   4103 ****       -18.7500 -18.0000  -7.2500 Du        
   4104 ****       -18.7500 -17.7500 -25.5000 Du        
   4105 ****       -18.7500 -17.7500 -25.2500 Du        
   4106 ****       -18.7500 -17.7500 -25.0000 Du        
   4107 ****       -18.7500 -17.7500 -24.7500 Du        
   4108 ****       -18.7500 -17.7500 -24.5000 Du        
   4109 ****       -18.7500 -17.7500 -24.2500 Du        
   4110 ****       -18.7500 -17.7500 -24.0000 Du        
   4111 ****       -18.7500 -17.7500 -23.7500 Du        
   4112 ****       -18.7500 -17.7500 -23.5000 Du        
   4113 ****       -18.7500 -17.7500 -23.2500 Du        
   4114 ****       -18.7500 -17.7500 -23.0000 Du        
   4115 ****       -18.7500 -17.7500 -14.7500 Du        
   4116 ****       -18.7500 -17.7500 -14.5000 Du        
   4117 ****       -18.7500 -17.7500 -14.2500 Du        
   4118 ****       -18.7500 -17.7500 -14.0000 Du        
   4119 ****       -18.7500 -17.7500 -13.7500 Du        
   4120 ****       -18.7500 -17.7500 -13.5000 Du        
   4121 ****       -18.7500 -17.7500  -9.0000 Du        
   4122 ****       -18.7500 -17.7500  -8.7500 Du        
   4123 ****       -18.7500 -17.7500  -8.5000 Du        
   4124 ****       -18.7500 -17.7500  -8.2500 Du        
   4125 ****       -18.7500 -17.7500  -8.0000 Du        
   4126 ****       -18.7500 -17.7500  -7.7500 Du        
   4127 ****       -18.7500 -17.7500  -7.5000 Du        
   4128 ****       -18.7500 -17.7500  -7.2500 Du        
   4129 ****       -18.7500 -17.7500  -7.0000 Du        
   4130 ****       -18.7500 -17.5000 -26.0000 Du        
   4131 ****       -18.7500 -17.5000 -25.7500 Du        
   4132 ****       -18.7500 -17.5000 -25.5000 Du        
   4133 ****       -18.7500 -17.5000 -25.2500 Du        
   4134 ****       -18.7500 -17.5000 -25.0000 Du        
   4135 ****       -18.7500 -17.5000 -24.7500 Du        
   4136 ****       -18.7500 -17.5000 -24.5000 Du        
   4137 ****       -18.7500 -17.5000 -24.2500 Du        
   4138 ****       -18.7500 -17.5000 -24.0000 Du        
   4139 ****       -18.7500 -17.5000 -23.7500 Du        
   4140 ****       -18.7500 -17.5000 -23.5000 Du        
   4141 ****       -18.7500 -17.5000 -23.2500 Du        
   4142 ****       -18.7500 -17.5000 -14.7500 Du        
   4143 ****       -18.7500 -17.5000 -14.5000 Du        
   4144 ****       -18.7500 -17.5000 -14.2500 Du        
   4145 ****       -18.7500 -17.5000 -14.0000 Du        
   4146 ****       -18.7500 -17.5000 -13.7500 Du        
   4147 ****       -18.7500 -17.5000 -13.5000 Du        
   4148 ****       -18.7500 -17.5000  -8.0000 Du        
   4149 ****       -18.7500 -17.5000  -7.7500 Du        
   4150 ****       -18.7500 -17.5000  -7.5000 Du        
   4151 ****       -18.7500 -17.5000  -7.2500 Du        
   4152 ****       -18.7500 -17.5000  -7.0000 Du        
   4153 ****       -18.7500 -17.5000  -6.7500 Du        
   4154 ****       -18.7500 -17.2500 -26.2500 Du        
   4155 ****       -18.7500 -17.2500 -26.0000 Du        
   4156 ****       -18.7500 -17.2500 -25.7500 Du        
   4157 ****       -18.7500 -17.2500 -25.5000 Du        
   4158 ****       -18.7500 -17.2500 -25.2500 Du        
   4159 ****       -18.7500 -17.2500 -25.0000 Du        
   4160 ****       -18.7500 -17.2500 -24.7500 Du        
   4161 ****       -18.7500 -17.2500 -24.5000 Du        
   4162 ****       -18.7500 -17.2500 -24.2500 Du        
   4163 ****       -18.7500 -17.2500 -24.0000 Du        
   4164 ****       -18.7500 -17.2500 -23.7500 Du        
   4165 ****       -18.7500 -17.2500 -23.5000 Du        
   4166 ****       -18.7500 -17.2500 -23.2500 Du        
   4167 ****       -18.7500 -17.2500 -15.0000 Du        
   4168 ****       -18.7500 -17.2500 -14.7500 Du        
   4169 ****       -18.7500 -17.2500 -14.5000 Du        
   4170 ****       -18.7500 -17.2500 -14.2500 Du        
   4171 ****       -18.7500 -17.2500 -14.0000 Du        
   4172 ****       -18.7500 -17.2500 -13.7500 Du        
   4173 ****       -18.7500 -17.2500  -8.0000 Du        
   4174 ****       -18.7500 -17.2500  -7.7500 Du        
   4175 ****       -18.7500 -17.2500  -7.5000 Du        
   4176 ****       -18.7500 -17.2500  -7.2500 Du        
   4177 ****       -18.7500 -17.2500  -7.0000 Du        
   4178 ****       -18.7500 -17.2500  -6.7500 Du        
   4179 ****       -18.7500 -17.2500  -6.5000 Du        
   4180 ****       -18.7500 -17.2500  -6.2500 Du        
   4181 ****       -18.7500 -17.0000 -26.2500 Du        
   4182 ****       -18.7500 -17.0000 -26.0000 Du        
   4183 ****       -18.7500 -17.0000 -25.7500 Du        
   4184 ****       -18.7500 -17.0000 -25.5000 Du        
   4185 ****       -18.7500 -17.0000 -25.2500 Du        
   4186 ****       -18.7500 -17.0000 -25.0000 Du        
   4187 ****       -18.7500 -17.0000 -24.7500 Du        
   4188 ****       -18.7500 -17.0000 -24.5000 Du        
   4189 ****       -18.7500 -17.0000 -24.2500 Du        
   4190 ****       -18.7500 -17.0000 -24.0000 Du        
   4191 ****       -18.7500 -17.0000 -23.7500 Du        
   4192 ****       -18.7500 -17.0000 -23.5000 Du        
   4193 ****       -18.7500 -17.0000 -15.0000 Du        
   4194 ****       -18.7500 -17.0000 -14.7500 Du        
   4195 ****       -18.7500 -17.0000 -14.5000 Du        
   4196 ****       -18.7500 -17.0000 -14.2500 Du        
   4197 ****       -18.7500 -17.0000 -14.0000 Du        
   4198 ****       -18.7500 -17.0000  -8.0000 Du        
   4199 ****       -18.7500 -17.0000  -7.7500 Du        
   4200 ****       -18.7500 -17.0000  -7.5000 Du        
   4201 ****       -18.7500 -17.0000  -7.2500 Du        
   4202 ****       -18.7500 -17.0000  -7.0000 Du        
   4203 ****       -18.7500 -17.0000  -6.7500 Du        
   4204 ****       -18.7500 -17.0000  -6.5000 Du        
   4205 ****       -18.7500 -17.0000  -6.2500 Du        
   4206 ****       -18.7500 -17.0000  -6.0000 Du        
   4207 ****       -18.7500 -17.0000  -5.7500 Du        
   4208 ****       -18.7500 -17.0000  -5.5000 Du        
   4209 ****       -18.7500 -17.0000  -5.2500 Du        
   4210 ****       -18.7500 -17.0000  -5.0000 Du        
   4211 ****       -18.7500 -16.7500 -26.2500 Du        
   4212 ****       -18.7500 -16.7500 -26.0000 Du        
   4213 ****       -18.7500 -16.7500 -25.7500 Du        
   4214 ****       -18.7500 -16.7500 -25.5000 Du        
   4215 ****       -18.7500 -16.7500 -25.2500 Du        
   4216 ****       -18.7500 -16.7500 -25.0000 Du        
   4217 ****       -18.7500 -16.7500 -24.7500 Du        
   4218 ****       -18.7500 -16.7500 -24.5000 Du        
   4219 ****       -18.7500 -16.7500 -24.2500 Du        
   4220 ****       -18.7500 -16.7500 -24.0000 Du        
   4221 ****       -18.7500 -16.7500 -23.7500 Du        
   4222 ****       -18.7500 -16.7500 -23.5000 Du        
   4223 ****       -18.7500 -16.7500 -15.0000 Du        
   4224 ****       -18.7500 -16.7500 -14.7500 Du        
   4225 ****       -18.7500 -16.7500 -14.5000 Du        
   4226 ****       -18.7500 -16.7500 -14.2500 Du        
   4227 ****       -18.7500 -16.7500  -7.5000 Du        
   4228 ****       -18.7500 -16.7500  -7.2500 Du        
   4229 ****       -18.7500 -16.7500  -7.0000 Du        
   4230 ****       -18.7500 -16.7500  -6.7500 Du        
   4231 ****       -18.7500 -16.7500  -6.5000 Du        
   4232 ****       -18.7500 -16.7500  -6.2500 Du        
   4233 ****       -18.7500 -16.7500  -6.0000 Du        
   4234 ****       -18.7500 -16.7500  -5.7500 Du        
   4235 ****       -18.7500 -16.7500  -5.5000 Du        
   4236 ****       -18.7500 -16.7500  -5.2500 Du        
   4237 ****       -18.7500 -16.7500  -5.0000 Du        
   4238 ****       -18.7500 -16.7500  -4.7500 Du        
   4239 ****       -18.7500 -16.7500   2.0000 Du        
   4240 ****       -18.7500 -16.7500   2.2500 Du        
   4241 ****       -18.7500 -16.7500   2.5000 Du        
   4242 ****       -18.7500 -16.7500   2.7500 Du        
   4243 ****       -18.7500 -16.7500   3.0000 Du        
   4244 ****       -18.7500 -16.5000 -26.2500 Du        
   4245 ****       -18.7500 -16.5000 -26.0000 Du        
   4246 ****       -18.7500 -16.5000 -25.7500 Du        
   4247 ****       -18.7500 -16.5000 -25.5000 Du        
   4248 ****       -18.7500 -16.5000 -25.2500 Du        
   4249 ****       -18.7500 -16.5000 -25.0000 Du        
   4250 ****       -18.7500 -16.5000 -24.7500 Du        
   4251 ****       -18.7500 -16.5000 -24.5000 Du        
   4252 ****       -18.7500 -16.5000 -24.2500 Du        
   4253 ****       -18.7500 -16.5000 -24.0000 Du        
   4254 ****       -18.7500 -16.5000 -23.7500 Du        
   4255 ****       -18.7500 -16.5000 -15.0000 Du        
   4256 ****       -18.7500 -16.5000 -14.7500 Du        
   4257 ****       -18.7500 -16.5000 -14.5000 Du        
   4258 ****       -18.7500 -16.5000 -14.2500 Du        
   4259 ****       -18.7500 -16.5000  -6.0000 Du        
   4260 ****       -18.7500 -16.5000  -5.7500 Du        
   4261 ****       -18.7500 -16.5000  -5.5000 Du        
   4262 ****       -18.7500 -16.5000  -5.2500 Du        
   4263 ****       -18.7500 -16.5000  -5.0000 Du        
   4264 ****       -18.7500 -16.5000   1.2500 Du        
   4265 ****       -18.7500 -16.5000   1.5000 Du        
   4266 ****       -18.7500 -16.5000   1.7500 Du        
   4267 ****       -18.7500 -16.5000   2.0000 Du        
   4268 ****       -18.7500 -16.5000   2.2500 Du        
   4269 ****       -18.7500 -16.5000   2.5000 Du        
   4270 ****       -18.7500 -16.5000   2.7500 Du        
   4271 ****       -18.7500 -16.5000   3.0000 Du        
   4272 ****       -18.7500 -16.2500 -26.0000 Du        
   4273 ****       -18.7500 -16.2500 -25.7500 Du        
   4274 ****       -18.7500 -16.2500 -25.5000 Du        
   4275 ****       -18.7500 -16.2500 -25.2500 Du        
   4276 ****       -18.7500 -16.2500 -25.0000 Du        
   4277 ****       -18.7500 -16.2500 -24.7500 Du        
   4278 ****       -18.7500 -16.2500 -24.5000 Du        
   4279 ****       -18.7500 -16.2500 -24.2500 Du        
   4280 ****       -18.7500 -16.2500 -24.0000 Du        
   4281 ****       -18.7500 -16.2500 -23.7500 Du        
   4282 ****       -18.7500 -16.2500 -15.0000 Du        
   4283 ****       -18.7500 -16.2500 -14.7500 Du        
   4284 ****       -18.7500 -16.2500 -14.5000 Du        
   4285 ****       -18.7500 -16.2500  -6.0000 Du        
   4286 ****       -18.7500 -16.2500  -5.7500 Du        
   4287 ****       -18.7500 -16.2500  -5.5000 Du        
   4288 ****       -18.7500 -16.2500  -5.2500 Du        
   4289 ****       -18.7500 -16.2500   1.2500 Du        
   4290 ****       -18.7500 -16.2500   1.5000 Du        
   4291 ****       -18.7500 -16.2500   1.7500 Du        
   4292 ****       -18.7500 -16.2500   2.0000 Du        
   4293 ****       -18.7500 -16.2500   2.2500 Du        
   4294 ****       -18.7500 -16.2500   2.5000 Du        
   4295 ****       -18.7500 -16.2500   2.7500 Du        
   4296 ****       -18.7500 -16.2500   3.0000 Du        
   4297 ****       -18.7500 -16.0000 -25.2500 Du        
   4298 ****       -18.7500 -16.0000 -25.0000 Du        
   4299 ****       -18.7500 -16.0000 -24.7500 Du        
   4300 ****       -18.7500 -16.0000 -24.5000 Du        
   4301 ****       -18.7500 -16.0000 -24.2500 Du        
   4302 ****       -18.7500 -16.0000 -24.0000 Du        
   4303 ****       -18.7500 -16.0000 -23.7500 Du        
   4304 ****       -18.7500 -16.0000 -15.0000 Du        
   4305 ****       -18.7500 -16.0000 -14.7500 Du        
   4306 ****       -18.7500 -16.0000 -14.5000 Du        
   4307 ****       -18.7500 -16.0000   1.7500 Du        
   4308 ****       -18.7500 -16.0000   2.0000 Du        
   4309 ****       -18.7500 -16.0000   2.2500 Du        
   4310 ****       -18.7500 -16.0000   2.5000 Du        
   4311 ****       -18.7500 -16.0000   2.7500 Du        
   4312 ****       -18.7500 -16.0000   3.0000 Du        
   4313 ****       -18.7500 -15.7500 -24.5000 Du        
   4314 ****       -18.7500 -15.7500 -24.2500 Du        
   4315 ****       -18.7500 -15.7500 -24.0000 Du        
   4316 ****       -18.7500 -15.7500 -15.0000 Du        
   4317 ****       -18.7500 -15.7500 -14.7500 Du        
   4318 ****       -18.7500 -15.7500   2.5000 Du        
   4319 ****       -18.7500 -15.7500   2.7500 Du        
   4320 ****       -18.7500 -15.7500   3.0000 Du        
   4321 ****       -18.7500 -15.5000 -24.2500 Du        
   4322 ****       -18.7500 -15.5000 -24.0000 Du        
   4323 ****       -18.7500 -15.5000 -15.0000 Du        
   4324 ****       -18.7500 -15.5000 -14.7500 Du        
   4325 ****       -18.7500 -15.2500 -15.0000 Du        
   4326 ****       -18.7500 -15.2500 -14.7500 Du        
   4327 ****       -18.7500 -15.0000 -15.2500 Du        
   4328 ****       -18.7500 -15.0000 -15.0000 Du        
   4329 ****       -18.7500 -15.0000 -14.7500 Du        
   4330 ****       -18.7500 -14.7500 -15.5000 Du        
   4331 ****       -18.7500 -14.7500 -15.2500 Du        
   4332 ****       -18.7500 -14.7500 -15.0000 Du        
   4333 ****       -18.7500 -14.7500 -14.7500 Du        
   4334 ****       -18.7500 -14.5000 -16.0000 Du        
   4335 ****       -18.7500 -14.5000 -15.7500 Du        
   4336 ****       -18.7500 -14.5000 -15.5000 Du        
   4337 ****       -18.7500 -14.5000 -15.2500 Du        
   4338 ****       -18.7500 -14.5000 -15.0000 Du        
   4339 ****       -18.7500 -14.5000 -14.7500 Du        
   4340 ****       -18.7500 -14.2500 -16.2500 Du        
   4341 ****       -18.7500 -14.2500 -16.0000 Du        
   4342 ****       -18.7500 -14.2500 -15.7500 Du        
   4343 ****       -18.7500 -14.2500 -15.5000 Du        
   4344 ****       -18.7500 -14.2500 -15.2500 Du        
   4345 ****       -18.7500 -14.2500 -15.0000 Du        
   4346 ****       -18.7500 -14.2500 -14.7500 Du        
   4347 ****       -18.7500 -14.0000 -16.7500 Du        
   4348 ****       -18.7500 -14.0000 -16.5000 Du        
   4349 ****       -18.7500 -14.0000 -16.2500 Du        
   4350 ****       -18.7500 -14.0000 -16.0000 Du        
   4351 ****       -18.7500 -14.0000 -15.7500 Du        
   4352 ****       -18.7500 -14.0000 -15.5000 Du        
   4353 ****       -18.7500 -14.0000 -15.2500 Du        
   4354 ****       -18.7500 -14.0000 -15.0000 Du        
   4355 ****       -18.7500 -14.0000 -14.7500 Du        
   4356 ****       -18.7500 -14.0000 -14.5000 Du        
   4357 ****       -18.7500 -13.7500 -16.7500 Du        
   4358 ****       -18.7500 -13.7500 -16.5000 Du        
   4359 ****       -18.7500 -13.7500 -16.2500 Du        
   4360 ****       -18.7500 -13.7500 -16.0000 Du        
   4361 ****       -18.7500 -13.7500 -15.7500 Du        
   4362 ****       -18.7500 -13.7500 -15.5000 Du        
   4363 ****       -18.7500 -13.7500 -15.2500 Du        
   4364 ****       -18.7500 -13.7500 -15.0000 Du        
   4365 ****       -18.7500 -13.7500 -14.7500 Du        
   4366 ****       -18.7500 -13.7500 -14.5000 Du        
   4367 ****       -18.7500 -13.5000 -17.0000 Du        
   4368 ****       -18.7500 -13.5000 -16.7500 Du        
   4369 ****       -18.7500 -13.5000 -16.5000 Du        
   4370 ****       -18.7500 -13.5000 -16.2500 Du        
   4371 ****       -18.7500 -13.5000 -16.0000 Du        
   4372 ****       -18.7500 -13.5000 -15.7500 Du        
   4373 ****       -18.7500 -13.5000 -15.5000 Du        
   4374 ****       -18.7500 -13.5000 -15.2500 Du        
   4375 ****       -18.7500 -13.5000 -15.0000 Du        
   4376 ****       -18.7500 -13.5000 -14.7500 Du        
   4377 ****       -18.7500 -13.2500 -16.7500 Du        
   4378 ****       -18.7500 -13.2500 -16.5000 Du        
   4379 ****       -18.7500 -13.2500 -16.2500 Du        
   4380 ****       -18.7500 -13.2500 -16.0000 Du        
   4381 ****       -18.7500 -13.2500 -15.7500 Du        
   4382 ****       -18.7500 -13.2500 -15.5000 Du        
   4383 ****       -18.7500 -13.2500 -15.2500 Du        
   4384 ****       -18.7500 -13.2500 -15.0000 Du        
   4385 ****       -18.7500 -13.2500 -14.7500 Du        
   4386 ****       -18.7500 -13.0000 -16.7500 Du        
   4387 ****       -18.7500 -13.0000 -16.5000 Du        
   4388 ****       -18.7500 -13.0000 -16.2500 Du        
   4389 ****       -18.7500 -13.0000 -16.0000 Du        
   4390 ****       -18.7500 -13.0000 -15.7500 Du        
   4391 ****       -18.7500 -13.0000 -15.5000 Du        
   4392 ****       -18.7500 -13.0000 -15.2500 Du        
   4393 ****       -18.7500 -13.0000 -15.0000 Du        
   4394 ****       -18.7500 -13.0000 -14.7500 Du        
   4395 ****       -18.7500 -12.7500 -16.5000 Du        
   4396 ****       -18.7500 -12.7500 -16.2500 Du        
   4397 ****       -18.7500 -12.7500 -16.0000 Du        
   4398 ****       -18.7500 -12.7500 -15.7500 Du        
   4399 ****       -18.7500 -12.7500 -15.5000 Du        
   4400 ****       -18.7500 -12.7500 -15.2500 Du        
   4401 ****       -18.7500 -12.7500 -15.0000 Du        
   4402 ****       -18.7500 -12.5000 -16.5000 Du        
   4403 ****       -18.7500 -12.5000 -16.2500 Du        
   4404 ****       -18.7500 -12.5000 -16.0000 Du        
   4405 ****       -18.7500 -12.5000 -15.7500 Du        
   4406 ****       -18.7500 -12.2500 -16.7500 Du        
   4407 ****       -18.7500 -12.2500 -16.5000 Du        
   4408 ****       -18.7500 -12.2500 -16.2500 Du        
   4409 ****       -18.7500 -12.2500 -16.0000 Du        
   4410 ****       -18.7500 -12.2500 -15.7500 Du        
   4411 ****       -18.7500 -12.0000 -16.7500 Du        
   4412 ****       -18.7500 -12.0000 -16.5000 Du        
   4413 ****       -18.7500 -12.0000 -16.2500 Du        
   4414 ****       -18.7500 -12.0000 -16.0000 Du        
   4415 ****       -18.7500 -12.0000 -15.7500 Du        
   4416 ****       -18.7500 -11.7500 -16.2500 Du        
   4417 ****       -18.7500 -11.7500 -16.0000 Du        
   4418 ****       -18.7500 -11.7500 -15.7500 Du        
   4419 ****       -18.7500 -11.5000 -10.5000 Du        
   4420 ****       -18.7500 -11.2500 -11.2500 Du        
   4421 ****       -18.7500 -11.2500 -11.0000 Du        
   4422 ****       -18.7500 -11.2500 -10.7500 Du        
   4423 ****       -18.7500 -11.2500 -10.5000 Du        
   4424 ****       -18.7500 -11.2500 -10.2500 Du        
   4425 ****       -18.7500 -11.2500 -10.0000 Du        
   4426 ****       -18.7500 -11.0000 -11.5000 Du        
   4427 ****       -18.7500 -11.0000 -11.2500 Du        
   4428 ****       -18.7500 -11.0000 -11.0000 Du        
   4429 ****       -18.7500 -11.0000 -10.7500 Du        
   4430 ****       -18.7500 -11.0000 -10.5000 Du        
   4431 ****       -18.7500 -11.0000 -10.2500 Du        
   4432 ****       -18.7500 -11.0000 -10.0000 Du        
   4433 ****       -18.7500 -10.7500 -11.5000 Du        
   4434 ****       -18.7500 -10.7500 -11.2500 Du        
   4435 ****       -18.7500 -10.7500 -11.0000 Du        
   4436 ****       -18.7500 -10.7500 -10.7500 Du        
   4437 ****       -18.7500 -10.7500 -10.5000 Du        
   4438 ****       -18.7500 -10.7500 -10.2500 Du        
   4439 ****       -18.7500 -10.7500 -10.0000 Du        
   4440 ****       -18.7500 -10.7500  -9.7500 Du        
   4441 ****       -18.7500 -10.5000 -11.2500 Du        
   4442 ****       -18.7500 -10.5000 -11.0000 Du        
   4443 ****       -18.7500 -10.5000 -10.7500 Du        
   4444 ****       -18.7500 -10.5000 -10.5000 Du        
   4445 ****       -18.7500 -10.5000 -10.2500 Du        
   4446 ****       -18.7500 -10.5000 -10.0000 Du        
   4447 ****       -18.7500 -10.5000  -9.7500 Du        
   4448 ****       -18.7500 -10.5000  -9.5000 Du        
   4449 ****       -18.7500 -10.2500 -11.2500 Du        
   4450 ****       -18.7500 -10.2500 -11.0000 Du        
   4451 ****       -18.7500 -10.2500 -10.7500 Du        
   4452 ****       -18.7500 -10.2500 -10.5000 Du        
   4453 ****       -18.7500 -10.2500 -10.2500 Du        
   4454 ****       -18.7500 -10.2500 -10.0000 Du        
   4455 ****       -18.7500 -10.2500  -9.7500 Du        
   4456 ****       -18.7500 -10.2500  -9.5000 Du        
   4457 ****       -18.7500 -10.2500  -9.2500 Du        
   4458 ****       -18.7500 -10.0000 -10.7500 Du        
   4459 ****       -18.7500 -10.0000 -10.5000 Du        
   4460 ****       -18.7500 -10.0000 -10.2500 Du        
   4461 ****       -18.7500 -10.0000 -10.0000 Du        
   4462 ****       -18.7500 -10.0000  -9.7500 Du        
   4463 ****       -18.7500 -10.0000  -9.5000 Du        
   4464 ****       -18.7500 -10.0000  -9.2500 Du        
   4465 ****       -18.7500 -10.0000  -9.0000 Du        
   4466 ****       -18.7500  -9.7500 -10.5000 Du        
   4467 ****       -18.7500  -9.7500 -10.2500 Du        
   4468 ****       -18.7500  -9.7500 -10.0000 Du        
   4469 ****       -18.7500  -9.7500  -9.7500 Du        
   4470 ****       -18.7500  -9.7500  -9.5000 Du        
   4471 ****       -18.7500  -9.7500  -9.2500 Du        
   4472 ****       -18.7500  -9.7500  -9.0000 Du        
   4473 ****       -18.7500  -9.7500  -8.7500 Du        
   4474 ****       -18.7500  -9.5000 -10.2500 Du        
   4475 ****       -18.7500  -9.5000 -10.0000 Du        
   4476 ****       -18.7500  -9.5000  -9.7500 Du        
   4477 ****       -18.7500  -9.5000  -9.5000 Du        
   4478 ****       -18.7500  -9.5000  -9.2500 Du        
   4479 ****       -18.7500  -9.5000  -9.0000 Du        
   4480 ****       -18.7500  -9.5000  -8.7500 Du        
   4481 ****       -18.7500  -9.5000  -8.5000 Du        
   4482 ****       -18.7500  -9.2500 -10.0000 Du        
   4483 ****       -18.7500  -9.2500  -9.7500 Du        
   4484 ****       -18.7500  -9.2500  -9.5000 Du        
   4485 ****       -18.7500  -9.2500  -9.2500 Du        
   4486 ****       -18.7500  -9.2500  -9.0000 Du        
   4487 ****       -18.7500  -9.2500  -8.7500 Du        
   4488 ****       -18.7500  -9.2500  -8.5000 Du        
   4489 ****       -18.7500  -9.2500  -8.2500 Du        
   4490 ****       -18.7500  -9.0000  -9.7500 Du        
   4491 ****       -18.7500  -9.0000  -9.5000 Du        
   4492 ****       -18.7500  -9.0000  -9.2500 Du        
   4493 ****       -18.7500  -9.0000  -9.0000 Du        
   4494 ****       -18.7500  -9.0000  -8.7500 Du        
   4495 ****       -18.7500  -9.0000  -8.5000 Du        
   4496 ****       -18.7500  -9.0000  -8.2500 Du        
   4497 ****       -18.7500  -8.7500 -27.7500 Du        
   4498 ****       -18.7500  -8.7500  -9.5000 Du        
   4499 ****       -18.7500  -8.7500  -9.2500 Du        
   4500 ****       -18.7500  -8.7500  -9.0000 Du        
   4501 ****       -18.7500  -8.7500  -8.7500 Du        
   4502 ****       -18.7500  -8.7500  -8.5000 Du        
   4503 ****       -18.7500  -8.7500  -8.2500 Du        
   4504 ****       -18.7500  -8.7500  -8.0000 Du        
   4505 ****       -18.7500  -8.5000 -27.7500 Du        
   4506 ****       -18.7500  -8.5000  -9.2500 Du        
   4507 ****       -18.7500  -8.5000  -9.0000 Du        
   4508 ****       -18.7500  -8.5000  -8.7500 Du        
   4509 ****       -18.7500  -8.5000  -8.5000 Du        
   4510 ****       -18.7500  -8.5000  -8.2500 Du        
   4511 ****       -18.7500  -8.5000  -8.0000 Du        
   4512 ****       -18.7500  -8.2500 -28.0000 Du        
   4513 ****       -18.7500  -8.2500 -27.7500 Du        
   4514 ****       -18.7500  -8.2500  -9.0000 Du        
   4515 ****       -18.7500  -8.2500  -8.7500 Du        
   4516 ****       -18.7500  -8.2500  -8.5000 Du        
   4517 ****       -18.7500  -8.2500  -8.2500 Du        
   4518 ****       -18.7500  -8.2500  -8.0000 Du        
   4519 ****       -18.7500  -8.2500  -7.7500 Du        
   4520 ****       -18.7500  -8.0000 -28.0000 Du        
   4521 ****       -18.7500  -8.0000 -27.7500 Du        
   4522 ****       -18.7500  -8.0000  -9.0000 Du        
   4523 ****       -18.7500  -8.0000  -8.7500 Du        
   4524 ****       -18.7500  -8.0000  -8.5000 Du        
   4525 ****       -18.7500  -8.0000  -8.2500 Du        
   4526 ****       -18.7500  -8.0000  -8.0000 Du        
   4527 ****       -18.7500  -8.0000  -7.7500 Du        
   4528 ****       -18.7500  -8.0000  -7.5000 Du        
   4529 ****       -18.7500  -7.7500 -28.0000 Du        
   4530 ****       -18.7500  -7.7500 -27.7500 Du        
   4531 ****       -18.7500  -7.7500  -8.7500 Du        
   4532 ****       -18.7500  -7.7500  -8.5000 Du        
   4533 ****       -18.7500  -7.7500  -8.2500 Du        
   4534 ****       -18.7500  -7.7500  -8.0000 Du        
   4535 ****       -18.7500  -7.7500  -7.7500 Du        
   4536 ****       -18.7500  -7.7500  -7.5000 Du        
   4537 ****       -18.7500  -7.7500  -7.2500 Du        
   4538 ****       -18.7500  -7.5000 -28.0000 Du        
   4539 ****       -18.7500  -7.5000 -27.7500 Du        
   4540 ****       -18.7500  -7.5000  -8.5000 Du        
   4541 ****       -18.7500  -7.5000  -8.2500 Du        
   4542 ****       -18.7500  -7.5000  -8.0000 Du        
   4543 ****       -18.7500  -7.5000  -7.7500 Du        
   4544 ****       -18.7500  -7.5000  -7.5000 Du        
   4545 ****       -18.7500  -7.5000  -7.2500 Du        
   4546 ****       -18.7500  -7.5000  -7.0000 Du        
   4547 ****       -18.7500  -7.2500 -28.2500 Du        
   4548 ****       -18.7500  -7.2500 -28.0000 Du        
   4549 ****       -18.7500  -7.2500 -27.7500 Du        
   4550 ****       -18.7500  -7.2500 -27.5000 Du        
   4551 ****       -18.7500  -7.2500  -8.5000 Du        
   4552 ****       -18.7500  -7.2500  -8.2500 Du        
   4553 ****       -18.7500  -7.2500  -8.0000 Du        
   4554 ****       -18.7500  -7.2500  -7.7500 Du        
   4555 ****       -18.7500  -7.2500  -7.5000 Du        
   4556 ****       -18.7500  -7.2500  -7.2500 Du        
   4557 ****       -18.7500  -7.2500  -7.0000 Du        
   4558 ****       -18.7500  -7.2500  -6.7500 Du        
   4559 ****       -18.7500  -7.0000 -28.5000 Du        
   4560 ****       -18.7500  -7.0000 -28.2500 Du        
   4561 ****       -18.7500  -7.0000 -28.0000 Du        
   4562 ****       -18.7500  -7.0000 -27.7500 Du        
   4563 ****       -18.7500  -7.0000  -8.5000 Du        
   4564 ****       -18.7500  -7.0000  -8.2500 Du        
   4565 ****       -18.7500  -7.0000  -8.0000 Du        
   4566 ****       -18.7500  -7.0000  -7.7500 Du        
   4567 ****       -18.7500  -7.0000  -7.5000 Du        
   4568 ****       -18.7500  -7.0000  -7.2500 Du        
   4569 ****       -18.7500  -7.0000  -7.0000 Du        
   4570 ****       -18.7500  -7.0000  -6.7500 Du        
   4571 ****       -18.7500  -6.7500 -28.2500 Du        
   4572 ****       -18.7500  -6.7500 -28.0000 Du        
   4573 ****       -18.7500  -6.7500 -27.7500 Du        
   4574 ****       -18.7500  -6.7500  -8.2500 Du        
   4575 ****       -18.7500  -6.7500  -8.0000 Du        
   4576 ****       -18.7500  -6.7500  -7.7500 Du        
   4577 ****       -18.7500  -6.7500  -7.5000 Du        
   4578 ****       -18.7500  -6.7500  -7.2500 Du        
   4579 ****       -18.7500  -6.7500  -7.0000 Du        
   4580 ****       -18.7500  -6.7500  -6.7500 Du        
   4581 ****       -18.7500  -6.7500  -6.5000 Du        
   4582 ****       -18.7500  -6.5000  -8.0000 Du        
   4583 ****       -18.7500  -6.5000  -7.7500 Du        
   4584 ****       -18.7500  -6.5000  -7.5000 Du        
   4585 ****       -18.7500  -6.5000  -7.2500 Du        
   4586 ****       -18.7500  -6.5000  -7.0000 Du        
   4587 ****       -18.7500  -6.5000  -6.7500 Du        
   4588 ****       -18.7500  -6.5000  -6.5000 Du        
   4589 ****       -18.7500  -6.2500  -8.0000 Du        
   4590 ****       -18.7500  -6.2500  -7.7500 Du        
   4591 ****       -18.7500  -6.2500  -7.5000 Du        
   4592 ****       -18.7500  -6.2500  -7.2500 Du        
   4593 ****       -18.7500  -6.2500  -7.0000 Du        
   4594 ****       -18.7500  -6.2500  -6.7500 Du        
   4595 ****       -18.7500  -6.2500  -6.5000 Du        
   4596 ****       -18.7500  -6.2500  -6.2500 Du        
   4597 ****       -18.7500  -6.2500  -6.0000 Du        
   4598 ****       -18.7500  -6.0000  -8.0000 Du        
   4599 ****       -18.7500  -6.0000  -7.7500 Du        
   4600 ****       -18.7500  -6.0000  -7.5000 Du        
   4601 ****       -18.7500  -6.0000  -7.2500 Du        
   4602 ****       -18.7500  -6.0000  -7.0000 Du        
   4603 ****       -18.7500  -6.0000  -6.7500 Du        
   4604 ****       -18.7500  -6.0000  -6.5000 Du        
   4605 ****       -18.7500  -6.0000  -6.2500 Du        
   4606 ****       -18.7500  -6.0000  -6.0000 Du        
   4607 ****       -18.7500  -6.0000  -5.7500 Du        
   4608 ****       -18.7500  -6.0000  -5.5000 Du        
   4609 ****       -18.7500  -6.0000  -5.2500 Du        
   4610 ****       -18.7500  -6.0000  -5.0000 Du        
   4611 ****       -18.7500  -5.7500  -7.5000 Du        
   4612 ****       -18.7500  -5.7500  -7.2500 Du        
   4613 ****       -18.7500  -5.7500  -7.0000 Du        
   4614 ****       -18.7500  -5.7500  -6.7500 Du        
   4615 ****       -18.7500  -5.7500  -6.5000 Du        
   4616 ****       -18.7500  -5.7500  -6.2500 Du        
   4617 ****       -18.7500  -5.7500  -6.0000 Du        
   4618 ****       -18.7500  -5.7500  -5.7500 Du        
   4619 ****       -18.7500  -5.7500  -5.5000 Du        
   4620 ****       -18.7500  -5.7500  -5.2500 Du        
   4621 ****       -18.7500  -5.7500  -5.0000 Du        
   4622 ****       -18.7500  -5.7500  -4.7500 Du        
   4623 ****       -18.7500  -5.7500  -4.5000 Du        
   4624 ****       -18.7500  -5.7500  -4.2500 Du        
   4625 ****       -18.7500  -5.7500  -4.0000 Du        
   4626 ****       -18.7500  -5.5000  -6.0000 Du        
   4627 ****       -18.7500  -5.5000  -5.7500 Du        
   4628 ****       -18.7500  -5.5000  -5.5000 Du        
   4629 ****       -18.7500  -5.5000  -5.2500 Du        
   4630 ****       -18.7500  -5.5000  -5.0000 Du        
   4631 ****       -18.7500  -5.5000  -4.7500 Du        
   4632 ****       -18.7500  -5.5000  -4.5000 Du        
   4633 ****       -18.7500  -5.5000  -4.2500 Du        
   4634 ****       -18.7500  -5.5000  -4.0000 Du        
   4635 ****       -18.7500  -5.2500  -6.0000 Du        
   4636 ****       -18.7500  -5.2500  -5.7500 Du        
   4637 ****       -18.7500  -5.2500  -5.5000 Du        
   4638 ****       -18.7500  -5.2500  -5.2500 Du        
   4639 ****       -18.7500  -5.2500  -5.0000 Du        
   4640 ****       -18.7500  -5.2500  -4.7500 Du        
   4641 ****       -18.7500  -5.2500  -4.5000 Du        
   4642 ****       -18.7500  -5.2500  -4.2500 Du        
   4643 ****       -18.7500  -5.2500  -4.0000 Du        
   4644 ****       -18.7500  -5.0000  -6.0000 Du        
   4645 ****       -18.7500  -5.0000  -5.7500 Du        
   4646 ****       -18.7500  -5.0000  -5.5000 Du        
   4647 ****       -18.7500  -5.0000  -5.2500 Du        
   4648 ****       -18.7500  -5.0000  -5.0000 Du        
   4649 ****       -18.7500  -5.0000  -4.7500 Du        
   4650 ****       -18.7500  -5.0000  -4.5000 Du        
   4651 ****       -18.7500  -5.0000  -4.2500 Du        
   4652 ****       -18.7500  -5.0000  -4.0000 Du        
   4653 ****       -18.7500  -4.7500  -5.7500 Du        
   4654 ****       -18.7500  -4.7500  -5.5000 Du        
   4655 ****       -18.7500  -4.7500  -5.2500 Du        
   4656 ****       -18.7500  -4.7500  -5.0000 Du        
   4657 ****       -18.7500  -4.7500  -4.7500 Du        
   4658 ****       -18.7500  -4.7500  -4.5000 Du        
   4659 ****       -18.7500  -4.7500  -4.2500 Du        
   4660 ****       -18.7500  -4.5000  -5.5000 Du        
   4661 ****       -18.7500  -4.5000  -5.2500 Du        
   4662 ****       -18.7500  -4.5000  -5.0000 Du        
   4663 ****       -18.7500  -4.5000  -4.7500 Du        
   4664 ****       -18.7500  -4.5000  -4.5000 Du        
   4665 ****       -18.7500  -4.2500  -5.2500 Du        
   4666 ****       -18.7500  -4.2500  -5.0000 Du        
   4667 ****       -18.7500  -4.2500  -4.7500 Du        
   4668 ****       -18.7500  -4.0000  -5.2500 Du        
   4669 ****       -18.7500  -4.0000  -5.0000 Du        
   4670 ****       -18.5000 -26.0000  -8.7500 Du        
   4671 ****       -18.5000 -25.7500  -9.0000 Du        
   4672 ****       -18.5000 -25.7500  -8.7500 Du        
   4673 ****       -18.5000 -25.5000  -9.2500 Du        
   4674 ****       -18.5000 -25.5000  -9.0000 Du        
   4675 ****       -18.5000 -25.5000  -8.7500 Du        
   4676 ****       -18.5000 -25.5000  -8.2500 Du        
   4677 ****       -18.5000 -25.5000  -8.0000 Du        
   4678 ****       -18.5000 -25.2500  -9.2500 Du        
   4679 ****       -18.5000 -25.2500  -9.0000 Du        
   4680 ****       -18.5000 -25.2500  -8.7500 Du        
   4681 ****       -18.5000 -25.2500  -8.5000 Du        
   4682 ****       -18.5000 -25.2500  -8.2500 Du        
   4683 ****       -18.5000 -25.2500  -8.0000 Du        
   4684 ****       -18.5000 -25.2500  -7.7500 Du        
   4685 ****       -18.5000 -25.0000  -9.2500 Du        
   4686 ****       -18.5000 -25.0000  -9.0000 Du        
   4687 ****       -18.5000 -25.0000  -8.7500 Du        
   4688 ****       -18.5000 -25.0000  -8.5000 Du        
   4689 ****       -18.5000 -25.0000  -8.2500 Du        
   4690 ****       -18.5000 -25.0000  -8.0000 Du        
   4691 ****       -18.5000 -25.0000  -7.7500 Du        
   4692 ****       -18.5000 -25.0000  -7.5000 Du        
   4693 ****       -18.5000 -24.7500  -8.7500 Du        
   4694 ****       -18.5000 -24.7500  -8.2500 Du        
   4695 ****       -18.5000 -24.7500  -8.0000 Du        
   4696 ****       -18.5000 -24.7500  -7.7500 Du        
   4697 ****       -18.5000 -24.7500  -7.5000 Du        
   4698 ****       -18.5000 -24.7500  -7.2500 Du        
   4699 ****       -18.5000 -24.5000  -8.0000 Du        
   4700 ****       -18.5000 -24.5000  -7.7500 Du        
   4701 ****       -18.5000 -24.5000  -7.5000 Du        
   4702 ****       -18.5000 -24.5000  -7.2500 Du        
   4703 ****       -18.5000 -24.5000  -7.0000 Du        
   4704 ****       -18.5000 -24.2500  -7.2500 Du        
   4705 ****       -18.5000 -24.2500  -7.0000 Du        
   4706 ****       -18.5000 -24.2500  -6.7500 Du        
   4707 ****       -18.5000 -24.0000  -7.0000 Du        
   4708 ****       -18.5000 -24.0000  -6.7500 Du        
   4709 ****       -18.5000 -19.7500  -9.0000 Du        
   4710 ****       -18.5000 -19.7500  -8.7500 Du        
   4711 ****       -18.5000 -19.7500  -8.5000 Du        
   4712 ****       -18.5000 -19.7500  -8.2500 Du        
   4713 ****       -18.5000 -19.7500  -8.0000 Du        
   4714 ****       -18.5000 -19.5000  -9.0000 Du        
   4715 ****       -18.5000 -19.5000  -8.7500 Du        
   4716 ****       -18.5000 -19.5000  -8.5000 Du        
   4717 ****       -18.5000 -19.5000  -8.2500 Du        
   4718 ****       -18.5000 -19.5000  -8.0000 Du        
   4719 ****       -18.5000 -19.5000  -7.7500 Du        
   4720 ****       -18.5000 -19.2500  -9.2500 Du        
   4721 ****       -18.5000 -19.2500  -9.0000 Du        
   4722 ****       -18.5000 -19.2500  -8.7500 Du        
   4723 ****       -18.5000 -19.2500  -8.5000 Du        
   4724 ****       -18.5000 -19.2500  -8.2500 Du        
   4725 ****       -18.5000 -19.2500  -8.0000 Du        
   4726 ****       -18.5000 -19.2500  -7.7500 Du        
   4727 ****       -18.5000 -19.0000  -9.5000 Du        
   4728 ****       -18.5000 -19.0000  -9.2500 Du        
   4729 ****       -18.5000 -19.0000  -9.0000 Du        
   4730 ****       -18.5000 -19.0000  -8.7500 Du        
   4731 ****       -18.5000 -19.0000  -8.5000 Du        
   4732 ****       -18.5000 -19.0000  -8.2500 Du        
   4733 ****       -18.5000 -19.0000  -8.0000 Du        
   4734 ****       -18.5000 -19.0000  -7.7500 Du        
   4735 ****       -18.5000 -18.7500 -23.5000 Du        
   4736 ****       -18.5000 -18.7500 -23.2500 Du        
   4737 ****       -18.5000 -18.7500 -23.0000 Du        
   4738 ****       -18.5000 -18.7500 -22.7500 Du        
   4739 ****       -18.5000 -18.7500 -10.0000 Du        
   4740 ****       -18.5000 -18.7500  -9.7500 Du        
   4741 ****       -18.5000 -18.7500  -9.5000 Du        
   4742 ****       -18.5000 -18.7500  -9.2500 Du        
   4743 ****       -18.5000 -18.7500  -9.0000 Du        
   4744 ****       -18.5000 -18.7500  -8.7500 Du        
   4745 ****       -18.5000 -18.7500  -8.5000 Du        
   4746 ****       -18.5000 -18.7500  -8.2500 Du        
   4747 ****       -18.5000 -18.7500  -8.0000 Du        
   4748 ****       -18.5000 -18.7500  -7.7500 Du        
   4749 ****       -18.5000 -18.5000 -23.7500 Du        
   4750 ****       -18.5000 -18.5000 -23.5000 Du        
   4751 ****       -18.5000 -18.5000 -23.2500 Du        
   4752 ****       -18.5000 -18.5000 -23.0000 Du        
   4753 ****       -18.5000 -18.5000 -22.7500 Du        
   4754 ****       -18.5000 -18.5000 -10.7500 Du        
   4755 ****       -18.5000 -18.5000 -10.2500 Du        
   4756 ****       -18.5000 -18.5000 -10.0000 Du        
   4757 ****       -18.5000 -18.5000  -9.7500 Du        
   4758 ****       -18.5000 -18.5000  -9.5000 Du        
   4759 ****       -18.5000 -18.5000  -9.2500 Du        
   4760 ****       -18.5000 -18.5000  -9.0000 Du        
   4761 ****       -18.5000 -18.5000  -8.7500 Du        
   4762 ****       -18.5000 -18.5000  -8.5000 Du        
   4763 ****       -18.5000 -18.5000  -8.2500 Du        
   4764 ****       -18.5000 -18.5000  -8.0000 Du        
   4765 ****       -18.5000 -18.5000  -7.7500 Du        
   4766 ****       -18.5000 -18.5000  -7.5000 Du        
   4767 ****       -18.5000 -18.2500 -24.2500 Du        
   4768 ****       -18.5000 -18.2500 -24.0000 Du        
   4769 ****       -18.5000 -18.2500 -23.7500 Du        
   4770 ****       -18.5000 -18.2500 -23.5000 Du        
   4771 ****       -18.5000 -18.2500 -23.2500 Du        
   4772 ****       -18.5000 -18.2500 -23.0000 Du        
   4773 ****       -18.5000 -18.2500 -22.7500 Du        
   4774 ****       -18.5000 -18.2500 -13.7500 Du        
   4775 ****       -18.5000 -18.2500 -13.5000 Du        
   4776 ****       -18.5000 -18.2500 -10.7500 Du        
   4777 ****       -18.5000 -18.2500 -10.2500 Du        
   4778 ****       -18.5000 -18.2500 -10.0000 Du        
   4779 ****       -18.5000 -18.2500  -9.7500 Du        
   4780 ****       -18.5000 -18.2500  -9.5000 Du        
   4781 ****       -18.5000 -18.2500  -9.2500 Du        
   4782 ****       -18.5000 -18.2500  -9.0000 Du        
   4783 ****       -18.5000 -18.2500  -8.7500 Du        
   4784 ****       -18.5000 -18.2500  -8.5000 Du        
   4785 ****       -18.5000 -18.2500  -8.2500 Du        
   4786 ****       -18.5000 -18.2500  -8.0000 Du        
   4787 ****       -18.5000 -18.2500  -7.7500 Du        
   4788 ****       -18.5000 -18.2500  -7.5000 Du        
   4789 ****       -18.5000 -18.0000 -24.7500 Du        
   4790 ****       -18.5000 -18.0000 -24.5000 Du        
   4791 ****       -18.5000 -18.0000 -24.2500 Du        
   4792 ****       -18.5000 -18.0000 -24.0000 Du        
   4793 ****       -18.5000 -18.0000 -23.7500 Du        
   4794 ****       -18.5000 -18.0000 -23.5000 Du        
   4795 ****       -18.5000 -18.0000 -23.2500 Du        
   4796 ****       -18.5000 -18.0000 -23.0000 Du        
   4797 ****       -18.5000 -18.0000 -14.2500 Du        
   4798 ****       -18.5000 -18.0000 -14.0000 Du        
   4799 ****       -18.5000 -18.0000 -13.7500 Du        
   4800 ****       -18.5000 -18.0000 -13.5000 Du        
   4801 ****       -18.5000 -18.0000 -13.2500 Du        
   4802 ****       -18.5000 -18.0000 -13.0000 Du        
   4803 ****       -18.5000 -18.0000 -12.7500 Du        
   4804 ****       -18.5000 -18.0000  -9.7500 Du        
   4805 ****       -18.5000 -18.0000  -9.5000 Du        
   4806 ****       -18.5000 -18.0000  -9.2500 Du        
   4807 ****       -18.5000 -18.0000  -9.0000 Du        
   4808 ****       -18.5000 -18.0000  -8.7500 Du        
   4809 ****       -18.5000 -18.0000  -8.5000 Du        
   4810 ****       -18.5000 -18.0000  -8.2500 Du        
   4811 ****       -18.5000 -18.0000  -8.0000 Du        
   4812 ****       -18.5000 -18.0000  -7.7500 Du        
   4813 ****       -18.5000 -18.0000  -7.5000 Du        
   4814 ****       -18.5000 -18.0000  -7.2500 Du        
   4815 ****       -18.5000 -17.7500 -25.2500 Du        
   4816 ****       -18.5000 -17.7500 -25.0000 Du        
   4817 ****       -18.5000 -17.7500 -24.7500 Du        
   4818 ****       -18.5000 -17.7500 -24.5000 Du        
   4819 ****       -18.5000 -17.7500 -24.2500 Du        
   4820 ****       -18.5000 -17.7500 -24.0000 Du        
   4821 ****       -18.5000 -17.7500 -23.7500 Du        
   4822 ****       -18.5000 -17.7500 -23.5000 Du        
   4823 ****       -18.5000 -17.7500 -23.2500 Du        
   4824 ****       -18.5000 -17.7500 -23.0000 Du        
   4825 ****       -18.5000 -17.7500 -14.5000 Du        
   4826 ****       -18.5000 -17.7500 -14.2500 Du        
   4827 ****       -18.5000 -17.7500 -14.0000 Du        
   4828 ****       -18.5000 -17.7500 -13.7500 Du        
   4829 ****       -18.5000 -17.7500 -13.5000 Du        
   4830 ****       -18.5000 -17.7500 -13.2500 Du        
   4831 ****       -18.5000 -17.7500 -13.0000 Du        
   4832 ****       -18.5000 -17.7500  -9.0000 Du        
   4833 ****       -18.5000 -17.7500  -8.7500 Du        
   4834 ****       -18.5000 -17.7500  -8.5000 Du        
   4835 ****       -18.5000 -17.7500  -8.2500 Du        
   4836 ****       -18.5000 -17.7500  -8.0000 Du        
   4837 ****       -18.5000 -17.7500  -7.7500 Du        
   4838 ****       -18.5000 -17.7500  -7.5000 Du        
   4839 ****       -18.5000 -17.7500  -7.2500 Du        
   4840 ****       -18.5000 -17.7500  -7.0000 Du        
   4841 ****       -18.5000 -17.5000 -25.7500 Du        
   4842 ****       -18.5000 -17.5000 -25.5000 Du        
   4843 ****       -18.5000 -17.5000 -25.2500 Du        
   4844 ****       -18.5000 -17.5000 -25.0000 Du        
   4845 ****       -18.5000 -17.5000 -24.7500 Du        
   4846 ****       -18.5000 -17.5000 -24.5000 Du        
   4847 ****       -18.5000 -17.5000 -24.2500 Du        
   4848 ****       -18.5000 -17.5000 -24.0000 Du        
   4849 ****       -18.5000 -17.5000 -23.7500 Du        
   4850 ****       -18.5000 -17.5000 -23.5000 Du        
   4851 ****       -18.5000 -17.5000 -23.2500 Du        
   4852 ****       -18.5000 -17.5000 -14.5000 Du        
   4853 ****       -18.5000 -17.5000 -14.2500 Du        
   4854 ****       -18.5000 -17.5000 -14.0000 Du        
   4855 ****       -18.5000 -17.5000 -13.7500 Du        
   4856 ****       -18.5000 -17.5000 -13.5000 Du        
   4857 ****       -18.5000 -17.5000 -13.2500 Du        
   4858 ****       -18.5000 -17.5000  -8.7500 Du        
   4859 ****       -18.5000 -17.5000  -8.2500 Du        
   4860 ****       -18.5000 -17.5000  -8.0000 Du        
   4861 ****       -18.5000 -17.5000  -7.7500 Du        
   4862 ****       -18.5000 -17.5000  -7.0000 Du        
   4863 ****       -18.5000 -17.2500 -26.0000 Du        
   4864 ****       -18.5000 -17.2500 -25.7500 Du        
   4865 ****       -18.5000 -17.2500 -25.5000 Du        
   4866 ****       -18.5000 -17.2500 -25.2500 Du        
   4867 ****       -18.5000 -17.2500 -25.0000 Du        
   4868 ****       -18.5000 -17.2500 -24.7500 Du        
   4869 ****       -18.5000 -17.2500 -24.5000 Du        
   4870 ****       -18.5000 -17.2500 -24.2500 Du        
   4871 ****       -18.5000 -17.2500 -24.0000 Du        
   4872 ****       -18.5000 -17.2500 -23.7500 Du        
   4873 ****       -18.5000 -17.2500 -23.5000 Du        
   4874 ****       -18.5000 -17.2500 -23.2500 Du        
   4875 ****       -18.5000 -17.2500 -14.7500 Du        
   4876 ****       -18.5000 -17.2500 -14.5000 Du        
   4877 ****       -18.5000 -17.2500 -14.2500 Du        
   4878 ****       -18.5000 -17.2500 -14.0000 Du        
   4879 ****       -18.5000 -17.2500 -13.7500 Du        
   4880 ****       -18.5000 -17.2500 -13.5000 Du        
   4881 ****       -18.5000 -17.2500  -8.2500 Du        
   4882 ****       -18.5000 -17.2500  -8.0000 Du        
   4883 ****       -18.5000 -17.2500  -7.7500 Du        
   4884 ****       -18.5000 -17.2500  -7.2500 Du        
   4885 ****       -18.5000 -17.2500  -7.0000 Du        
   4886 ****       -18.5000 -17.0000 -26.2500 Du        
   4887 ****       -18.5000 -17.0000 -26.0000 Du        
   4888 ****       -18.5000 -17.0000 -25.7500 Du        
   4889 ****       -18.5000 -17.0000 -25.5000 Du        
   4890 ****       -18.5000 -17.0000 -25.2500 Du        
   4891 ****       -18.5000 -17.0000 -25.0000 Du        
   4892 ****       -18.5000 -17.0000 -24.7500 Du        
   4893 ****       -18.5000 -17.0000 -24.5000 Du        
   4894 ****       -18.5000 -17.0000 -24.2500 Du        
   4895 ****       -18.5000 -17.0000 -24.0000 Du        
   4896 ****       -18.5000 -17.0000 -23.7500 Du        
   4897 ****       -18.5000 -17.0000 -23.5000 Du        
   4898 ****       -18.5000 -17.0000 -14.7500 Du        
   4899 ****       -18.5000 -17.0000 -14.5000 Du        
   4900 ****       -18.5000 -17.0000 -14.2500 Du        
   4901 ****       -18.5000 -17.0000 -14.0000 Du        
   4902 ****       -18.5000 -17.0000 -13.7500 Du        
   4903 ****       -18.5000 -17.0000  -7.7500 Du        
   4904 ****       -18.5000 -17.0000  -6.0000 Du        
   4905 ****       -18.5000 -17.0000  -5.7500 Du        
   4906 ****       -18.5000 -17.0000  -5.5000 Du        
   4907 ****       -18.5000 -17.0000  -5.2500 Du        
   4908 ****       -18.5000 -16.7500 -26.2500 Du        
   4909 ****       -18.5000 -16.7500 -26.0000 Du        
   4910 ****       -18.5000 -16.7500 -25.7500 Du        
   4911 ****       -18.5000 -16.7500 -25.5000 Du        
   4912 ****       -18.5000 -16.7500 -25.2500 Du        
   4913 ****       -18.5000 -16.7500 -25.0000 Du        
   4914 ****       -18.5000 -16.7500 -24.7500 Du        
   4915 ****       -18.5000 -16.7500 -24.5000 Du        
   4916 ****       -18.5000 -16.7500 -24.2500 Du        
   4917 ****       -18.5000 -16.7500 -24.0000 Du        
   4918 ****       -18.5000 -16.7500 -23.7500 Du        
   4919 ****       -18.5000 -16.7500 -14.7500 Du        
   4920 ****       -18.5000 -16.7500 -14.5000 Du        
   4921 ****       -18.5000 -16.7500 -14.2500 Du        
   4922 ****       -18.5000 -16.7500 -14.0000 Du        
   4923 ****       -18.5000 -16.7500  -5.7500 Du        
   4924 ****       -18.5000 -16.7500  -5.5000 Du        
   4925 ****       -18.5000 -16.7500  -5.2500 Du        
   4926 ****       -18.5000 -16.7500   2.7500 Du        
   4927 ****       -18.5000 -16.7500   3.0000 Du        
   4928 ****       -18.5000 -16.5000 -26.0000 Du        
   4929 ****       -18.5000 -16.5000 -25.7500 Du        
   4930 ****       -18.5000 -16.5000 -25.5000 Du        
   4931 ****       -18.5000 -16.5000 -25.2500 Du        
   4932 ****       -18.5000 -16.5000 -25.0000 Du        
   4933 ****       -18.5000 -16.5000 -24.7500 Du        
   4934 ****       -18.5000 -16.5000 -24.5000 Du        
   4935 ****       -18.5000 -16.5000 -24.2500 Du        
   4936 ****       -18.5000 -16.5000 -24.0000 Du        
   4937 ****       -18.5000 -16.5000 -23.7500 Du        
   4938 ****       -18.5000 -16.5000 -14.7500 Du        
   4939 ****       -18.5000 -16.5000 -14.5000 Du        
   4940 ****       -18.5000 -16.5000 -14.2500 Du        
   4941 ****       -18.5000 -16.5000   1.7500 Du        
   4942 ****       -18.5000 -16.5000   2.0000 Du        
   4943 ****       -18.5000 -16.5000   2.2500 Du        
   4944 ****       -18.5000 -16.5000   2.5000 Du        
   4945 ****       -18.5000 -16.5000   2.7500 Du        
   4946 ****       -18.5000 -16.5000   3.0000 Du        
   4947 ****       -18.5000 -16.5000   3.2500 Du        
   4948 ****       -18.5000 -16.5000   3.5000 Du        
   4949 ****       -18.5000 -16.2500 -26.0000 Du        
   4950 ****       -18.5000 -16.2500 -25.7500 Du        
   4951 ****       -18.5000 -16.2500 -25.5000 Du        
   4952 ****       -18.5000 -16.2500 -25.2500 Du        
   4953 ****       -18.5000 -16.2500 -25.0000 Du        
   4954 ****       -18.5000 -16.2500 -24.7500 Du        
   4955 ****       -18.5000 -16.2500 -24.5000 Du        
   4956 ****       -18.5000 -16.2500 -24.2500 Du        
   4957 ****       -18.5000 -16.2500 -24.0000 Du        
   4958 ****       -18.5000 -16.2500 -23.7500 Du        
   4959 ****       -18.5000 -16.2500 -14.7500 Du        
   4960 ****       -18.5000 -16.2500 -14.5000 Du        
   4961 ****       -18.5000 -16.2500 -14.2500 Du        
   4962 ****       -18.5000 -16.2500   1.7500 Du        
   4963 ****       -18.5000 -16.2500   2.0000 Du        
   4964 ****       -18.5000 -16.2500   2.2500 Du        
   4965 ****       -18.5000 -16.2500   2.5000 Du        
   4966 ****       -18.5000 -16.2500   2.7500 Du        
   4967 ****       -18.5000 -16.2500   3.0000 Du        
   4968 ****       -18.5000 -16.2500   3.2500 Du        
   4969 ****       -18.5000 -16.2500   3.5000 Du        
   4970 ****       -18.5000 -16.0000 -25.7500 Du        
   4971 ****       -18.5000 -16.0000 -25.5000 Du        
   4972 ****       -18.5000 -16.0000 -25.2500 Du        
   4973 ****       -18.5000 -16.0000 -25.0000 Du        
   4974 ****       -18.5000 -16.0000 -24.7500 Du        
   4975 ****       -18.5000 -16.0000 -24.5000 Du        
   4976 ****       -18.5000 -16.0000 -24.2500 Du        
   4977 ****       -18.5000 -16.0000 -24.0000 Du        
   4978 ****       -18.5000 -16.0000 -23.7500 Du        
   4979 ****       -18.5000 -16.0000 -15.0000 Du        
   4980 ****       -18.5000 -16.0000 -14.7500 Du        
   4981 ****       -18.5000 -16.0000 -14.5000 Du        
   4982 ****       -18.5000 -16.0000   2.0000 Du        
   4983 ****       -18.5000 -16.0000   2.2500 Du        
   4984 ****       -18.5000 -16.0000   2.5000 Du        
   4985 ****       -18.5000 -16.0000   2.7500 Du        
   4986 ****       -18.5000 -16.0000   3.0000 Du        
   4987 ****       -18.5000 -16.0000   3.2500 Du        
   4988 ****       -18.5000 -16.0000   3.5000 Du        
   4989 ****       -18.5000 -15.7500 -24.7500 Du        
   4990 ****       -18.5000 -15.7500 -24.5000 Du        
   4991 ****       -18.5000 -15.7500 -24.2500 Du        
   4992 ****       -18.5000 -15.7500 -24.0000 Du        
   4993 ****       -18.5000 -15.7500 -15.0000 Du        
   4994 ****       -18.5000 -15.7500 -14.7500 Du        
   4995 ****       -18.5000 -15.7500 -14.5000 Du        
   4996 ****       -18.5000 -15.7500   2.5000 Du        
   4997 ****       -18.5000 -15.7500   2.7500 Du        
   4998 ****       -18.5000 -15.7500   3.0000 Du        
   4999 ****       -18.5000 -15.7500   3.2500 Du        
   5000 ****       -18.5000 -15.7500   3.5000 Du        
   5001 ****       -18.5000 -15.5000 -24.2500 Du        
   5002 ****       -18.5000 -15.5000 -24.0000 Du        
   5003 ****       -18.5000 -15.5000 -15.0000 Du        
   5004 ****       -18.5000 -15.5000 -14.7500 Du        
   5005 ****       -18.5000 -15.2500 -15.2500 Du        
   5006 ****       -18.5000 -15.2500 -15.0000 Du        
   5007 ****       -18.5000 -15.2500 -14.7500 Du        
   5008 ****       -18.5000 -15.0000 -15.5000 Du        
   5009 ****       -18.5000 -15.0000 -15.2500 Du        
   5010 ****       -18.5000 -15.0000 -15.0000 Du        
   5011 ****       -18.5000 -15.0000 -14.7500 Du        
   5012 ****       -18.5000 -14.7500 -15.7500 Du        
   5013 ****       -18.5000 -14.7500 -15.5000 Du        
   5014 ****       -18.5000 -14.7500 -15.2500 Du        
   5015 ****       -18.5000 -14.7500 -15.0000 Du        
   5016 ****       -18.5000 -14.7500 -14.7500 Du        
   5017 ****       -18.5000 -14.5000 -16.0000 Du        
   5018 ****       -18.5000 -14.5000 -15.7500 Du        
   5019 ****       -18.5000 -14.5000 -15.5000 Du        
   5020 ****       -18.5000 -14.5000 -15.2500 Du        
   5021 ****       -18.5000 -14.5000 -15.0000 Du        
   5022 ****       -18.5000 -14.2500 -16.2500 Du        
   5023 ****       -18.5000 -14.2500 -16.0000 Du        
   5024 ****       -18.5000 -14.2500 -15.7500 Du        
   5025 ****       -18.5000 -14.2500 -15.5000 Du        
   5026 ****       -18.5000 -14.2500 -15.2500 Du        
   5027 ****       -18.5000 -14.2500 -15.0000 Du        
   5028 ****       -18.5000 -14.0000 -16.5000 Du        
   5029 ****       -18.5000 -14.0000 -16.2500 Du        
   5030 ****       -18.5000 -14.0000 -16.0000 Du        
   5031 ****       -18.5000 -14.0000 -15.7500 Du        
   5032 ****       -18.5000 -14.0000 -15.5000 Du        
   5033 ****       -18.5000 -14.0000 -15.2500 Du        
   5034 ****       -18.5000 -14.0000 -15.0000 Du        
   5035 ****       -18.5000 -14.0000 -14.7500 Du        
   5036 ****       -18.5000 -13.7500 -16.7500 Du        
   5037 ****       -18.5000 -13.7500 -16.5000 Du        
   5038 ****       -18.5000 -13.7500 -16.2500 Du        
   5039 ****       -18.5000 -13.7500 -16.0000 Du        
   5040 ****       -18.5000 -13.7500 -15.7500 Du        
   5041 ****       -18.5000 -13.7500 -15.5000 Du        
   5042 ****       -18.5000 -13.7500 -15.2500 Du        
   5043 ****       -18.5000 -13.7500 -15.0000 Du        
   5044 ****       -18.5000 -13.5000 -16.7500 Du        
   5045 ****       -18.5000 -13.5000 -16.5000 Du        
   5046 ****       -18.5000 -13.5000 -16.2500 Du        
   5047 ****       -18.5000 -13.5000 -16.0000 Du        
   5048 ****       -18.5000 -13.5000 -15.7500 Du        
   5049 ****       -18.5000 -13.2500 -17.0000 Du        
   5050 ****       -18.5000 -13.2500 -16.7500 Du        
   5051 ****       -18.5000 -13.2500 -16.5000 Du        
   5052 ****       -18.5000 -13.2500 -16.2500 Du        
   5053 ****       -18.5000 -13.2500 -16.0000 Du        
   5054 ****       -18.5000 -13.2500 -15.7500 Du        
   5055 ****       -18.5000 -13.0000 -17.0000 Du        
   5056 ****       -18.5000 -13.0000 -16.7500 Du        
   5057 ****       -18.5000 -13.0000 -16.5000 Du        
   5058 ****       -18.5000 -13.0000 -16.2500 Du        
   5059 ****       -18.5000 -13.0000 -16.0000 Du        
   5060 ****       -18.5000 -13.0000 -15.7500 Du        
   5061 ****       -18.5000 -12.7500 -16.7500 Du        
   5062 ****       -18.5000 -12.7500 -16.5000 Du        
   5063 ****       -18.5000 -12.7500 -16.2500 Du        
   5064 ****       -18.5000 -12.7500 -16.0000 Du        
   5065 ****       -18.5000 -12.7500 -15.7500 Du        
   5066 ****       -18.5000 -12.0000 -16.7500 Du        
   5067 ****       -18.5000 -11.7500 -10.7500 Du        
   5068 ****       -18.5000 -11.5000 -11.0000 Du        
   5069 ****       -18.5000 -11.5000 -10.7500 Du        
   5070 ****       -18.5000 -11.5000 -10.5000 Du        
   5071 ****       -18.5000 -11.2500 -11.5000 Du        
   5072 ****       -18.5000 -11.2500 -11.2500 Du        
   5073 ****       -18.5000 -11.2500 -11.0000 Du        
   5074 ****       -18.5000 -11.2500 -10.7500 Du        
   5075 ****       -18.5000 -11.2500 -10.5000 Du        
   5076 ****       -18.5000 -11.2500 -10.2500 Du        
   5077 ****       -18.5000 -11.0000 -11.7500 Du        
   5078 ****       -18.5000 -11.0000 -11.5000 Du        
   5079 ****       -18.5000 -11.0000 -11.2500 Du        
   5080 ****       -18.5000 -11.0000 -11.0000 Du        
   5081 ****       -18.5000 -11.0000 -10.7500 Du        
   5082 ****       -18.5000 -11.0000 -10.5000 Du        
   5083 ****       -18.5000 -11.0000 -10.2500 Du        
   5084 ****       -18.5000 -11.0000 -10.0000 Du        
   5085 ****       -18.5000 -10.7500 -11.5000 Du        
   5086 ****       -18.5000 -10.7500 -11.2500 Du        
   5087 ****       -18.5000 -10.7500 -11.0000 Du        
   5088 ****       -18.5000 -10.7500 -10.7500 Du        
   5089 ****       -18.5000 -10.7500 -10.5000 Du        
   5090 ****       -18.5000 -10.7500 -10.2500 Du        
   5091 ****       -18.5000 -10.7500 -10.0000 Du        
   5092 ****       -18.5000 -10.7500  -9.7500 Du        
   5093 ****       -18.5000 -10.5000 -11.2500 Du        
   5094 ****       -18.5000 -10.5000 -11.0000 Du        
   5095 ****       -18.5000 -10.5000 -10.7500 Du        
   5096 ****       -18.5000 -10.5000 -10.5000 Du        
   5097 ****       -18.5000 -10.5000 -10.2500 Du        
   5098 ****       -18.5000 -10.5000 -10.0000 Du        
   5099 ****       -18.5000 -10.5000  -9.7500 Du        
   5100 ****       -18.5000 -10.2500 -11.2500 Du        
   5101 ****       -18.5000 -10.2500 -11.0000 Du        
   5102 ****       -18.5000 -10.2500 -10.7500 Du        
   5103 ****       -18.5000 -10.2500 -10.5000 Du        
   5104 ****       -18.5000 -10.2500 -10.2500 Du        
   5105 ****       -18.5000 -10.2500 -10.0000 Du        
   5106 ****       -18.5000 -10.2500  -9.7500 Du        
   5107 ****       -18.5000 -10.2500  -9.5000 Du        
   5108 ****       -18.5000 -10.0000 -11.0000 Du        
   5109 ****       -18.5000 -10.0000 -10.7500 Du        
   5110 ****       -18.5000 -10.0000 -10.5000 Du        
   5111 ****       -18.5000 -10.0000 -10.2500 Du        
   5112 ****       -18.5000 -10.0000 -10.0000 Du        
   5113 ****       -18.5000 -10.0000  -9.7500 Du        
   5114 ****       -18.5000 -10.0000  -9.5000 Du        
   5115 ****       -18.5000 -10.0000  -9.2500 Du        
   5116 ****       -18.5000  -9.7500 -10.5000 Du        
   5117 ****       -18.5000  -9.7500 -10.2500 Du        
   5118 ****       -18.5000  -9.7500 -10.0000 Du        
   5119 ****       -18.5000  -9.7500  -9.7500 Du        
   5120 ****       -18.5000  -9.7500  -9.5000 Du        
   5121 ****       -18.5000  -9.7500  -9.2500 Du        
   5122 ****       -18.5000  -9.7500  -9.0000 Du        
   5123 ****       -18.5000  -9.5000 -10.2500 Du        
   5124 ****       -18.5000  -9.5000 -10.0000 Du        
   5125 ****       -18.5000  -9.5000  -9.7500 Du        
   5126 ****       -18.5000  -9.5000  -9.5000 Du        
   5127 ****       -18.5000  -9.5000  -9.2500 Du        
   5128 ****       -18.5000  -9.5000  -9.0000 Du        
   5129 ****       -18.5000  -9.5000  -8.7500 Du        
   5130 ****       -18.5000  -9.2500 -10.2500 Du        
   5131 ****       -18.5000  -9.2500 -10.0000 Du        
   5132 ****       -18.5000  -9.2500  -9.7500 Du        
   5133 ****       -18.5000  -9.2500  -9.5000 Du        
   5134 ****       -18.5000  -9.2500  -9.2500 Du        
   5135 ****       -18.5000  -9.2500  -9.0000 Du        
   5136 ****       -18.5000  -9.2500  -8.7500 Du        
   5137 ****       -18.5000  -9.2500  -8.5000 Du        
   5138 ****       -18.5000  -9.0000  -9.7500 Du        
   5139 ****       -18.5000  -9.0000  -9.5000 Du        
   5140 ****       -18.5000  -9.0000  -9.2500 Du        
   5141 ****       -18.5000  -9.0000  -9.0000 Du        
   5142 ****       -18.5000  -9.0000  -8.7500 Du        
   5143 ****       -18.5000  -9.0000  -8.5000 Du        
   5144 ****       -18.5000  -9.0000  -8.2500 Du        
   5145 ****       -18.5000  -8.7500 -27.7500 Du        
   5146 ****       -18.5000  -8.7500  -9.5000 Du        
   5147 ****       -18.5000  -8.7500  -9.2500 Du        
   5148 ****       -18.5000  -8.7500  -9.0000 Du        
   5149 ****       -18.5000  -8.7500  -8.7500 Du        
   5150 ****       -18.5000  -8.7500  -8.5000 Du        
   5151 ****       -18.5000  -8.7500  -8.2500 Du        
   5152 ****       -18.5000  -8.7500  -8.0000 Du        
   5153 ****       -18.5000  -8.5000  -9.2500 Du        
   5154 ****       -18.5000  -8.5000  -9.0000 Du        
   5155 ****       -18.5000  -8.5000  -8.7500 Du        
   5156 ****       -18.5000  -8.5000  -8.5000 Du        
   5157 ****       -18.5000  -8.5000  -8.2500 Du        
   5158 ****       -18.5000  -8.5000  -8.0000 Du        
   5159 ****       -18.5000  -8.2500  -9.0000 Du        
   5160 ****       -18.5000  -8.2500  -8.7500 Du        
   5161 ****       -18.5000  -8.2500  -8.5000 Du        
   5162 ****       -18.5000  -8.2500  -8.2500 Du        
   5163 ****       -18.5000  -8.2500  -8.0000 Du        
   5164 ****       -18.5000  -8.2500  -7.7500 Du        
   5165 ****       -18.5000  -8.0000  -9.0000 Du        
   5166 ****       -18.5000  -8.0000  -8.7500 Du        
   5167 ****       -18.5000  -8.0000  -8.5000 Du        
   5168 ****       -18.5000  -8.0000  -8.2500 Du        
   5169 ****       -18.5000  -8.0000  -8.0000 Du        
   5170 ****       -18.5000  -8.0000  -7.7500 Du        
   5171 ****       -18.5000  -8.0000  -7.5000 Du        
   5172 ****       -18.5000  -7.7500 -27.7500 Du        
   5173 ****       -18.5000  -7.7500  -8.7500 Du        
   5174 ****       -18.5000  -7.7500  -8.5000 Du        
   5175 ****       -18.5000  -7.7500  -8.2500 Du        
   5176 ****       -18.5000  -7.7500  -8.0000 Du        
   5177 ****       -18.5000  -7.7500  -7.7500 Du        
   5178 ****       -18.5000  -7.7500  -7.5000 Du        
   5179 ****       -18.5000  -7.7500  -7.2500 Du        
   5180 ****       -18.5000  -7.5000 -27.7500 Du        
   5181 ****       -18.5000  -7.5000  -8.7500 Du        
   5182 ****       -18.5000  -7.5000  -8.5000 Du        
   5183 ****       -18.5000  -7.5000  -8.2500 Du        
   5184 ****       -18.5000  -7.5000  -8.0000 Du        
   5185 ****       -18.5000  -7.5000  -7.7500 Du        
   5186 ****       -18.5000  -7.5000  -7.5000 Du        
   5187 ****       -18.5000  -7.5000  -7.2500 Du        
   5188 ****       -18.5000  -7.5000  -7.0000 Du        
   5189 ****       -18.5000  -7.2500 -28.0000 Du        
   5190 ****       -18.5000  -7.2500 -27.7500 Du        
   5191 ****       -18.5000  -7.2500  -8.5000 Du        
   5192 ****       -18.5000  -7.2500  -8.2500 Du        
   5193 ****       -18.5000  -7.2500  -8.0000 Du        
   5194 ****       -18.5000  -7.2500  -7.7500 Du        
   5195 ****       -18.5000  -7.2500  -7.5000 Du        
   5196 ****       -18.5000  -7.2500  -7.2500 Du        
   5197 ****       -18.5000  -7.2500  -7.0000 Du        
   5198 ****       -18.5000  -7.2500  -6.7500 Du        
   5199 ****       -18.5000  -7.0000 -28.0000 Du        
   5200 ****       -18.5000  -7.0000 -27.7500 Du        
   5201 ****       -18.5000  -7.0000  -8.5000 Du        
   5202 ****       -18.5000  -7.0000  -8.2500 Du        
   5203 ****       -18.5000  -7.0000  -8.0000 Du        
   5204 ****       -18.5000  -7.0000  -7.7500 Du        
   5205 ****       -18.5000  -7.0000  -7.5000 Du        
   5206 ****       -18.5000  -7.0000  -7.2500 Du        
   5207 ****       -18.5000  -7.0000  -7.0000 Du        
   5208 ****       -18.5000  -7.0000  -6.7500 Du        
   5209 ****       -18.5000  -7.0000  -6.5000 Du        
   5210 ****       -18.5000  -6.7500 -28.0000 Du        
   5211 ****       -18.5000  -6.7500 -27.7500 Du        
   5212 ****       -18.5000  -6.7500  -8.2500 Du        
   5213 ****       -18.5000  -6.7500  -8.0000 Du        
   5214 ****       -18.5000  -6.7500  -7.7500 Du        
   5215 ****       -18.5000  -6.7500  -7.5000 Du        
   5216 ****       -18.5000  -6.7500  -7.2500 Du        
   5217 ****       -18.5000  -6.7500  -7.0000 Du        
   5218 ****       -18.5000  -6.7500  -6.7500 Du        
   5219 ****       -18.5000  -6.7500  -6.5000 Du        
   5220 ****       -18.5000  -6.7500  -6.2500 Du        
   5221 ****       -18.5000  -6.5000  -8.2500 Du        
   5222 ****       -18.5000  -6.5000  -8.0000 Du        
   5223 ****       -18.5000  -6.5000  -7.7500 Du        
   5224 ****       -18.5000  -6.5000  -7.5000 Du        
   5225 ****       -18.5000  -6.5000  -7.2500 Du        
   5226 ****       -18.5000  -6.5000  -7.0000 Du        
   5227 ****       -18.5000  -6.5000  -6.7500 Du        
   5228 ****       -18.5000  -6.5000  -6.5000 Du        
   5229 ****       -18.5000  -6.5000  -6.2500 Du        
   5230 ****       -18.5000  -6.5000  -6.0000 Du        
   5231 ****       -18.5000  -6.2500  -8.2500 Du        
   5232 ****       -18.5000  -6.2500  -8.0000 Du        
   5233 ****       -18.5000  -6.2500  -7.7500 Du        
   5234 ****       -18.5000  -6.2500  -7.5000 Du        
   5235 ****       -18.5000  -6.2500  -7.2500 Du        
   5236 ****       -18.5000  -6.2500  -7.0000 Du        
   5237 ****       -18.5000  -6.2500  -6.7500 Du        
   5238 ****       -18.5000  -6.2500  -6.5000 Du        
   5239 ****       -18.5000  -6.2500  -6.2500 Du        
   5240 ****       -18.5000  -6.2500  -6.0000 Du        
   5241 ****       -18.5000  -6.2500  -5.7500 Du        
   5242 ****       -18.5000  -6.0000  -8.2500 Du        
   5243 ****       -18.5000  -6.0000  -8.0000 Du        
   5244 ****       -18.5000  -6.0000  -7.7500 Du        
   5245 ****       -18.5000  -6.0000  -7.5000 Du        
   5246 ****       -18.5000  -6.0000  -7.2500 Du        
   5247 ****       -18.5000  -6.0000  -7.0000 Du        
   5248 ****       -18.5000  -6.0000  -6.7500 Du        
   5249 ****       -18.5000  -6.0000  -6.5000 Du        
   5250 ****       -18.5000  -6.0000  -6.2500 Du        
   5251 ****       -18.5000  -6.0000  -6.0000 Du        
   5252 ****       -18.5000  -6.0000  -5.7500 Du        
   5253 ****       -18.5000  -6.0000  -5.5000 Du        
   5254 ****       -18.5000  -6.0000  -5.2500 Du        
   5255 ****       -18.5000  -6.0000  -5.0000 Du        
   5256 ****       -18.5000  -5.7500  -8.2500 Du        
   5257 ****       -18.5000  -5.7500  -8.0000 Du        
   5258 ****       -18.5000  -5.7500  -7.7500 Du        
   5259 ****       -18.5000  -5.7500  -7.5000 Du        
   5260 ****       -18.5000  -5.7500  -7.2500 Du        
   5261 ****       -18.5000  -5.7500  -7.0000 Du        
   5262 ****       -18.5000  -5.7500  -6.7500 Du        
   5263 ****       -18.5000  -5.7500  -6.5000 Du        
   5264 ****       -18.5000  -5.7500  -6.2500 Du        
   5265 ****       -18.5000  -5.7500  -6.0000 Du        
   5266 ****       -18.5000  -5.7500  -5.7500 Du        
   5267 ****       -18.5000  -5.7500  -5.5000 Du        
   5268 ****       -18.5000  -5.7500  -5.2500 Du        
   5269 ****       -18.5000  -5.7500  -5.0000 Du        
   5270 ****       -18.5000  -5.7500  -4.7500 Du        
   5271 ****       -18.5000  -5.7500  -4.5000 Du        
   5272 ****       -18.5000  -5.7500  -4.2500 Du        
   5273 ****       -18.5000  -5.7500  -4.0000 Du        
   5274 ****       -18.5000  -5.5000  -8.2500 Du        
   5275 ****       -18.5000  -5.5000  -8.0000 Du        
   5276 ****       -18.5000  -5.5000  -7.7500 Du        
   5277 ****       -18.5000  -5.5000  -7.5000 Du        
   5278 ****       -18.5000  -5.5000  -7.2500 Du        
   5279 ****       -18.5000  -5.5000  -7.0000 Du        
   5280 ****       -18.5000  -5.5000  -6.5000 Du        
   5281 ****       -18.5000  -5.5000  -6.2500 Du        
   5282 ****       -18.5000  -5.5000  -6.0000 Du        
   5283 ****       -18.5000  -5.5000  -5.7500 Du        
   5284 ****       -18.5000  -5.5000  -5.5000 Du        
   5285 ****       -18.5000  -5.5000  -5.2500 Du        
   5286 ****       -18.5000  -5.5000  -5.0000 Du        
   5287 ****       -18.5000  -5.5000  -4.7500 Du        
   5288 ****       -18.5000  -5.5000  -4.5000 Du        
   5289 ****       -18.5000  -5.5000  -4.2500 Du        
   5290 ****       -18.5000  -5.5000  -4.0000 Du        
   5291 ****       -18.5000  -5.5000  -3.7500 Du        
   5292 ****       -18.5000  -5.2500  -8.2500 Du        
   5293 ****       -18.5000  -5.2500  -8.0000 Du        
   5294 ****       -18.5000  -5.2500  -7.7500 Du        
   5295 ****       -18.5000  -5.2500  -7.2500 Du        
   5296 ****       -18.5000  -5.2500  -7.0000 Du        
   5297 ****       -18.5000  -5.2500  -6.5000 Du        
   5298 ****       -18.5000  -5.2500  -6.2500 Du        
   5299 ****       -18.5000  -5.2500  -6.0000 Du        
   5300 ****       -18.5000  -5.2500  -5.7500 Du        
   5301 ****       -18.5000  -5.2500  -5.5000 Du        
   5302 ****       -18.5000  -5.2500  -5.2500 Du        
   5303 ****       -18.5000  -5.2500  -5.0000 Du        
   5304 ****       -18.5000  -5.2500  -4.7500 Du        
   5305 ****       -18.5000  -5.2500  -4.5000 Du        
   5306 ****       -18.5000  -5.2500  -4.2500 Du        
   5307 ****       -18.5000  -5.2500  -4.0000 Du        
   5308 ****       -18.5000  -5.2500  -3.7500 Du        
   5309 ****       -18.5000  -5.0000  -8.2500 Du        
   5310 ****       -18.5000  -5.0000  -8.0000 Du        
   5311 ****       -18.5000  -5.0000  -7.7500 Du        
   5312 ****       -18.5000  -5.0000  -6.5000 Du        
   5313 ****       -18.5000  -5.0000  -6.2500 Du        
   5314 ****       -18.5000  -5.0000  -6.0000 Du        
   5315 ****       -18.5000  -5.0000  -5.7500 Du        
   5316 ****       -18.5000  -5.0000  -5.5000 Du        
   5317 ****       -18.5000  -5.0000  -5.2500 Du        
   5318 ****       -18.5000  -5.0000  -5.0000 Du        
   5319 ****       -18.5000  -5.0000  -4.7500 Du        
   5320 ****       -18.5000  -5.0000  -4.5000 Du        
   5321 ****       -18.5000  -5.0000  -4.2500 Du        
   5322 ****       -18.5000  -5.0000  -4.0000 Du        
   5323 ****       -18.5000  -4.7500  -8.2500 Du        
   5324 ****       -18.5000  -4.7500  -8.0000 Du        
   5325 ****       -18.5000  -4.7500  -7.7500 Du        
   5326 ****       -18.5000  -4.7500  -6.2500 Du        
   5327 ****       -18.5000  -4.7500  -6.0000 Du        
   5328 ****       -18.5000  -4.7500  -5.7500 Du        
   5329 ****       -18.5000  -4.7500  -5.5000 Du        
   5330 ****       -18.5000  -4.7500  -5.2500 Du        
   5331 ****       -18.5000  -4.7500  -5.0000 Du        
   5332 ****       -18.5000  -4.7500  -4.7500 Du        
   5333 ****       -18.5000  -4.7500  -4.5000 Du        
   5334 ****       -18.5000  -4.7500  -4.2500 Du        
   5335 ****       -18.5000  -4.7500  -4.0000 Du        
   5336 ****       -18.5000  -4.5000  -8.2500 Du        
   5337 ****       -18.5000  -4.5000  -8.0000 Du        
   5338 ****       -18.5000  -4.5000  -6.2500 Du        
   5339 ****       -18.5000  -4.5000  -6.0000 Du        
   5340 ****       -18.5000  -4.5000  -5.7500 Du        
   5341 ****       -18.5000  -4.5000  -5.5000 Du        
   5342 ****       -18.5000  -4.5000  -5.2500 Du        
   5343 ****       -18.5000  -4.5000  -5.0000 Du        
   5344 ****       -18.5000  -4.5000  -4.7500 Du        
   5345 ****       -18.5000  -4.5000  -4.5000 Du        
   5346 ****       -18.5000  -4.5000  -4.2500 Du        
   5347 ****       -18.5000  -4.2500  -6.2500 Du        
   5348 ****       -18.5000  -4.2500  -6.0000 Du        
   5349 ****       -18.5000  -4.2500  -5.7500 Du        
   5350 ****       -18.5000  -4.2500  -5.5000 Du        
   5351 ****       -18.5000  -4.2500  -5.2500 Du        
   5352 ****       -18.5000  -4.2500  -5.0000 Du        
   5353 ****       -18.5000  -4.2500  -4.7500 Du        
   5354 ****       -18.5000  -4.2500  -4.5000 Du        
   5355 ****       -18.5000  -4.0000  -6.0000 Du        
   5356 ****       -18.5000  -4.0000  -5.7500 Du        
   5357 ****       -18.5000  -4.0000  -5.5000 Du        
   5358 ****       -18.5000  -4.0000  -5.2500 Du        
   5359 ****       -18.5000  -4.0000  -5.0000 Du        
   5360 ****       -18.5000  -4.0000  -4.7500 Du        
   5361 ****       -18.5000  -3.7500  -6.0000 Du        
   5362 ****       -18.5000  -3.7500  -5.7500 Du        
   5363 ****       -18.5000  -3.7500  -5.5000 Du        
   5364 ****       -18.5000  -3.7500  -5.2500 Du        
   5365 ****       -18.5000  -3.7500  -5.0000 Du        
   5366 ****       -18.5000  -3.7500  -4.7500 Du        
   5367 ****       -18.5000  -3.5000  -5.5000 Du        
   5368 ****       -18.5000  -3.5000  -5.2500 Du        
   5369 ****       -18.5000  -3.5000  -5.0000 Du        
   5370 ****       -18.5000  -3.2500  -8.7500 Du        
   5371 ****       -18.5000  -3.2500  -5.5000 Du        
   5372 ****       -18.5000  -3.2500  -5.2500 Du        
   5373 ****       -18.5000  -3.2500  -5.0000 Du        
   5374 ****       -18.5000  -3.0000  -8.7500 Du        
   5375 ****       -18.5000  -3.0000  -5.5000 Du        
   5376 ****       -18.5000  -3.0000  -5.2500 Du        
   5377 ****       -18.5000  -2.7500  -8.7500 Du        
   5378 ****       -18.5000  -2.7500  -5.5000 Du        
   5379 ****       -18.5000  -2.7500  -5.2500 Du        
   5380 ****       -18.5000  -2.5000  -5.5000 Du        
   5381 ****       -18.5000  -2.5000  -5.2500 Du        
   5382 ****       -18.5000  -2.2500  -6.2500 Du        
   5383 ****       -18.5000  -2.2500  -6.0000 Du        
   5384 ****       -18.5000  -2.2500  -5.5000 Du        
   5385 ****       -18.5000  -2.2500  -5.2500 Du        
   5386 ****       -18.5000  -2.0000  -6.2500 Du        
   5387 ****       -18.5000  -2.0000  -6.0000 Du        
   5388 ****       -18.5000  -2.0000  -5.5000 Du        
   5389 ****       -18.5000  -2.0000  -5.2500 Du        
   5390 ****       -18.5000  -1.7500  -6.0000 Du        
   5391 ****       -18.5000  -1.7500  -5.7500 Du        
   5392 ****       -18.5000  -1.7500  -5.5000 Du        
   5393 ****       -18.5000  -1.7500  -5.2500 Du        
   5394 ****       -18.5000  -1.5000  -6.0000 Du        
   5395 ****       -18.5000  -1.5000  -5.7500 Du        
   5396 ****       -18.5000  -1.5000  -5.2500 Du        
   5397 ****       -18.5000  -1.2500  -6.0000 Du        
   5398 ****       -18.5000  -1.2500  -5.7500 Du        
   5399 ****       -18.5000  -1.2500  -5.2500 Du        
   5400 ****       -18.5000  -1.0000  -6.0000 Du        
   5401 ****       -18.5000  -1.0000  -5.7500 Du        
   5402 ****       -18.5000  -0.7500  -6.0000 Du        
   5403 ****       -18.5000  -0.7500  -5.7500 Du        
   5404 ****       -18.5000   6.2500 -17.0000 Du        
   5405 ****       -18.2500 -26.0000  -9.0000 Du        
   5406 ****       -18.2500 -26.0000  -8.7500 Du        
   5407 ****       -18.2500 -25.7500  -9.0000 Du        
   5408 ****       -18.2500 -25.7500  -8.7500 Du        
   5409 ****       -18.2500 -25.5000  -9.2500 Du        
   5410 ****       -18.2500 -25.5000  -9.0000 Du        
   5411 ****       -18.2500 -25.5000  -8.7500 Du        
   5412 ****       -18.2500 -25.5000  -8.5000 Du        
   5413 ****       -18.2500 -25.5000  -8.2500 Du        
   5414 ****       -18.2500 -25.5000  -8.0000 Du        
   5415 ****       -18.2500 -25.2500  -9.5000 Du        
   5416 ****       -18.2500 -25.2500  -9.2500 Du        
   5417 ****       -18.2500 -25.2500  -9.0000 Du        
   5418 ****       -18.2500 -25.2500  -8.7500 Du        
   5419 ****       -18.2500 -25.2500  -8.5000 Du        
   5420 ****       -18.2500 -25.2500  -8.2500 Du        
   5421 ****       -18.2500 -25.2500  -8.0000 Du        
   5422 ****       -18.2500 -25.0000  -9.2500 Du        
   5423 ****       -18.2500 -25.0000  -9.0000 Du        
   5424 ****       -18.2500 -25.0000  -8.7500 Du        
   5425 ****       -18.2500 -25.0000  -8.5000 Du        
   5426 ****       -18.2500 -25.0000  -8.2500 Du        
   5427 ****       -18.2500 -25.0000  -8.0000 Du        
   5428 ****       -18.2500 -25.0000  -7.7500 Du        
   5429 ****       -18.2500 -24.7500  -9.2500 Du        
   5430 ****       -18.2500 -24.7500  -9.0000 Du        
   5431 ****       -18.2500 -24.7500  -8.7500 Du        
   5432 ****       -18.2500 -24.7500  -8.5000 Du        
   5433 ****       -18.2500 -24.7500  -8.2500 Du        
   5434 ****       -18.2500 -24.7500  -8.0000 Du        
   5435 ****       -18.2500 -24.7500  -7.7500 Du        
   5436 ****       -18.2500 -24.5000  -9.0000 Du        
   5437 ****       -18.2500 -24.5000  -8.7500 Du        
   5438 ****       -18.2500 -24.5000  -8.5000 Du        
   5439 ****       -18.2500 -24.5000  -8.2500 Du        
   5440 ****       -18.2500 -24.5000  -8.0000 Du        
   5441 ****       -18.2500 -24.5000  -7.7500 Du        
   5442 ****       -18.2500 -24.5000  -7.5000 Du        
   5443 ****       -18.2500 -24.2500  -8.2500 Du        
   5444 ****       -18.2500 -24.2500  -8.0000 Du        
   5445 ****       -18.2500 -24.2500  -7.7500 Du        
   5446 ****       -18.2500 -20.2500  -8.7500 Du        
   5447 ****       -18.2500 -20.2500  -8.5000 Du        
   5448 ****       -18.2500 -20.2500  -8.2500 Du        
   5449 ****       -18.2500 -20.2500  -8.0000 Du        
   5450 ****       -18.2500 -20.0000  -9.2500 Du        
   5451 ****       -18.2500 -20.0000  -9.0000 Du        
   5452 ****       -18.2500 -20.0000  -8.7500 Du        
   5453 ****       -18.2500 -20.0000  -8.5000 Du        
   5454 ****       -18.2500 -20.0000  -8.2500 Du        
   5455 ****       -18.2500 -20.0000  -8.0000 Du        
   5456 ****       -18.2500 -20.0000  -7.7500 Du        
   5457 ****       -18.2500 -19.7500  -9.5000 Du        
   5458 ****       -18.2500 -19.7500  -9.2500 Du        
   5459 ****       -18.2500 -19.7500  -9.0000 Du        
   5460 ****       -18.2500 -19.7500  -8.7500 Du        
   5461 ****       -18.2500 -19.7500  -8.5000 Du        
   5462 ****       -18.2500 -19.7500  -8.2500 Du        
   5463 ****       -18.2500 -19.7500  -8.0000 Du        
   5464 ****       -18.2500 -19.7500  -7.7500 Du        
   5465 ****       -18.2500 -19.5000  -9.7500 Du        
   5466 ****       -18.2500 -19.5000  -9.5000 Du        
   5467 ****       -18.2500 -19.5000  -9.2500 Du        
   5468 ****       -18.2500 -19.5000  -9.0000 Du        
   5469 ****       -18.2500 -19.5000  -8.7500 Du        
   5470 ****       -18.2500 -19.5000  -8.5000 Du        
   5471 ****       -18.2500 -19.5000  -8.2500 Du        
   5472 ****       -18.2500 -19.5000  -8.0000 Du        
   5473 ****       -18.2500 -19.5000  -7.7500 Du        
   5474 ****       -18.2500 -19.2500 -10.0000 Du        
   5475 ****       -18.2500 -19.2500  -9.7500 Du        
   5476 ****       -18.2500 -19.2500  -9.5000 Du        
   5477 ****       -18.2500 -19.2500  -9.2500 Du        
   5478 ****       -18.2500 -19.2500  -9.0000 Du        
   5479 ****       -18.2500 -19.2500  -8.7500 Du        
   5480 ****       -18.2500 -19.2500  -8.5000 Du        
   5481 ****       -18.2500 -19.2500  -8.2500 Du        
   5482 ****       -18.2500 -19.2500  -8.0000 Du        
   5483 ****       -18.2500 -19.2500  -7.7500 Du        
   5484 ****       -18.2500 -19.0000 -10.2500 Du        
   5485 ****       -18.2500 -19.0000 -10.0000 Du        
   5486 ****       -18.2500 -19.0000  -9.7500 Du        
   5487 ****       -18.2500 -19.0000  -9.5000 Du        
   5488 ****       -18.2500 -19.0000  -9.2500 Du        
   5489 ****       -18.2500 -19.0000  -9.0000 Du        
   5490 ****       -18.2500 -19.0000  -8.7500 Du        
   5491 ****       -18.2500 -19.0000  -8.5000 Du        
   5492 ****       -18.2500 -19.0000  -8.2500 Du        
   5493 ****       -18.2500 -19.0000  -8.0000 Du        
   5494 ****       -18.2500 -19.0000  -7.7500 Du        
   5495 ****       -18.2500 -18.7500 -23.0000 Du        
   5496 ****       -18.2500 -18.7500 -22.7500 Du        
   5497 ****       -18.2500 -18.7500 -11.0000 Du        
   5498 ****       -18.2500 -18.7500 -10.7500 Du        
   5499 ****       -18.2500 -18.7500 -10.5000 Du        
   5500 ****       -18.2500 -18.7500 -10.2500 Du        
   5501 ****       -18.2500 -18.7500 -10.0000 Du        
   5502 ****       -18.2500 -18.7500  -9.7500 Du        
   5503 ****       -18.2500 -18.7500  -9.5000 Du        
   5504 ****       -18.2500 -18.7500  -9.2500 Du        
   5505 ****       -18.2500 -18.7500  -9.0000 Du        
   5506 ****       -18.2500 -18.7500  -8.7500 Du        
   5507 ****       -18.2500 -18.7500  -8.5000 Du        
   5508 ****       -18.2500 -18.7500  -8.2500 Du        
   5509 ****       -18.2500 -18.7500  -8.0000 Du        
   5510 ****       -18.2500 -18.7500  -7.7500 Du        
   5511 ****       -18.2500 -18.7500  -7.5000 Du        
   5512 ****       -18.2500 -18.5000 -23.2500 Du        
   5513 ****       -18.2500 -18.5000 -23.0000 Du        
   5514 ****       -18.2500 -18.5000 -22.7500 Du        
   5515 ****       -18.2500 -18.5000 -11.2500 Du        
   5516 ****       -18.2500 -18.5000 -11.0000 Du        
   5517 ****       -18.2500 -18.5000 -10.7500 Du        
   5518 ****       -18.2500 -18.5000 -10.5000 Du        
   5519 ****       -18.2500 -18.5000 -10.2500 Du        
   5520 ****       -18.2500 -18.5000 -10.0000 Du        
   5521 ****       -18.2500 -18.5000  -9.7500 Du        
   5522 ****       -18.2500 -18.5000  -9.5000 Du        
   5523 ****       -18.2500 -18.5000  -9.2500 Du        
   5524 ****       -18.2500 -18.5000  -9.0000 Du        
   5525 ****       -18.2500 -18.5000  -8.7500 Du        
   5526 ****       -18.2500 -18.5000  -8.5000 Du        
   5527 ****       -18.2500 -18.5000  -8.2500 Du        
   5528 ****       -18.2500 -18.5000  -8.0000 Du        
   5529 ****       -18.2500 -18.5000  -7.7500 Du        
   5530 ****       -18.2500 -18.5000  -7.5000 Du        
   5531 ****       -18.2500 -18.2500 -23.7500 Du        
   5532 ****       -18.2500 -18.2500 -23.5000 Du        
   5533 ****       -18.2500 -18.2500 -23.2500 Du        
   5534 ****       -18.2500 -18.2500 -23.0000 Du        
   5535 ****       -18.2500 -18.2500 -22.7500 Du        
   5536 ****       -18.2500 -18.2500 -13.5000 Du        
   5537 ****       -18.2500 -18.2500 -13.2500 Du        
   5538 ****       -18.2500 -18.2500 -13.0000 Du        
   5539 ****       -18.2500 -18.2500 -12.7500 Du        
   5540 ****       -18.2500 -18.2500 -12.2500 Du        
   5541 ****       -18.2500 -18.2500 -12.0000 Du        
   5542 ****       -18.2500 -18.2500 -11.7500 Du        
   5543 ****       -18.2500 -18.2500 -11.5000 Du        
   5544 ****       -18.2500 -18.2500 -11.2500 Du        
   5545 ****       -18.2500 -18.2500 -11.0000 Du        
   5546 ****       -18.2500 -18.2500 -10.7500 Du        
   5547 ****       -18.2500 -18.2500 -10.5000 Du        
   5548 ****       -18.2500 -18.2500 -10.2500 Du        
   5549 ****       -18.2500 -18.2500 -10.0000 Du        
   5550 ****       -18.2500 -18.2500  -9.7500 Du        
   5551 ****       -18.2500 -18.2500  -9.5000 Du        
   5552 ****       -18.2500 -18.2500  -9.2500 Du        
   5553 ****       -18.2500 -18.2500  -9.0000 Du        
   5554 ****       -18.2500 -18.2500  -8.7500 Du        
   5555 ****       -18.2500 -18.2500  -8.5000 Du        
   5556 ****       -18.2500 -18.2500  -8.2500 Du        
   5557 ****       -18.2500 -18.2500  -8.0000 Du        
   5558 ****       -18.2500 -18.2500  -7.7500 Du        
   5559 ****       -18.2500 -18.2500  -7.5000 Du        
   5560 ****       -18.2500 -18.2500  -7.2500 Du        
   5561 ****       -18.2500 -18.0000 -24.2500 Du        
   5562 ****       -18.2500 -18.0000 -24.0000 Du        
   5563 ****       -18.2500 -18.0000 -23.7500 Du        
   5564 ****       -18.2500 -18.0000 -23.5000 Du        
   5565 ****       -18.2500 -18.0000 -23.2500 Du        
   5566 ****       -18.2500 -18.0000 -23.0000 Du        
   5567 ****       -18.2500 -18.0000 -14.2500 Du        
   5568 ****       -18.2500 -18.0000 -14.0000 Du        
   5569 ****       -18.2500 -18.0000 -13.7500 Du        
   5570 ****       -18.2500 -18.0000 -13.5000 Du        
   5571 ****       -18.2500 -18.0000 -13.2500 Du        
   5572 ****       -18.2500 -18.0000 -13.0000 Du        
   5573 ****       -18.2500 -18.0000 -12.7500 Du        
   5574 ****       -18.2500 -18.0000 -12.5000 Du        
   5575 ****       -18.2500 -18.0000 -12.2500 Du        
   5576 ****       -18.2500 -18.0000 -12.0000 Du        
   5577 ****       -18.2500 -18.0000 -11.7500 Du        
   5578 ****       -18.2500 -18.0000 -11.5000 Du        
   5579 ****       -18.2500 -18.0000 -11.2500 Du        
   5580 ****       -18.2500 -18.0000 -11.0000 Du        
   5581 ****       -18.2500 -18.0000 -10.7500 Du        
   5582 ****       -18.2500 -18.0000 -10.5000 Du        
   5583 ****       -18.2500 -18.0000 -10.2500 Du        
   5584 ****       -18.2500 -18.0000 -10.0000 Du        
   5585 ****       -18.2500 -18.0000  -9.7500 Du        
   5586 ****       -18.2500 -18.0000  -9.5000 Du        
   5587 ****       -18.2500 -18.0000  -9.2500 Du        
   5588 ****       -18.2500 -18.0000  -9.0000 Du        
   5589 ****       -18.2500 -18.0000  -8.7500 Du        
   5590 ****       -18.2500 -18.0000  -8.5000 Du        
   5591 ****       -18.2500 -18.0000  -8.2500 Du        
   5592 ****       -18.2500 -18.0000  -8.0000 Du        
   5593 ****       -18.2500 -18.0000  -7.7500 Du        
   5594 ****       -18.2500 -18.0000  -7.5000 Du        
   5595 ****       -18.2500 -18.0000  -7.2500 Du        
   5596 ****       -18.2500 -18.0000  -7.0000 Du        
   5597 ****       -18.2500 -17.7500 -25.0000 Du        
   5598 ****       -18.2500 -17.7500 -24.7500 Du        
   5599 ****       -18.2500 -17.7500 -24.5000 Du        
   5600 ****       -18.2500 -17.7500 -24.2500 Du        
   5601 ****       -18.2500 -17.7500 -24.0000 Du        
   5602 ****       -18.2500 -17.7500 -23.7500 Du        
   5603 ****       -18.2500 -17.7500 -23.5000 Du        
   5604 ****       -18.2500 -17.7500 -23.2500 Du        
   5605 ****       -18.2500 -17.7500 -23.0000 Du        
   5606 ****       -18.2500 -17.7500 -14.2500 Du        
   5607 ****       -18.2500 -17.7500 -14.0000 Du        
   5608 ****       -18.2500 -17.7500 -13.7500 Du        
   5609 ****       -18.2500 -17.7500 -13.5000 Du        
   5610 ****       -18.2500 -17.7500 -13.2500 Du        
   5611 ****       -18.2500 -17.7500 -13.0000 Du        
   5612 ****       -18.2500 -17.7500 -12.7500 Du        
   5613 ****       -18.2500 -17.7500 -12.5000 Du        
   5614 ****       -18.2500 -17.7500 -12.2500 Du        
   5615 ****       -18.2500 -17.7500 -12.0000 Du        
   5616 ****       -18.2500 -17.7500  -9.7500 Du        
   5617 ****       -18.2500 -17.7500  -9.5000 Du        
   5618 ****       -18.2500 -17.7500  -9.2500 Du        
   5619 ****       -18.2500 -17.7500  -9.0000 Du        
   5620 ****       -18.2500 -17.7500  -8.7500 Du        
   5621 ****       -18.2500 -17.7500  -8.5000 Du        
   5622 ****       -18.2500 -17.7500  -8.2500 Du        
   5623 ****       -18.2500 -17.7500  -8.0000 Du        
   5624 ****       -18.2500 -17.7500  -7.7500 Du        
   5625 ****       -18.2500 -17.7500  -7.5000 Du        
   5626 ****       -18.2500 -17.7500  -7.2500 Du        
   5627 ****       -18.2500 -17.7500  -7.0000 Du        
   5628 ****       -18.2500 -17.7500  -6.7500 Du        
   5629 ****       -18.2500 -17.5000 -25.5000 Du        
   5630 ****       -18.2500 -17.5000 -25.2500 Du        
   5631 ****       -18.2500 -17.5000 -25.0000 Du        
   5632 ****       -18.2500 -17.5000 -24.7500 Du        
   5633 ****       -18.2500 -17.5000 -24.5000 Du        
   5634 ****       -18.2500 -17.5000 -24.2500 Du        
   5635 ****       -18.2500 -17.5000 -24.0000 Du        
   5636 ****       -18.2500 -17.5000 -23.7500 Du        
   5637 ****       -18.2500 -17.5000 -23.5000 Du        
   5638 ****       -18.2500 -17.5000 -23.2500 Du        
   5639 ****       -18.2500 -17.5000 -14.5000 Du        
   5640 ****       -18.2500 -17.5000 -14.2500 Du        
   5641 ****       -18.2500 -17.5000 -14.0000 Du        
   5642 ****       -18.2500 -17.5000 -13.7500 Du        
   5643 ****       -18.2500 -17.5000 -13.5000 Du        
   5644 ****       -18.2500 -17.5000 -13.2500 Du        
   5645 ****       -18.2500 -17.5000 -13.0000 Du        
   5646 ****       -18.2500 -17.5000 -12.7500 Du        
   5647 ****       -18.2500 -17.5000  -8.7500 Du        
   5648 ****       -18.2500 -17.5000  -8.5000 Du        
   5649 ****       -18.2500 -17.5000  -8.2500 Du        
   5650 ****       -18.2500 -17.5000  -8.0000 Du        
   5651 ****       -18.2500 -17.5000  -7.7500 Du        
   5652 ****       -18.2500 -17.5000  -7.2500 Du        
   5653 ****       -18.2500 -17.2500 -26.0000 Du        
   5654 ****       -18.2500 -17.2500 -25.7500 Du        
   5655 ****       -18.2500 -17.2500 -25.5000 Du        
   5656 ****       -18.2500 -17.2500 -25.2500 Du        
   5657 ****       -18.2500 -17.2500 -25.0000 Du        
   5658 ****       -18.2500 -17.2500 -24.7500 Du        
   5659 ****       -18.2500 -17.2500 -24.5000 Du        
   5660 ****       -18.2500 -17.2500 -24.2500 Du        
   5661 ****       -18.2500 -17.2500 -24.0000 Du        
   5662 ****       -18.2500 -17.2500 -23.7500 Du        
   5663 ****       -18.2500 -17.2500 -23.5000 Du        
   5664 ****       -18.2500 -17.2500 -23.2500 Du        
   5665 ****       -18.2500 -17.2500 -14.5000 Du        
   5666 ****       -18.2500 -17.2500 -14.2500 Du        
   5667 ****       -18.2500 -17.2500 -14.0000 Du        
   5668 ****       -18.2500 -17.2500 -13.7500 Du        
   5669 ****       -18.2500 -17.2500 -13.5000 Du        
   5670 ****       -18.2500 -17.2500 -13.2500 Du        
   5671 ****       -18.2500 -17.2500 -13.0000 Du        
   5672 ****       -18.2500 -17.2500  -8.7500 Du        
   5673 ****       -18.2500 -17.2500  -8.2500 Du        
   5674 ****       -18.2500 -17.2500  -8.0000 Du        
   5675 ****       -18.2500 -17.2500  -7.7500 Du        
   5676 ****       -18.2500 -17.0000 -26.0000 Du        
   5677 ****       -18.2500 -17.0000 -25.7500 Du        
   5678 ****       -18.2500 -17.0000 -25.5000 Du        
   5679 ****       -18.2500 -17.0000 -25.2500 Du        
   5680 ****       -18.2500 -17.0000 -25.0000 Du        
   5681 ****       -18.2500 -17.0000 -24.7500 Du        
   5682 ****       -18.2500 -17.0000 -24.5000 Du        
   5683 ****       -18.2500 -17.0000 -24.2500 Du        
   5684 ****       -18.2500 -17.0000 -24.0000 Du        
   5685 ****       -18.2500 -17.0000 -23.7500 Du        
   5686 ****       -18.2500 -17.0000 -23.5000 Du        
   5687 ****       -18.2500 -17.0000 -14.5000 Du        
   5688 ****       -18.2500 -17.0000 -14.2500 Du        
   5689 ****       -18.2500 -17.0000 -14.0000 Du        
   5690 ****       -18.2500 -17.0000 -13.7500 Du        
   5691 ****       -18.2500 -17.0000 -13.5000 Du        
   5692 ****       -18.2500 -17.0000 -13.2500 Du        
   5693 ****       -18.2500 -17.0000  -8.2500 Du        
   5694 ****       -18.2500 -17.0000  -8.0000 Du        
   5695 ****       -18.2500 -17.0000  -7.7500 Du        
   5696 ****       -18.2500 -16.7500 -26.0000 Du        
   5697 ****       -18.2500 -16.7500 -25.7500 Du        
   5698 ****       -18.2500 -16.7500 -25.5000 Du        
   5699 ****       -18.2500 -16.7500 -25.2500 Du        
   5700 ****       -18.2500 -16.7500 -25.0000 Du        
   5701 ****       -18.2500 -16.7500 -24.7500 Du        
   5702 ****       -18.2500 -16.7500 -24.5000 Du        
   5703 ****       -18.2500 -16.7500 -24.2500 Du        
   5704 ****       -18.2500 -16.7500 -24.0000 Du        
   5705 ****       -18.2500 -16.7500 -23.7500 Du        
   5706 ****       -18.2500 -16.7500 -23.5000 Du        
   5707 ****       -18.2500 -16.7500 -14.5000 Du        
   5708 ****       -18.2500 -16.7500 -14.2500 Du        
   5709 ****       -18.2500 -16.7500 -14.0000 Du        
   5710 ****       -18.2500 -16.7500 -13.7500 Du        
   5711 ****       -18.2500 -16.7500   3.0000 Du        
   5712 ****       -18.2500 -16.5000 -26.0000 Du        
   5713 ****       -18.2500 -16.5000 -25.7500 Du        
   5714 ****       -18.2500 -16.5000 -25.5000 Du        
   5715 ****       -18.2500 -16.5000 -25.2500 Du        
   5716 ****       -18.2500 -16.5000 -25.0000 Du        
   5717 ****       -18.2500 -16.5000 -24.7500 Du        
   5718 ****       -18.2500 -16.5000 -24.5000 Du        
   5719 ****       -18.2500 -16.5000 -24.2500 Du        
   5720 ****       -18.2500 -16.5000 -24.0000 Du        
   5721 ****       -18.2500 -16.5000 -23.7500 Du        
   5722 ****       -18.2500 -16.5000 -14.5000 Du        
   5723 ****       -18.2500 -16.5000 -14.2500 Du        
   5724 ****       -18.2500 -16.5000 -14.0000 Du        
   5725 ****       -18.2500 -16.5000   2.0000 Du        
   5726 ****       -18.2500 -16.5000   2.2500 Du        
   5727 ****       -18.2500 -16.5000   2.5000 Du        
   5728 ****       -18.2500 -16.5000   2.7500 Du        
   5729 ****       -18.2500 -16.5000   3.0000 Du        
   5730 ****       -18.2500 -16.5000   3.2500 Du        
   5731 ****       -18.2500 -16.5000   3.5000 Du        
   5732 ****       -18.2500 -16.2500 -26.0000 Du        
   5733 ****       -18.2500 -16.2500 -25.7500 Du        
   5734 ****       -18.2500 -16.2500 -25.5000 Du        
   5735 ****       -18.2500 -16.2500 -25.2500 Du        
   5736 ****       -18.2500 -16.2500 -25.0000 Du        
   5737 ****       -18.2500 -16.2500 -24.7500 Du        
   5738 ****       -18.2500 -16.2500 -24.5000 Du        
   5739 ****       -18.2500 -16.2500 -24.2500 Du        
   5740 ****       -18.2500 -16.2500 -24.0000 Du        
   5741 ****       -18.2500 -16.2500 -23.7500 Du        
   5742 ****       -18.2500 -16.2500 -14.5000 Du        
   5743 ****       -18.2500 -16.2500 -14.2500 Du        
   5744 ****       -18.2500 -16.2500 -14.0000 Du        
   5745 ****       -18.2500 -16.2500   2.0000 Du        
   5746 ****       -18.2500 -16.2500   2.2500 Du        
   5747 ****       -18.2500 -16.2500   2.5000 Du        
   5748 ****       -18.2500 -16.2500   2.7500 Du        
   5749 ****       -18.2500 -16.2500   3.0000 Du        
   5750 ****       -18.2500 -16.2500   3.2500 Du        
   5751 ****       -18.2500 -16.2500   3.5000 Du        
   5752 ****       -18.2500 -16.0000 -25.7500 Du        
   5753 ****       -18.2500 -16.0000 -25.5000 Du        
   5754 ****       -18.2500 -16.0000 -25.2500 Du        
   5755 ****       -18.2500 -16.0000 -25.0000 Du        
   5756 ****       -18.2500 -16.0000 -24.7500 Du        
   5757 ****       -18.2500 -16.0000 -24.5000 Du        
   5758 ****       -18.2500 -16.0000 -24.2500 Du        
   5759 ****       -18.2500 -16.0000 -24.0000 Du        
   5760 ****       -18.2500 -16.0000 -23.7500 Du        
   5761 ****       -18.2500 -16.0000 -14.7500 Du        
   5762 ****       -18.2500 -16.0000 -14.5000 Du        
   5763 ****       -18.2500 -16.0000 -14.2500 Du        
   5764 ****       -18.2500 -16.0000   2.2500 Du        
   5765 ****       -18.2500 -16.0000   2.5000 Du        
   5766 ****       -18.2500 -16.0000   2.7500 Du        
   5767 ****       -18.2500 -16.0000   3.0000 Du        
   5768 ****       -18.2500 -16.0000   3.2500 Du        
   5769 ****       -18.2500 -16.0000   3.5000 Du        
   5770 ****       -18.2500 -15.7500 -25.5000 Du        
   5771 ****       -18.2500 -15.7500 -25.2500 Du        
   5772 ****       -18.2500 -15.7500 -25.0000 Du        
   5773 ****       -18.2500 -15.7500 -24.7500 Du        
   5774 ****       -18.2500 -15.7500 -24.5000 Du        
   5775 ****       -18.2500 -15.7500 -24.2500 Du        
   5776 ****       -18.2500 -15.7500 -24.0000 Du        
   5777 ****       -18.2500 -15.7500 -14.7500 Du        
   5778 ****       -18.2500 -15.7500 -14.5000 Du        
   5779 ****       -18.2500 -15.7500 -14.2500 Du        
   5780 ****       -18.2500 -15.7500   2.7500 Du        
   5781 ****       -18.2500 -15.7500   3.0000 Du        
   5782 ****       -18.2500 -15.7500   3.2500 Du        
   5783 ****       -18.2500 -15.7500   3.5000 Du        
   5784 ****       -18.2500 -15.5000 -24.5000 Du        
   5785 ****       -18.2500 -15.5000 -24.2500 Du        
   5786 ****       -18.2500 -15.5000 -24.0000 Du        
   5787 ****       -18.2500 -15.5000 -14.7500 Du        
   5788 ****       -18.2500 -15.5000   3.2500 Du        
   5789 ****       -18.2500 -15.5000   3.5000 Du        
   5790 ****       -18.2500 -15.2500 -24.2500 Du        
   5791 ****       -18.2500 -15.2500 -24.0000 Du        
   5792 ****       -18.2500 -15.2500 -15.0000 Du        
   5793 ****       -18.2500 -15.2500 -14.7500 Du        
   5794 ****       -18.2500 -15.0000 -15.5000 Du        
   5795 ****       -18.2500 -15.0000 -15.2500 Du        
   5796 ****       -18.2500 -15.0000 -15.0000 Du        
   5797 ****       -18.2500 -15.0000 -14.7500 Du        
   5798 ****       -18.2500 -14.7500 -15.7500 Du        
   5799 ****       -18.2500 -14.7500 -15.5000 Du        
   5800 ****       -18.2500 -14.7500 -15.2500 Du        
   5801 ****       -18.2500 -14.7500 -15.0000 Du        
   5802 ****       -18.2500 -14.7500 -14.7500 Du        
   5803 ****       -18.2500 -14.5000 -16.0000 Du        
   5804 ****       -18.2500 -14.5000 -15.7500 Du        
   5805 ****       -18.2500 -14.5000 -15.5000 Du        
   5806 ****       -18.2500 -14.5000 -15.2500 Du        
   5807 ****       -18.2500 -14.5000 -15.0000 Du        
   5808 ****       -18.2500 -14.2500 -16.2500 Du        
   5809 ****       -18.2500 -14.2500 -16.0000 Du        
   5810 ****       -18.2500 -14.2500 -15.7500 Du        
   5811 ****       -18.2500 -14.2500 -15.5000 Du        
   5812 ****       -18.2500 -14.2500 -15.2500 Du        
   5813 ****       -18.2500 -14.2500 -15.0000 Du        
   5814 ****       -18.2500 -14.0000 -16.5000 Du        
   5815 ****       -18.2500 -14.0000 -16.2500 Du        
   5816 ****       -18.2500 -14.0000 -16.0000 Du        
   5817 ****       -18.2500 -14.0000 -15.7500 Du        
   5818 ****       -18.2500 -14.0000 -15.5000 Du        
   5819 ****       -18.2500 -14.0000 -15.2500 Du        
   5820 ****       -18.2500 -14.0000 -15.0000 Du        
   5821 ****       -18.2500 -14.0000 -14.7500 Du        
   5822 ****       -18.2500 -13.7500 -16.5000 Du        
   5823 ****       -18.2500 -13.7500 -16.2500 Du        
   5824 ****       -18.2500 -13.7500 -16.0000 Du        
   5825 ****       -18.2500 -13.7500 -15.7500 Du        
   5826 ****       -18.2500 -13.7500 -15.5000 Du        
   5827 ****       -18.2500 -13.7500 -15.2500 Du        
   5828 ****       -18.2500 -13.7500 -15.0000 Du        
   5829 ****       -18.2500 -13.5000 -16.7500 Du        
   5830 ****       -18.2500 -13.5000 -16.5000 Du        
   5831 ****       -18.2500 -13.5000 -16.2500 Du        
   5832 ****       -18.2500 -13.5000 -16.0000 Du        
   5833 ****       -18.2500 -13.5000 -15.7500 Du        
   5834 ****       -18.2500 -13.2500 -17.0000 Du        
   5835 ****       -18.2500 -13.2500 -16.7500 Du        
   5836 ****       -18.2500 -13.2500 -16.5000 Du        
   5837 ****       -18.2500 -13.2500 -16.2500 Du        
   5838 ****       -18.2500 -13.2500 -16.0000 Du        
   5839 ****       -18.2500 -13.2500 -15.7500 Du        
   5840 ****       -18.2500 -13.0000 -17.0000 Du        
   5841 ****       -18.2500 -13.0000 -16.7500 Du        
   5842 ****       -18.2500 -13.0000 -16.5000 Du        
   5843 ****       -18.2500 -13.0000 -16.2500 Du        
   5844 ****       -18.2500 -13.0000 -16.0000 Du        
   5845 ****       -18.2500 -13.0000 -15.7500 Du        
   5846 ****       -18.2500 -12.7500 -17.0000 Du        
   5847 ****       -18.2500 -12.7500 -16.7500 Du        
   5848 ****       -18.2500 -12.7500 -16.5000 Du        
   5849 ****       -18.2500 -12.7500 -16.2500 Du        
   5850 ****       -18.2500 -12.7500 -16.0000 Du        
   5851 ****       -18.2500 -12.5000 -17.0000 Du        
   5852 ****       -18.2500 -12.5000 -16.7500 Du        
   5853 ****       -18.2500 -12.2500 -17.2500 Du        
   5854 ****       -18.2500 -12.2500 -17.0000 Du        
   5855 ****       -18.2500 -12.2500 -16.7500 Du        
   5856 ****       -18.2500 -12.0000 -17.2500 Du        
   5857 ****       -18.2500 -12.0000 -17.0000 Du        
   5858 ****       -18.2500 -12.0000 -16.7500 Du        
   5859 ****       -18.2500 -11.7500 -17.5000 Du        
   5860 ****       -18.2500 -11.7500 -17.0000 Du        
   5861 ****       -18.2500 -11.7500 -16.7500 Du        
   5862 ****       -18.2500 -11.7500 -11.0000 Du        
   5863 ****       -18.2500 -11.7500 -10.7500 Du        
   5864 ****       -18.2500 -11.5000 -11.5000 Du        
   5865 ****       -18.2500 -11.5000 -11.2500 Du        
   5866 ****       -18.2500 -11.5000 -11.0000 Du        
   5867 ****       -18.2500 -11.5000 -10.7500 Du        
   5868 ****       -18.2500 -11.5000 -10.5000 Du        
   5869 ****       -18.2500 -11.2500 -11.7500 Du        
   5870 ****       -18.2500 -11.2500 -11.5000 Du        
   5871 ****       -18.2500 -11.2500 -11.2500 Du        
   5872 ****       -18.2500 -11.2500 -11.0000 Du        
   5873 ****       -18.2500 -11.2500 -10.7500 Du        
   5874 ****       -18.2500 -11.2500 -10.5000 Du        
   5875 ****       -18.2500 -11.2500 -10.2500 Du        
   5876 ****       -18.2500 -11.0000 -11.7500 Du        
   5877 ****       -18.2500 -11.0000 -11.5000 Du        
   5878 ****       -18.2500 -11.0000 -11.2500 Du        
   5879 ****       -18.2500 -11.0000 -11.0000 Du        
   5880 ****       -18.2500 -11.0000 -10.7500 Du        
   5881 ****       -18.2500 -11.0000 -10.5000 Du        
   5882 ****       -18.2500 -11.0000 -10.2500 Du        
   5883 ****       -18.2500 -11.0000 -10.0000 Du        
   5884 ****       -18.2500 -10.7500 -11.7500 Du        
   5885 ****       -18.2500 -10.7500 -11.5000 Du        
   5886 ****       -18.2500 -10.7500 -11.2500 Du        
   5887 ****       -18.2500 -10.7500 -11.0000 Du        
   5888 ****       -18.2500 -10.7500 -10.7500 Du        
   5889 ****       -18.2500 -10.7500 -10.5000 Du        
   5890 ****       -18.2500 -10.7500 -10.2500 Du        
   5891 ****       -18.2500 -10.7500 -10.0000 Du        
   5892 ****       -18.2500 -10.5000 -11.5000 Du        
   5893 ****       -18.2500 -10.5000 -11.2500 Du        
   5894 ****       -18.2500 -10.5000 -11.0000 Du        
   5895 ****       -18.2500 -10.5000 -10.7500 Du        
   5896 ****       -18.2500 -10.5000 -10.5000 Du        
   5897 ****       -18.2500 -10.5000 -10.2500 Du        
   5898 ****       -18.2500 -10.5000 -10.0000 Du        
   5899 ****       -18.2500 -10.2500 -11.2500 Du        
   5900 ****       -18.2500 -10.2500 -11.0000 Du        
   5901 ****       -18.2500 -10.2500 -10.7500 Du        
   5902 ****       -18.2500 -10.2500 -10.5000 Du        
   5903 ****       -18.2500 -10.2500 -10.2500 Du        
   5904 ****       -18.2500 -10.2500 -10.0000 Du        
   5905 ****       -18.2500 -10.2500  -9.7500 Du        
   5906 ****       -18.2500 -10.0000 -11.0000 Du        
   5907 ****       -18.2500 -10.0000 -10.7500 Du        
   5908 ****       -18.2500 -10.0000 -10.5000 Du        
   5909 ****       -18.2500 -10.0000 -10.2500 Du        
   5910 ****       -18.2500 -10.0000 -10.0000 Du        
   5911 ****       -18.2500 -10.0000  -9.7500 Du        
   5912 ****       -18.2500  -9.7500 -10.7500 Du        
   5913 ****       -18.2500  -9.7500 -10.5000 Du        
   5914 ****       -18.2500  -9.7500 -10.2500 Du        
   5915 ****       -18.2500  -9.7500 -10.0000 Du        
   5916 ****       -18.2500  -9.7500  -9.7500 Du        
   5917 ****       -18.2500  -9.7500  -9.5000 Du        
   5918 ****       -18.2500  -9.7500  -9.2500 Du        
   5919 ****       -18.2500  -9.5000 -10.5000 Du        
   5920 ****       -18.2500  -9.5000 -10.2500 Du        
   5921 ****       -18.2500  -9.5000 -10.0000 Du        
   5922 ****       -18.2500  -9.5000  -9.7500 Du        
   5923 ****       -18.2500  -9.5000  -9.5000 Du        
   5924 ****       -18.2500  -9.5000  -9.2500 Du        
   5925 ****       -18.2500  -9.5000  -9.0000 Du        
   5926 ****       -18.2500  -9.2500 -10.2500 Du        
   5927 ****       -18.2500  -9.2500 -10.0000 Du        
   5928 ****       -18.2500  -9.2500  -9.7500 Du        
   5929 ****       -18.2500  -9.2500  -9.5000 Du        
   5930 ****       -18.2500  -9.2500  -9.2500 Du        
   5931 ****       -18.2500  -9.2500  -9.0000 Du        
   5932 ****       -18.2500  -9.2500  -8.7500 Du        
   5933 ****       -18.2500  -9.0000  -9.7500 Du        
   5934 ****       -18.2500  -9.0000  -9.5000 Du        
   5935 ****       -18.2500  -9.0000  -9.2500 Du        
   5936 ****       -18.2500  -9.0000  -9.0000 Du        
   5937 ****       -18.2500  -9.0000  -8.7500 Du        
   5938 ****       -18.2500  -9.0000  -8.5000 Du        
   5939 ****       -18.2500  -8.7500  -9.5000 Du        
   5940 ****       -18.2500  -8.7500  -9.2500 Du        
   5941 ****       -18.2500  -8.7500  -9.0000 Du        
   5942 ****       -18.2500  -8.7500  -8.7500 Du        
   5943 ****       -18.2500  -8.7500  -8.5000 Du        
   5944 ****       -18.2500  -8.7500  -8.2500 Du        
   5945 ****       -18.2500  -8.5000  -9.2500 Du        
   5946 ****       -18.2500  -8.5000  -9.0000 Du        
   5947 ****       -18.2500  -8.5000  -8.7500 Du        
   5948 ****       -18.2500  -8.5000  -8.5000 Du        
   5949 ****       -18.2500  -8.5000  -8.2500 Du        
   5950 ****       -18.2500  -8.5000  -8.0000 Du        
   5951 ****       -18.2500  -8.2500  -9.0000 Du        
   5952 ****       -18.2500  -8.2500  -8.7500 Du        
   5953 ****       -18.2500  -8.2500  -8.5000 Du        
   5954 ****       -18.2500  -8.2500  -8.2500 Du        
   5955 ****       -18.2500  -8.2500  -8.0000 Du        
   5956 ****       -18.2500  -8.2500  -7.7500 Du        
   5957 ****       -18.2500  -8.0000  -9.0000 Du        
   5958 ****       -18.2500  -8.0000  -8.7500 Du        
   5959 ****       -18.2500  -8.0000  -8.5000 Du        
   5960 ****       -18.2500  -8.0000  -8.2500 Du        
   5961 ****       -18.2500  -8.0000  -8.0000 Du        
   5962 ****       -18.2500  -8.0000  -7.7500 Du        
   5963 ****       -18.2500  -7.7500  -8.7500 Du        
   5964 ****       -18.2500  -7.7500  -8.5000 Du        
   5965 ****       -18.2500  -7.7500  -8.2500 Du        
   5966 ****       -18.2500  -7.7500  -8.0000 Du        
   5967 ****       -18.2500  -7.7500  -7.7500 Du        
   5968 ****       -18.2500  -7.7500  -7.5000 Du        
   5969 ****       -18.2500  -7.5000  -8.5000 Du        
   5970 ****       -18.2500  -7.5000  -8.2500 Du        
   5971 ****       -18.2500  -7.5000  -8.0000 Du        
   5972 ****       -18.2500  -7.5000  -7.7500 Du        
   5973 ****       -18.2500  -7.5000  -7.5000 Du        
   5974 ****       -18.2500  -7.5000  -7.2500 Du        
   5975 ****       -18.2500  -7.2500  -8.5000 Du        
   5976 ****       -18.2500  -7.2500  -8.2500 Du        
   5977 ****       -18.2500  -7.2500  -8.0000 Du        
   5978 ****       -18.2500  -7.2500  -7.7500 Du        
   5979 ****       -18.2500  -7.2500  -7.5000 Du        
   5980 ****       -18.2500  -7.2500  -7.2500 Du        
   5981 ****       -18.2500  -7.2500  -7.0000 Du        
   5982 ****       -18.2500  -7.0000  -8.5000 Du        
   5983 ****       -18.2500  -7.0000  -8.2500 Du        
   5984 ****       -18.2500  -7.0000  -8.0000 Du        
   5985 ****       -18.2500  -7.0000  -7.7500 Du        
   5986 ****       -18.2500  -7.0000  -7.5000 Du        
   5987 ****       -18.2500  -7.0000  -7.2500 Du        
   5988 ****       -18.2500  -7.0000  -7.0000 Du        
   5989 ****       -18.2500  -7.0000  -6.7500 Du        
   5990 ****       -18.2500  -6.7500  -8.2500 Du        
   5991 ****       -18.2500  -6.7500  -8.0000 Du        
   5992 ****       -18.2500  -6.7500  -7.7500 Du        
   5993 ****       -18.2500  -6.7500  -7.5000 Du        
   5994 ****       -18.2500  -6.7500  -7.2500 Du        
   5995 ****       -18.2500  -6.7500  -7.0000 Du        
   5996 ****       -18.2500  -6.7500  -6.7500 Du        
   5997 ****       -18.2500  -6.7500  -6.5000 Du        
   5998 ****       -18.2500  -6.7500  -6.2500 Du        
   5999 ****       -18.2500  -6.5000  -8.2500 Du        
   6000 ****       -18.2500  -6.5000  -8.0000 Du        
   6001 ****       -18.2500  -6.5000  -7.7500 Du        
   6002 ****       -18.2500  -6.5000  -7.5000 Du        
   6003 ****       -18.2500  -6.5000  -7.2500 Du        
   6004 ****       -18.2500  -6.5000  -7.0000 Du        
   6005 ****       -18.2500  -6.5000  -6.7500 Du        
   6006 ****       -18.2500  -6.5000  -6.5000 Du        
   6007 ****       -18.2500  -6.5000  -6.2500 Du        
   6008 ****       -18.2500  -6.5000  -6.0000 Du        
   6009 ****       -18.2500  -6.2500  -8.2500 Du        
   6010 ****       -18.2500  -6.2500  -8.0000 Du        
   6011 ****       -18.2500  -6.2500  -7.7500 Du        
   6012 ****       -18.2500  -6.2500  -7.5000 Du        
   6013 ****       -18.2500  -6.2500  -7.2500 Du        
   6014 ****       -18.2500  -6.2500  -7.0000 Du        
   6015 ****       -18.2500  -6.2500  -6.7500 Du        
   6016 ****       -18.2500  -6.2500  -6.5000 Du        
   6017 ****       -18.2500  -6.2500  -6.2500 Du        
   6018 ****       -18.2500  -6.2500  -6.0000 Du        
   6019 ****       -18.2500  -6.2500  -5.7500 Du        
   6020 ****       -18.2500  -6.0000  -8.2500 Du        
   6021 ****       -18.2500  -6.0000  -8.0000 Du        
   6022 ****       -18.2500  -6.0000  -7.7500 Du        
   6023 ****       -18.2500  -6.0000  -7.5000 Du        
   6024 ****       -18.2500  -6.0000  -7.2500 Du        
   6025 ****       -18.2500  -6.0000  -7.0000 Du        
   6026 ****       -18.2500  -6.0000  -6.7500 Du        
   6027 ****       -18.2500  -6.0000  -6.5000 Du        
   6028 ****       -18.2500  -6.0000  -6.2500 Du        
   6029 ****       -18.2500  -6.0000  -6.0000 Du        
   6030 ****       -18.2500  -6.0000  -5.7500 Du        
   6031 ****       -18.2500  -6.0000  -5.5000 Du        
   6032 ****       -18.2500  -6.0000  -5.2500 Du        
   6033 ****       -18.2500  -6.0000  -5.0000 Du        
   6034 ****       -18.2500  -5.7500  -8.2500 Du        
   6035 ****       -18.2500  -5.7500  -8.0000 Du        
   6036 ****       -18.2500  -5.7500  -7.7500 Du        
   6037 ****       -18.2500  -5.7500  -7.5000 Du        
   6038 ****       -18.2500  -5.7500  -7.2500 Du        
   6039 ****       -18.2500  -5.7500  -7.0000 Du        
   6040 ****       -18.2500  -5.7500  -6.7500 Du        
   6041 ****       -18.2500  -5.7500  -6.5000 Du        
   6042 ****       -18.2500  -5.7500  -6.2500 Du        
   6043 ****       -18.2500  -5.7500  -6.0000 Du        
   6044 ****       -18.2500  -5.7500  -5.7500 Du        
   6045 ****       -18.2500  -5.7500  -5.5000 Du        
   6046 ****       -18.2500  -5.7500  -5.2500 Du        
   6047 ****       -18.2500  -5.7500  -5.0000 Du        
   6048 ****       -18.2500  -5.7500  -4.7500 Du        
   6049 ****       -18.2500  -5.7500  -4.5000 Du        
   6050 ****       -18.2500  -5.7500  -4.2500 Du        
   6051 ****       -18.2500  -5.7500  -4.0000 Du        
   6052 ****       -18.2500  -5.5000  -8.2500 Du        
   6053 ****       -18.2500  -5.5000  -8.0000 Du        
   6054 ****       -18.2500  -5.5000  -7.7500 Du        
   6055 ****       -18.2500  -5.5000  -7.5000 Du        
   6056 ****       -18.2500  -5.5000  -7.2500 Du        
   6057 ****       -18.2500  -5.5000  -7.0000 Du        
   6058 ****       -18.2500  -5.5000  -6.7500 Du        
   6059 ****       -18.2500  -5.5000  -6.5000 Du        
   6060 ****       -18.2500  -5.5000  -6.2500 Du        
   6061 ****       -18.2500  -5.5000  -6.0000 Du        
   6062 ****       -18.2500  -5.5000  -5.7500 Du        
   6063 ****       -18.2500  -5.5000  -5.5000 Du        
   6064 ****       -18.2500  -5.5000  -5.2500 Du        
   6065 ****       -18.2500  -5.5000  -5.0000 Du        
   6066 ****       -18.2500  -5.5000  -4.7500 Du        
   6067 ****       -18.2500  -5.5000  -4.5000 Du        
   6068 ****       -18.2500  -5.5000  -4.2500 Du        
   6069 ****       -18.2500  -5.5000  -4.0000 Du        
   6070 ****       -18.2500  -5.5000  -3.7500 Du        
   6071 ****       -18.2500  -5.2500  -8.2500 Du        
   6072 ****       -18.2500  -5.2500  -8.0000 Du        
   6073 ****       -18.2500  -5.2500  -7.7500 Du        
   6074 ****       -18.2500  -5.2500  -7.5000 Du        
   6075 ****       -18.2500  -5.2500  -7.2500 Du        
   6076 ****       -18.2500  -5.2500  -7.0000 Du        
   6077 ****       -18.2500  -5.2500  -6.7500 Du        
   6078 ****       -18.2500  -5.2500  -6.5000 Du        
   6079 ****       -18.2500  -5.2500  -6.2500 Du        
   6080 ****       -18.2500  -5.2500  -6.0000 Du        
   6081 ****       -18.2500  -5.2500  -5.7500 Du        
   6082 ****       -18.2500  -5.2500  -5.5000 Du        
   6083 ****       -18.2500  -5.2500  -5.2500 Du        
   6084 ****       -18.2500  -5.2500  -5.0000 Du        
   6085 ****       -18.2500  -5.2500  -4.7500 Du        
   6086 ****       -18.2500  -5.2500  -4.5000 Du        
   6087 ****       -18.2500  -5.2500  -4.2500 Du        
   6088 ****       -18.2500  -5.2500  -4.0000 Du        
   6089 ****       -18.2500  -5.2500  -3.7500 Du        
   6090 ****       -18.2500  -5.2500  -3.5000 Du        
   6091 ****       -18.2500  -5.0000  -8.2500 Du        
   6092 ****       -18.2500  -5.0000  -8.0000 Du        
   6093 ****       -18.2500  -5.0000  -7.7500 Du        
   6094 ****       -18.2500  -5.0000  -7.5000 Du        
   6095 ****       -18.2500  -5.0000  -7.2500 Du        
   6096 ****       -18.2500  -5.0000  -7.0000 Du        
   6097 ****       -18.2500  -5.0000  -6.7500 Du        
   6098 ****       -18.2500  -5.0000  -6.5000 Du        
   6099 ****       -18.2500  -5.0000  -6.2500 Du        
   6100 ****       -18.2500  -5.0000  -6.0000 Du        
   6101 ****       -18.2500  -5.0000  -5.7500 Du        
   6102 ****       -18.2500  -5.0000  -5.5000 Du        
   6103 ****       -18.2500  -5.0000  -5.2500 Du        
   6104 ****       -18.2500  -5.0000  -5.0000 Du        
   6105 ****       -18.2500  -5.0000  -4.7500 Du        
   6106 ****       -18.2500  -5.0000  -4.5000 Du        
   6107 ****       -18.2500  -5.0000  -4.2500 Du        
   6108 ****       -18.2500  -5.0000  -4.0000 Du        
   6109 ****       -18.2500  -5.0000  -3.7500 Du        
   6110 ****       -18.2500  -4.7500  -8.2500 Du        
   6111 ****       -18.2500  -4.7500  -8.0000 Du        
   6112 ****       -18.2500  -4.7500  -7.7500 Du        
   6113 ****       -18.2500  -4.7500  -7.5000 Du        
   6114 ****       -18.2500  -4.7500  -6.5000 Du        
   6115 ****       -18.2500  -4.7500  -6.2500 Du        
   6116 ****       -18.2500  -4.7500  -6.0000 Du        
   6117 ****       -18.2500  -4.7500  -5.7500 Du        
   6118 ****       -18.2500  -4.7500  -5.5000 Du        
   6119 ****       -18.2500  -4.7500  -5.2500 Du        
   6120 ****       -18.2500  -4.7500  -5.0000 Du        
   6121 ****       -18.2500  -4.7500  -4.7500 Du        
   6122 ****       -18.2500  -4.7500  -4.5000 Du        
   6123 ****       -18.2500  -4.7500  -4.2500 Du        
   6124 ****       -18.2500  -4.7500  -4.0000 Du        
   6125 ****       -18.2500  -4.5000  -8.2500 Du        
   6126 ****       -18.2500  -4.5000  -8.0000 Du        
   6127 ****       -18.2500  -4.5000  -7.7500 Du        
   6128 ****       -18.2500  -4.5000  -6.2500 Du        
   6129 ****       -18.2500  -4.5000  -6.0000 Du        
   6130 ****       -18.2500  -4.5000  -5.7500 Du        
   6131 ****       -18.2500  -4.5000  -5.5000 Du        
   6132 ****       -18.2500  -4.5000  -5.2500 Du        
   6133 ****       -18.2500  -4.5000  -5.0000 Du        
   6134 ****       -18.2500  -4.5000  -4.7500 Du        
   6135 ****       -18.2500  -4.5000  -4.5000 Du        
   6136 ****       -18.2500  -4.5000  -4.2500 Du        
   6137 ****       -18.2500  -4.5000  -4.0000 Du        
   6138 ****       -18.2500  -4.2500  -8.2500 Du        
   6139 ****       -18.2500  -4.2500  -8.0000 Du        
   6140 ****       -18.2500  -4.2500  -7.7500 Du        
   6141 ****       -18.2500  -4.2500  -6.2500 Du        
   6142 ****       -18.2500  -4.2500  -6.0000 Du        
   6143 ****       -18.2500  -4.2500  -5.7500 Du        
   6144 ****       -18.2500  -4.2500  -5.5000 Du        
   6145 ****       -18.2500  -4.2500  -5.2500 Du        
   6146 ****       -18.2500  -4.2500  -5.0000 Du        
   6147 ****       -18.2500  -4.2500  -4.7500 Du        
   6148 ****       -18.2500  -4.2500  -4.5000 Du        
   6149 ****       -18.2500  -4.2500  -4.2500 Du        
   6150 ****       -18.2500  -4.0000  -8.2500 Du        
   6151 ****       -18.2500  -4.0000  -8.0000 Du        
   6152 ****       -18.2500  -4.0000  -7.7500 Du        
   6153 ****       -18.2500  -4.0000  -6.5000 Du        
   6154 ****       -18.2500  -4.0000  -6.2500 Du        
   6155 ****       -18.2500  -4.0000  -6.0000 Du        
   6156 ****       -18.2500  -4.0000  -5.7500 Du        
   6157 ****       -18.2500  -4.0000  -5.5000 Du        
   6158 ****       -18.2500  -4.0000  -5.2500 Du        
   6159 ****       -18.2500  -4.0000  -5.0000 Du        
   6160 ****       -18.2500  -4.0000  -4.7500 Du        
   6161 ****       -18.2500  -4.0000  -4.5000 Du        
   6162 ****       -18.2500  -3.7500  -8.2500 Du        
   6163 ****       -18.2500  -3.7500  -8.0000 Du        
   6164 ****       -18.2500  -3.7500  -6.2500 Du        
   6165 ****       -18.2500  -3.7500  -6.0000 Du        
   6166 ****       -18.2500  -3.7500  -5.7500 Du        
   6167 ****       -18.2500  -3.7500  -5.5000 Du        
   6168 ****       -18.2500  -3.7500  -5.2500 Du        
   6169 ****       -18.2500  -3.7500  -5.0000 Du        
   6170 ****       -18.2500  -3.7500  -4.7500 Du        
   6171 ****       -18.2500  -3.7500  -4.5000 Du        
   6172 ****       -18.2500  -3.5000  -6.0000 Du        
   6173 ****       -18.2500  -3.5000  -5.7500 Du        
   6174 ****       -18.2500  -3.5000  -5.5000 Du        
   6175 ****       -18.2500  -3.5000  -5.2500 Du        
   6176 ****       -18.2500  -3.5000  -5.0000 Du        
   6177 ****       -18.2500  -3.5000  -4.7500 Du        
   6178 ****       -18.2500  -3.2500  -6.0000 Du        
   6179 ****       -18.2500  -3.2500  -5.7500 Du        
   6180 ****       -18.2500  -3.2500  -5.5000 Du        
   6181 ****       -18.2500  -3.2500  -5.2500 Du        
   6182 ****       -18.2500  -3.2500  -5.0000 Du        
   6183 ****       -18.2500  -3.0000  -7.7500 Du        
   6184 ****       -18.2500  -3.0000  -7.5000 Du        
   6185 ****       -18.2500  -3.0000  -7.0000 Du        
   6186 ****       -18.2500  -3.0000  -6.2500 Du        
   6187 ****       -18.2500  -3.0000  -6.0000 Du        
   6188 ****       -18.2500  -3.0000  -5.7500 Du        
   6189 ****       -18.2500  -3.0000  -5.5000 Du        
   6190 ****       -18.2500  -3.0000  -5.2500 Du        
   6191 ****       -18.2500  -3.0000  -5.0000 Du        
   6192 ****       -18.2500  -2.7500  -6.7500 Du        
   6193 ****       -18.2500  -2.7500  -6.0000 Du        
   6194 ****       -18.2500  -2.7500  -5.7500 Du        
   6195 ****       -18.2500  -2.7500  -5.5000 Du        
   6196 ****       -18.2500  -2.7500  -5.2500 Du        
   6197 ****       -18.2500  -2.7500  -5.0000 Du        
   6198 ****       -18.2500  -2.5000  -7.0000 Du        
   6199 ****       -18.2500  -2.5000  -6.7500 Du        
   6200 ****       -18.2500  -2.5000  -6.2500 Du        
   6201 ****       -18.2500  -2.5000  -6.0000 Du        
   6202 ****       -18.2500  -2.5000  -5.7500 Du        
   6203 ****       -18.2500  -2.5000  -5.5000 Du        
   6204 ****       -18.2500  -2.5000  -5.2500 Du        
   6205 ****       -18.2500  -2.5000  -5.0000 Du        
   6206 ****       -18.2500  -2.2500  -7.2500 Du        
   6207 ****       -18.2500  -2.2500  -7.0000 Du        
   6208 ****       -18.2500  -2.2500  -6.7500 Du        
   6209 ****       -18.2500  -2.2500  -6.5000 Du        
   6210 ****       -18.2500  -2.2500  -6.2500 Du        
   6211 ****       -18.2500  -2.2500  -6.0000 Du        
   6212 ****       -18.2500  -2.2500  -5.7500 Du        
   6213 ****       -18.2500  -2.2500  -5.5000 Du        
   6214 ****       -18.2500  -2.2500  -5.2500 Du        
   6215 ****       -18.2500  -2.2500  -5.0000 Du        
   6216 ****       -18.2500  -2.0000  -7.2500 Du        
   6217 ****       -18.2500  -2.0000  -7.0000 Du        
   6218 ****       -18.2500  -2.0000  -6.7500 Du        
   6219 ****       -18.2500  -2.0000  -6.5000 Du        
   6220 ****       -18.2500  -2.0000  -6.2500 Du        
   6221 ****       -18.2500  -2.0000  -6.0000 Du        
   6222 ****       -18.2500  -2.0000  -5.7500 Du        
   6223 ****       -18.2500  -2.0000  -5.5000 Du        
   6224 ****       -18.2500  -2.0000  -5.2500 Du        
   6225 ****       -18.2500  -2.0000  -5.0000 Du        
   6226 ****       -18.2500  -1.7500  -7.2500 Du        
   6227 ****       -18.2500  -1.7500  -7.0000 Du        
   6228 ****       -18.2500  -1.7500  -6.7500 Du        
   6229 ****       -18.2500  -1.7500  -6.5000 Du        
   6230 ****       -18.2500  -1.7500  -6.2500 Du        
   6231 ****       -18.2500  -1.7500  -6.0000 Du        
   6232 ****       -18.2500  -1.7500  -5.7500 Du        
   6233 ****       -18.2500  -1.7500  -5.5000 Du        
   6234 ****       -18.2500  -1.7500  -5.2500 Du        
   6235 ****       -18.2500  -1.7500  -5.0000 Du        
   6236 ****       -18.2500  -1.5000  -6.7500 Du        
   6237 ****       -18.2500  -1.5000  -6.5000 Du        
   6238 ****       -18.2500  -1.5000  -6.2500 Du        
   6239 ****       -18.2500  -1.5000  -6.0000 Du        
   6240 ****       -18.2500  -1.5000  -5.7500 Du        
   6241 ****       -18.2500  -1.5000  -5.5000 Du        
   6242 ****       -18.2500  -1.5000  -5.2500 Du        
   6243 ****       -18.2500  -1.2500  -6.7500 Du        
   6244 ****       -18.2500  -1.2500  -6.5000 Du        
   6245 ****       -18.2500  -1.2500  -6.2500 Du        
   6246 ****       -18.2500  -1.2500  -6.0000 Du        
   6247 ****       -18.2500  -1.2500  -5.7500 Du        
   6248 ****       -18.2500  -1.0000  -7.0000 Du        
   6249 ****       -18.2500  -1.0000  -6.7500 Du        
   6250 ****       -18.2500  -1.0000  -6.2500 Du        
   6251 ****       -18.2500  -1.0000  -6.0000 Du        
   6252 ****       -18.2500  -1.0000  -5.7500 Du        
   6253 ****       -18.2500  -0.7500  -6.7500 Du        
   6254 ****       -18.2500  -0.7500  -6.5000 Du        
   6255 ****       -18.2500  -0.7500  -6.2500 Du        
   6256 ****       -18.2500  -0.7500  -6.0000 Du        
   6257 ****       -18.2500  -0.5000  -6.5000 Du        
   6258 ****       -18.2500  -0.5000  -6.2500 Du        
   6259 ****       -18.2500   4.7500 -10.0000 Du        
   6260 ****       -18.2500   4.7500  -9.7500 Du        
   6261 ****       -18.2500   5.0000 -10.0000 Du        
   6262 ****       -18.2500   5.2500 -10.2500 Du        
   6263 ****       -18.2500   5.2500 -10.0000 Du        
   6264 ****       -18.2500   6.0000 -17.5000 Du        
   6265 ****       -18.2500   6.0000 -17.2500 Du        
   6266 ****       -18.2500   6.0000 -17.0000 Du        
   6267 ****       -18.2500   6.2500 -17.5000 Du        
   6268 ****       -18.2500   6.2500 -17.2500 Du        
   6269 ****       -18.2500   6.2500 -17.0000 Du        
   6270 ****       -18.2500   6.2500 -16.7500 Du        
   6271 ****       -18.0000 -25.7500  -9.0000 Du        
   6272 ****       -18.0000 -25.5000  -9.5000 Du        
   6273 ****       -18.0000 -25.5000  -9.2500 Du        
   6274 ****       -18.0000 -25.5000  -9.0000 Du        
   6275 ****       -18.0000 -25.5000  -8.7500 Du        
   6276 ****       -18.0000 -25.2500  -9.5000 Du        
   6277 ****       -18.0000 -25.2500  -9.2500 Du        
   6278 ****       -18.0000 -25.2500  -9.0000 Du        
   6279 ****       -18.0000 -25.2500  -8.7500 Du        
   6280 ****       -18.0000 -25.2500  -8.5000 Du        
   6281 ****       -18.0000 -25.0000  -9.5000 Du        
   6282 ****       -18.0000 -25.0000  -9.2500 Du        
   6283 ****       -18.0000 -25.0000  -9.0000 Du        
   6284 ****       -18.0000 -25.0000  -8.7500 Du        
   6285 ****       -18.0000 -25.0000  -8.5000 Du        
   6286 ****       -18.0000 -25.0000  -8.2500 Du        
   6287 ****       -18.0000 -24.7500  -9.2500 Du        
   6288 ****       -18.0000 -24.7500  -9.0000 Du        
   6289 ****       -18.0000 -24.7500  -8.7500 Du        
   6290 ****       -18.0000 -24.7500  -8.5000 Du        
   6291 ****       -18.0000 -24.7500  -8.2500 Du        
   6292 ****       -18.0000 -24.5000  -9.0000 Du        
   6293 ****       -18.0000 -24.5000  -8.7500 Du        
   6294 ****       -18.0000 -24.5000  -8.5000 Du        
   6295 ****       -18.0000 -24.5000  -8.2500 Du        
   6296 ****       -18.0000 -24.5000  -8.0000 Du        
   6297 ****       -18.0000 -20.5000  -8.5000 Du        
   6298 ****       -18.0000 -20.5000  -8.2500 Du        
   6299 ****       -18.0000 -20.2500  -9.0000 Du        
   6300 ****       -18.0000 -20.2500  -8.7500 Du        
   6301 ****       -18.0000 -20.2500  -8.5000 Du        
   6302 ****       -18.0000 -20.2500  -8.2500 Du        
   6303 ****       -18.0000 -20.2500  -8.0000 Du        
   6304 ****       -18.0000 -20.2500  -7.7500 Du        
   6305 ****       -18.0000 -20.0000  -9.2500 Du        
   6306 ****       -18.0000 -20.0000  -9.0000 Du        
   6307 ****       -18.0000 -20.0000  -8.7500 Du        
   6308 ****       -18.0000 -20.0000  -8.5000 Du        
   6309 ****       -18.0000 -20.0000  -8.2500 Du        
   6310 ****       -18.0000 -20.0000  -8.0000 Du        
   6311 ****       -18.0000 -20.0000  -7.7500 Du        
   6312 ****       -18.0000 -19.7500  -9.5000 Du        
   6313 ****       -18.0000 -19.7500  -9.2500 Du        
   6314 ****       -18.0000 -19.7500  -9.0000 Du        
   6315 ****       -18.0000 -19.7500  -8.7500 Du        
   6316 ****       -18.0000 -19.7500  -8.5000 Du        
   6317 ****       -18.0000 -19.7500  -8.2500 Du        
   6318 ****       -18.0000 -19.7500  -8.0000 Du        
   6319 ****       -18.0000 -19.7500  -7.7500 Du        
   6320 ****       -18.0000 -19.5000 -10.0000 Du        
   6321 ****       -18.0000 -19.5000  -9.7500 Du        
   6322 ****       -18.0000 -19.5000  -9.5000 Du        
   6323 ****       -18.0000 -19.5000  -9.2500 Du        
   6324 ****       -18.0000 -19.5000  -9.0000 Du        
   6325 ****       -18.0000 -19.5000  -8.7500 Du        
   6326 ****       -18.0000 -19.5000  -8.5000 Du        
   6327 ****       -18.0000 -19.5000  -8.2500 Du        
   6328 ****       -18.0000 -19.5000  -8.0000 Du        
   6329 ****       -18.0000 -19.5000  -7.7500 Du        
   6330 ****       -18.0000 -19.2500 -10.2500 Du        
   6331 ****       -18.0000 -19.2500 -10.0000 Du        
   6332 ****       -18.0000 -19.2500  -9.7500 Du        
   6333 ****       -18.0000 -19.2500  -9.5000 Du        
   6334 ****       -18.0000 -19.2500  -9.2500 Du        
   6335 ****       -18.0000 -19.2500  -9.0000 Du        
   6336 ****       -18.0000 -19.2500  -8.7500 Du        
   6337 ****       -18.0000 -19.2500  -8.5000 Du        
   6338 ****       -18.0000 -19.2500  -8.2500 Du        
   6339 ****       -18.0000 -19.2500  -8.0000 Du        
   6340 ****       -18.0000 -19.2500  -7.7500 Du        
   6341 ****       -18.0000 -19.0000 -10.7500 Du        
   6342 ****       -18.0000 -19.0000 -10.5000 Du        
   6343 ****       -18.0000 -19.0000 -10.2500 Du        
   6344 ****       -18.0000 -19.0000 -10.0000 Du        
   6345 ****       -18.0000 -19.0000  -9.7500 Du        
   6346 ****       -18.0000 -19.0000  -9.5000 Du        
   6347 ****       -18.0000 -19.0000  -9.2500 Du        
   6348 ****       -18.0000 -19.0000  -9.0000 Du        
   6349 ****       -18.0000 -19.0000  -8.7500 Du        
   6350 ****       -18.0000 -19.0000  -8.5000 Du        
   6351 ****       -18.0000 -19.0000  -8.2500 Du        
   6352 ****       -18.0000 -19.0000  -8.0000 Du        
   6353 ****       -18.0000 -19.0000  -7.7500 Du        
   6354 ****       -18.0000 -19.0000  -7.5000 Du        
   6355 ****       -18.0000 -18.7500 -11.0000 Du        
   6356 ****       -18.0000 -18.7500 -10.7500 Du        
   6357 ****       -18.0000 -18.7500 -10.5000 Du        
   6358 ****       -18.0000 -18.7500 -10.2500 Du        
   6359 ****       -18.0000 -18.7500 -10.0000 Du        
   6360 ****       -18.0000 -18.7500  -9.7500 Du        
   6361 ****       -18.0000 -18.7500  -9.5000 Du        
   6362 ****       -18.0000 -18.7500  -9.2500 Du        
   6363 ****       -18.0000 -18.7500  -9.0000 Du        
   6364 ****       -18.0000 -18.7500  -8.7500 Du        
   6365 ****       -18.0000 -18.7500  -8.5000 Du        
   6366 ****       -18.0000 -18.7500  -8.2500 Du        
   6367 ****       -18.0000 -18.7500  -8.0000 Du        
   6368 ****       -18.0000 -18.7500  -7.7500 Du        
   6369 ****       -18.0000 -18.7500  -7.5000 Du        
   6370 ****       -18.0000 -18.5000 -23.0000 Du        
   6371 ****       -18.0000 -18.5000 -22.7500 Du        
   6372 ****       -18.0000 -18.5000 -11.7500 Du        
   6373 ****       -18.0000 -18.5000 -11.5000 Du        
   6374 ****       -18.0000 -18.5000 -11.2500 Du        
   6375 ****       -18.0000 -18.5000 -11.0000 Du        
   6376 ****       -18.0000 -18.5000 -10.7500 Du        
   6377 ****       -18.0000 -18.5000 -10.5000 Du        
   6378 ****       -18.0000 -18.5000 -10.2500 Du        
   6379 ****       -18.0000 -18.5000 -10.0000 Du        
   6380 ****       -18.0000 -18.5000  -9.7500 Du        
   6381 ****       -18.0000 -18.5000  -9.5000 Du        
   6382 ****       -18.0000 -18.5000  -9.2500 Du        
   6383 ****       -18.0000 -18.5000  -9.0000 Du        
   6384 ****       -18.0000 -18.5000  -8.7500 Du        
   6385 ****       -18.0000 -18.5000  -8.5000 Du        
   6386 ****       -18.0000 -18.5000  -8.2500 Du        
   6387 ****       -18.0000 -18.5000  -8.0000 Du        
   6388 ****       -18.0000 -18.5000  -7.7500 Du        
   6389 ****       -18.0000 -18.5000  -7.5000 Du        
   6390 ****       -18.0000 -18.5000  -7.2500 Du        
   6391 ****       -18.0000 -18.2500 -23.2500 Du        
   6392 ****       -18.0000 -18.2500 -23.0000 Du        
   6393 ****       -18.0000 -18.2500 -22.7500 Du        
   6394 ****       -18.0000 -18.2500 -13.5000 Du        
   6395 ****       -18.0000 -18.2500 -13.2500 Du        
   6396 ****       -18.0000 -18.2500 -13.0000 Du        
   6397 ****       -18.0000 -18.2500 -12.7500 Du        
   6398 ****       -18.0000 -18.2500 -12.5000 Du        
   6399 ****       -18.0000 -18.2500 -12.2500 Du        
   6400 ****       -18.0000 -18.2500 -12.0000 Du        
   6401 ****       -18.0000 -18.2500 -11.7500 Du        
   6402 ****       -18.0000 -18.2500 -11.5000 Du        
   6403 ****       -18.0000 -18.2500 -11.2500 Du        
   6404 ****       -18.0000 -18.2500 -11.0000 Du        
   6405 ****       -18.0000 -18.2500 -10.7500 Du        
   6406 ****       -18.0000 -18.2500 -10.5000 Du        
   6407 ****       -18.0000 -18.2500 -10.2500 Du        
   6408 ****       -18.0000 -18.2500 -10.0000 Du        
   6409 ****       -18.0000 -18.2500  -9.7500 Du        
   6410 ****       -18.0000 -18.2500  -9.5000 Du        
   6411 ****       -18.0000 -18.2500  -9.2500 Du        
   6412 ****       -18.0000 -18.2500  -9.0000 Du        
   6413 ****       -18.0000 -18.2500  -8.7500 Du        
   6414 ****       -18.0000 -18.2500  -8.5000 Du        
   6415 ****       -18.0000 -18.2500  -8.2500 Du        
   6416 ****       -18.0000 -18.2500  -8.0000 Du        
   6417 ****       -18.0000 -18.2500  -7.7500 Du        
   6418 ****       -18.0000 -18.2500  -7.5000 Du        
   6419 ****       -18.0000 -18.2500  -7.2500 Du        
   6420 ****       -18.0000 -18.2500  -7.0000 Du        
   6421 ****       -18.0000 -18.0000 -23.7500 Du        
   6422 ****       -18.0000 -18.0000 -23.5000 Du        
   6423 ****       -18.0000 -18.0000 -23.2500 Du        
   6424 ****       -18.0000 -18.0000 -23.0000 Du        
   6425 ****       -18.0000 -18.0000 -14.0000 Du        
   6426 ****       -18.0000 -18.0000 -13.7500 Du        
   6427 ****       -18.0000 -18.0000 -13.5000 Du        
   6428 ****       -18.0000 -18.0000 -13.2500 Du        
   6429 ****       -18.0000 -18.0000 -13.0000 Du        
   6430 ****       -18.0000 -18.0000 -12.7500 Du        
   6431 ****       -18.0000 -18.0000 -12.5000 Du        
   6432 ****       -18.0000 -18.0000 -12.2500 Du        
   6433 ****       -18.0000 -18.0000 -12.0000 Du        
   6434 ****       -18.0000 -18.0000 -11.7500 Du        
   6435 ****       -18.0000 -18.0000 -11.5000 Du        
   6436 ****       -18.0000 -18.0000 -11.2500 Du        
   6437 ****       -18.0000 -18.0000 -11.0000 Du        
   6438 ****       -18.0000 -18.0000 -10.7500 Du        
   6439 ****       -18.0000 -18.0000 -10.5000 Du        
   6440 ****       -18.0000 -18.0000 -10.2500 Du        
   6441 ****       -18.0000 -18.0000 -10.0000 Du        
   6442 ****       -18.0000 -18.0000  -9.7500 Du        
   6443 ****       -18.0000 -18.0000  -9.5000 Du        
   6444 ****       -18.0000 -18.0000  -9.2500 Du        
   6445 ****       -18.0000 -18.0000  -9.0000 Du        
   6446 ****       -18.0000 -18.0000  -8.7500 Du        
   6447 ****       -18.0000 -18.0000  -8.5000 Du        
   6448 ****       -18.0000 -18.0000  -8.2500 Du        
   6449 ****       -18.0000 -18.0000  -8.0000 Du        
   6450 ****       -18.0000 -18.0000  -7.7500 Du        
   6451 ****       -18.0000 -18.0000  -7.5000 Du        
   6452 ****       -18.0000 -18.0000  -7.2500 Du        
   6453 ****       -18.0000 -18.0000  -7.0000 Du        
   6454 ****       -18.0000 -18.0000  -6.7500 Du        
   6455 ****       -18.0000 -17.7500 -24.2500 Du        
   6456 ****       -18.0000 -17.7500 -24.0000 Du        
   6457 ****       -18.0000 -17.7500 -23.7500 Du        
   6458 ****       -18.0000 -17.7500 -23.5000 Du        
   6459 ****       -18.0000 -17.7500 -23.2500 Du        
   6460 ****       -18.0000 -17.7500 -23.0000 Du        
   6461 ****       -18.0000 -17.7500 -14.2500 Du        
   6462 ****       -18.0000 -17.7500 -14.0000 Du        
   6463 ****       -18.0000 -17.7500 -13.7500 Du        
   6464 ****       -18.0000 -17.7500 -13.5000 Du        
   6465 ****       -18.0000 -17.7500 -13.2500 Du        
   6466 ****       -18.0000 -17.7500 -13.0000 Du        
   6467 ****       -18.0000 -17.7500 -12.7500 Du        
   6468 ****       -18.0000 -17.7500 -12.5000 Du        
   6469 ****       -18.0000 -17.7500 -12.2500 Du        
   6470 ****       -18.0000 -17.7500 -12.0000 Du        
   6471 ****       -18.0000 -17.7500 -11.7500 Du        
   6472 ****       -18.0000 -17.7500 -11.5000 Du        
   6473 ****       -18.0000 -17.7500 -11.2500 Du        
   6474 ****       -18.0000 -17.7500 -11.0000 Du        
   6475 ****       -18.0000 -17.7500 -10.7500 Du        
   6476 ****       -18.0000 -17.7500 -10.5000 Du        
   6477 ****       -18.0000 -17.7500 -10.2500 Du        
   6478 ****       -18.0000 -17.7500 -10.0000 Du        
   6479 ****       -18.0000 -17.7500  -9.7500 Du        
   6480 ****       -18.0000 -17.7500  -9.5000 Du        
   6481 ****       -18.0000 -17.7500  -9.2500 Du        
   6482 ****       -18.0000 -17.7500  -9.0000 Du        
   6483 ****       -18.0000 -17.7500  -8.7500 Du        
   6484 ****       -18.0000 -17.7500  -8.5000 Du        
   6485 ****       -18.0000 -17.7500  -8.2500 Du        
   6486 ****       -18.0000 -17.7500  -8.0000 Du        
   6487 ****       -18.0000 -17.7500  -7.7500 Du        
   6488 ****       -18.0000 -17.7500  -7.5000 Du        
   6489 ****       -18.0000 -17.7500  -7.2500 Du        
   6490 ****       -18.0000 -17.7500  -7.0000 Du        
   6491 ****       -18.0000 -17.7500  -6.7500 Du        
   6492 ****       -18.0000 -17.5000 -25.2500 Du        
   6493 ****       -18.0000 -17.5000 -25.0000 Du        
   6494 ****       -18.0000 -17.5000 -24.7500 Du        
   6495 ****       -18.0000 -17.5000 -24.5000 Du        
   6496 ****       -18.0000 -17.5000 -24.2500 Du        
   6497 ****       -18.0000 -17.5000 -24.0000 Du        
   6498 ****       -18.0000 -17.5000 -23.7500 Du        
   6499 ****       -18.0000 -17.5000 -23.5000 Du        
   6500 ****       -18.0000 -17.5000 -23.2500 Du        
   6501 ****       -18.0000 -17.5000 -14.2500 Du        
   6502 ****       -18.0000 -17.5000 -14.0000 Du        
   6503 ****       -18.0000 -17.5000 -13.7500 Du        
   6504 ****       -18.0000 -17.5000 -13.5000 Du        
   6505 ****       -18.0000 -17.5000 -13.2500 Du        
   6506 ****       -18.0000 -17.5000 -13.0000 Du        
   6507 ****       -18.0000 -17.5000 -12.7500 Du        
   6508 ****       -18.0000 -17.5000 -12.5000 Du        
   6509 ****       -18.0000 -17.5000 -12.2500 Du        
   6510 ****       -18.0000 -17.5000 -12.0000 Du        
   6511 ****       -18.0000 -17.5000  -9.0000 Du        
   6512 ****       -18.0000 -17.5000  -8.7500 Du        
   6513 ****       -18.0000 -17.5000  -8.5000 Du        
   6514 ****       -18.0000 -17.5000  -8.2500 Du        
   6515 ****       -18.0000 -17.5000  -8.0000 Du        
   6516 ****       -18.0000 -17.5000  -7.7500 Du        
   6517 ****       -18.0000 -17.2500 -25.7500 Du        
   6518 ****       -18.0000 -17.2500 -25.5000 Du        
   6519 ****       -18.0000 -17.2500 -25.2500 Du        
   6520 ****       -18.0000 -17.2500 -25.0000 Du        
   6521 ****       -18.0000 -17.2500 -24.7500 Du        
   6522 ****       -18.0000 -17.2500 -24.5000 Du        
   6523 ****       -18.0000 -17.2500 -24.2500 Du        
   6524 ****       -18.0000 -17.2500 -24.0000 Du        
   6525 ****       -18.0000 -17.2500 -23.7500 Du        
   6526 ****       -18.0000 -17.2500 -23.5000 Du        
   6527 ****       -18.0000 -17.2500 -14.2500 Du        
   6528 ****       -18.0000 -17.2500 -14.0000 Du        
   6529 ****       -18.0000 -17.2500 -13.7500 Du        
   6530 ****       -18.0000 -17.2500 -13.5000 Du        
   6531 ****       -18.0000 -17.2500 -13.2500 Du        
   6532 ****       -18.0000 -17.2500 -13.0000 Du        
   6533 ****       -18.0000 -17.2500 -12.7500 Du        
   6534 ****       -18.0000 -17.2500  -8.7500 Du        
   6535 ****       -18.0000 -17.2500  -8.2500 Du        
   6536 ****       -18.0000 -17.2500  -8.0000 Du        
   6537 ****       -18.0000 -17.2500  -7.7500 Du        
   6538 ****       -18.0000 -17.0000 -26.0000 Du        
   6539 ****       -18.0000 -17.0000 -25.7500 Du        
   6540 ****       -18.0000 -17.0000 -25.5000 Du        
   6541 ****       -18.0000 -17.0000 -25.2500 Du        
   6542 ****       -18.0000 -17.0000 -25.0000 Du        
   6543 ****       -18.0000 -17.0000 -24.7500 Du        
   6544 ****       -18.0000 -17.0000 -24.5000 Du        
   6545 ****       -18.0000 -17.0000 -24.2500 Du        
   6546 ****       -18.0000 -17.0000 -24.0000 Du        
   6547 ****       -18.0000 -17.0000 -23.7500 Du        
   6548 ****       -18.0000 -17.0000 -23.5000 Du        
   6549 ****       -18.0000 -17.0000 -14.2500 Du        
   6550 ****       -18.0000 -17.0000 -14.0000 Du        
   6551 ****       -18.0000 -17.0000 -13.7500 Du        
   6552 ****       -18.0000 -17.0000 -13.5000 Du        
   6553 ****       -18.0000 -17.0000 -13.2500 Du        
   6554 ****       -18.0000 -17.0000 -13.0000 Du        
   6555 ****       -18.0000 -17.0000 -12.7500 Du        
   6556 ****       -18.0000 -16.7500 -26.0000 Du        
   6557 ****       -18.0000 -16.7500 -25.7500 Du        
   6558 ****       -18.0000 -16.7500 -25.5000 Du        
   6559 ****       -18.0000 -16.7500 -25.2500 Du        
   6560 ****       -18.0000 -16.7500 -25.0000 Du        
   6561 ****       -18.0000 -16.7500 -24.7500 Du        
   6562 ****       -18.0000 -16.7500 -24.5000 Du        
   6563 ****       -18.0000 -16.7500 -24.2500 Du        
   6564 ****       -18.0000 -16.7500 -24.0000 Du        
   6565 ****       -18.0000 -16.7500 -23.7500 Du        
   6566 ****       -18.0000 -16.7500 -23.5000 Du        
   6567 ****       -18.0000 -16.7500 -14.2500 Du        
   6568 ****       -18.0000 -16.7500 -14.0000 Du        
   6569 ****       -18.0000 -16.7500 -13.7500 Du        
   6570 ****       -18.0000 -16.7500 -13.5000 Du        
   6571 ****       -18.0000 -16.7500 -13.2500 Du        
   6572 ****       -18.0000 -16.7500   3.5000 Du        
   6573 ****       -18.0000 -16.5000 -26.0000 Du        
   6574 ****       -18.0000 -16.5000 -25.7500 Du        
   6575 ****       -18.0000 -16.5000 -25.5000 Du        
   6576 ****       -18.0000 -16.5000 -25.2500 Du        
   6577 ****       -18.0000 -16.5000 -25.0000 Du        
   6578 ****       -18.0000 -16.5000 -24.7500 Du        
   6579 ****       -18.0000 -16.5000 -24.5000 Du        
   6580 ****       -18.0000 -16.5000 -24.2500 Du        
   6581 ****       -18.0000 -16.5000 -24.0000 Du        
   6582 ****       -18.0000 -16.5000 -23.7500 Du        
   6583 ****       -18.0000 -16.5000 -14.2500 Du        
   6584 ****       -18.0000 -16.5000 -14.0000 Du        
   6585 ****       -18.0000 -16.5000 -13.7500 Du        
   6586 ****       -18.0000 -16.5000   2.7500 Du        
   6587 ****       -18.0000 -16.5000   3.0000 Du        
   6588 ****       -18.0000 -16.5000   3.2500 Du        
   6589 ****       -18.0000 -16.5000   3.5000 Du        
   6590 ****       -18.0000 -16.2500 -25.7500 Du        
   6591 ****       -18.0000 -16.2500 -25.5000 Du        
   6592 ****       -18.0000 -16.2500 -25.2500 Du        
   6593 ****       -18.0000 -16.2500 -25.0000 Du        
   6594 ****       -18.0000 -16.2500 -24.7500 Du        
   6595 ****       -18.0000 -16.2500 -24.5000 Du        
   6596 ****       -18.0000 -16.2500 -24.2500 Du        
   6597 ****       -18.0000 -16.2500 -24.0000 Du        
   6598 ****       -18.0000 -16.2500 -23.7500 Du        
   6599 ****       -18.0000 -16.2500 -14.2500 Du        
   6600 ****       -18.0000 -16.2500 -14.0000 Du        
   6601 ****       -18.0000 -16.2500 -13.7500 Du        
   6602 ****       -18.0000 -16.2500   2.5000 Du        
   6603 ****       -18.0000 -16.2500   2.7500 Du        
   6604 ****       -18.0000 -16.2500   3.0000 Du        
   6605 ****       -18.0000 -16.2500   3.2500 Du        
   6606 ****       -18.0000 -16.2500   3.5000 Du        
   6607 ****       -18.0000 -16.0000 -25.7500 Du        
   6608 ****       -18.0000 -16.0000 -25.5000 Du        
   6609 ****       -18.0000 -16.0000 -25.2500 Du        
   6610 ****       -18.0000 -16.0000 -25.0000 Du        
   6611 ****       -18.0000 -16.0000 -24.7500 Du        
   6612 ****       -18.0000 -16.0000 -24.5000 Du        
   6613 ****       -18.0000 -16.0000 -24.2500 Du        
   6614 ****       -18.0000 -16.0000 -24.0000 Du        
   6615 ****       -18.0000 -16.0000 -23.7500 Du        
   6616 ****       -18.0000 -16.0000 -14.2500 Du        
   6617 ****       -18.0000 -16.0000 -14.0000 Du        
   6618 ****       -18.0000 -16.0000   2.5000 Du        
   6619 ****       -18.0000 -16.0000   2.7500 Du        
   6620 ****       -18.0000 -16.0000   3.0000 Du        
   6621 ****       -18.0000 -16.0000   3.2500 Du        
   6622 ****       -18.0000 -16.0000   3.5000 Du        
   6623 ****       -18.0000 -15.7500 -25.5000 Du        
   6624 ****       -18.0000 -15.7500 -25.2500 Du        
   6625 ****       -18.0000 -15.7500 -25.0000 Du        
   6626 ****       -18.0000 -15.7500 -24.7500 Du        
   6627 ****       -18.0000 -15.7500 -24.5000 Du        
   6628 ****       -18.0000 -15.7500 -24.2500 Du        
   6629 ****       -18.0000 -15.7500 -24.0000 Du        
   6630 ****       -18.0000 -15.7500 -14.2500 Du        
   6631 ****       -18.0000 -15.7500   3.0000 Du        
   6632 ****       -18.0000 -15.7500   3.2500 Du        
   6633 ****       -18.0000 -15.7500   3.5000 Du        
   6634 ****       -18.0000 -15.5000 -25.0000 Du        
   6635 ****       -18.0000 -15.5000 -24.7500 Du        
   6636 ****       -18.0000 -15.5000 -24.5000 Du        
   6637 ****       -18.0000 -15.5000 -24.2500 Du        
   6638 ****       -18.0000 -15.5000 -24.0000 Du        
   6639 ****       -18.0000 -15.5000   3.0000 Du        
   6640 ****       -18.0000 -15.5000   3.2500 Du        
   6641 ****       -18.0000 -15.5000   3.5000 Du        
   6642 ****       -18.0000 -15.5000   3.7500 Du        
   6643 ****       -18.0000 -15.5000   4.0000 Du        
   6644 ****       -18.0000 -15.2500 -24.2500 Du        
   6645 ****       -18.0000 -15.2500 -24.0000 Du        
   6646 ****       -18.0000 -15.2500 -14.7500 Du        
   6647 ****       -18.0000 -15.0000 -15.2500 Du        
   6648 ****       -18.0000 -15.0000 -15.0000 Du        
   6649 ****       -18.0000 -15.0000 -14.7500 Du        
   6650 ****       -18.0000 -14.7500 -15.5000 Du        
   6651 ****       -18.0000 -14.7500 -15.2500 Du        
   6652 ****       -18.0000 -14.7500 -15.0000 Du        
   6653 ****       -18.0000 -14.7500 -14.7500 Du        
   6654 ****       -18.0000 -14.5000 -15.7500 Du        
   6655 ****       -18.0000 -14.5000 -15.5000 Du        
   6656 ****       -18.0000 -14.5000 -15.2500 Du        
   6657 ****       -18.0000 -14.5000 -15.0000 Du        
   6658 ****       -18.0000 -14.2500 -16.0000 Du        
   6659 ****       -18.0000 -14.2500 -15.7500 Du        
   6660 ****       -18.0000 -14.2500 -15.5000 Du        
   6661 ****       -18.0000 -14.2500 -15.2500 Du        
   6662 ****       -18.0000 -14.2500 -15.0000 Du        
   6663 ****       -18.0000 -14.0000 -16.2500 Du        
   6664 ****       -18.0000 -14.0000 -16.0000 Du        
   6665 ****       -18.0000 -14.0000 -15.7500 Du        
   6666 ****       -18.0000 -14.0000 -15.5000 Du        
   6667 ****       -18.0000 -14.0000 -15.2500 Du        
   6668 ****       -18.0000 -14.0000 -15.0000 Du        
   6669 ****       -18.0000 -13.7500 -16.5000 Du        
   6670 ****       -18.0000 -13.7500 -16.2500 Du        
   6671 ****       -18.0000 -13.7500 -16.0000 Du        
   6672 ****       -18.0000 -13.7500 -15.7500 Du        
   6673 ****       -18.0000 -13.7500 -15.5000 Du        
   6674 ****       -18.0000 -13.5000 -16.7500 Du        
   6675 ****       -18.0000 -13.5000 -16.5000 Du        
   6676 ****       -18.0000 -13.5000 -16.2500 Du        
   6677 ****       -18.0000 -13.5000 -16.0000 Du        
   6678 ****       -18.0000 -13.5000 -15.7500 Du        
   6679 ****       -18.0000 -13.2500 -17.0000 Du        
   6680 ****       -18.0000 -13.2500 -16.7500 Du        
   6681 ****       -18.0000 -13.2500 -16.5000 Du        
   6682 ****       -18.0000 -13.2500 -16.2500 Du        
   6683 ****       -18.0000 -13.2500 -16.0000 Du        
   6684 ****       -18.0000 -13.2500 -15.7500 Du        
   6685 ****       -18.0000 -13.0000 -17.0000 Du        
   6686 ****       -18.0000 -13.0000 -16.7500 Du        
   6687 ****       -18.0000 -13.0000 -16.5000 Du        
   6688 ****       -18.0000 -13.0000 -16.2500 Du        
   6689 ****       -18.0000 -13.0000 -16.0000 Du        
   6690 ****       -18.0000 -12.7500 -16.7500 Du        
   6691 ****       -18.0000 -12.7500 -16.5000 Du        
   6692 ****       -18.0000 -12.7500 -16.2500 Du        
   6693 ****       -18.0000 -12.7500 -16.0000 Du        
   6694 ****       -18.0000 -12.5000 -17.2500 Du        
   6695 ****       -18.0000 -12.5000 -17.0000 Du        
   6696 ****       -18.0000 -12.5000 -16.7500 Du        
   6697 ****       -18.0000 -12.2500 -17.5000 Du        
   6698 ****       -18.0000 -12.2500 -17.2500 Du        
   6699 ****       -18.0000 -12.2500 -17.0000 Du        
   6700 ****       -18.0000 -12.2500 -16.7500 Du        
   6701 ****       -18.0000 -12.0000 -17.7500 Du        
   6702 ****       -18.0000 -12.0000 -17.5000 Du        
   6703 ****       -18.0000 -12.0000 -17.2500 Du        
   6704 ****       -18.0000 -12.0000 -17.0000 Du        
   6705 ****       -18.0000 -12.0000 -16.7500 Du        
   6706 ****       -18.0000 -11.7500 -17.7500 Du        
   6707 ****       -18.0000 -11.7500 -17.5000 Du        
   6708 ****       -18.0000 -11.7500 -17.2500 Du        
   6709 ****       -18.0000 -11.7500 -17.0000 Du        
   6710 ****       -18.0000 -11.7500 -11.2500 Du        
   6711 ****       -18.0000 -11.7500 -11.0000 Du        
   6712 ****       -18.0000 -11.7500 -10.7500 Du        
   6713 ****       -18.0000 -11.5000 -11.5000 Du        
   6714 ****       -18.0000 -11.5000 -11.2500 Du        
   6715 ****       -18.0000 -11.5000 -11.0000 Du        
   6716 ****       -18.0000 -11.5000 -10.7500 Du        
   6717 ****       -18.0000 -11.5000 -10.5000 Du        
   6718 ****       -18.0000 -11.2500 -12.0000 Du        
   6719 ****       -18.0000 -11.2500 -11.7500 Du        
   6720 ****       -18.0000 -11.2500 -11.5000 Du        
   6721 ****       -18.0000 -11.2500 -11.2500 Du        
   6722 ****       -18.0000 -11.2500 -11.0000 Du        
   6723 ****       -18.0000 -11.2500 -10.7500 Du        
   6724 ****       -18.0000 -11.2500 -10.5000 Du        
   6725 ****       -18.0000 -11.0000 -12.0000 Du        
   6726 ****       -18.0000 -11.0000 -11.7500 Du        
   6727 ****       -18.0000 -11.0000 -11.5000 Du        
   6728 ****       -18.0000 -11.0000 -11.2500 Du        
   6729 ****       -18.0000 -11.0000 -11.0000 Du        
   6730 ****       -18.0000 -11.0000 -10.7500 Du        
   6731 ****       -18.0000 -11.0000 -10.5000 Du        
   6732 ****       -18.0000 -11.0000 -10.2500 Du        
   6733 ****       -18.0000 -10.7500 -11.7500 Du        
   6734 ****       -18.0000 -10.7500 -11.5000 Du        
   6735 ****       -18.0000 -10.7500 -11.2500 Du        
   6736 ****       -18.0000 -10.7500 -11.0000 Du        
   6737 ****       -18.0000 -10.7500 -10.7500 Du        
   6738 ****       -18.0000 -10.7500 -10.5000 Du        
   6739 ****       -18.0000 -10.7500 -10.2500 Du        
   6740 ****       -18.0000 -10.5000 -11.5000 Du        
   6741 ****       -18.0000 -10.5000 -11.2500 Du        
   6742 ****       -18.0000 -10.5000 -11.0000 Du        
   6743 ****       -18.0000 -10.5000 -10.7500 Du        
   6744 ****       -18.0000 -10.5000 -10.5000 Du        
   6745 ****       -18.0000 -10.5000 -10.2500 Du        
   6746 ****       -18.0000 -10.2500 -11.2500 Du        
   6747 ****       -18.0000 -10.2500 -11.0000 Du        
   6748 ****       -18.0000 -10.2500 -10.7500 Du        
   6749 ****       -18.0000 -10.2500 -10.5000 Du        
   6750 ****       -18.0000 -10.2500 -10.2500 Du        
   6751 ****       -18.0000 -10.2500 -10.0000 Du        
   6752 ****       -18.0000 -10.0000 -11.0000 Du        
   6753 ****       -18.0000 -10.0000 -10.7500 Du        
   6754 ****       -18.0000 -10.0000 -10.5000 Du        
   6755 ****       -18.0000 -10.0000 -10.2500 Du        
   6756 ****       -18.0000 -10.0000 -10.0000 Du        
   6757 ****       -18.0000  -9.7500 -10.7500 Du        
   6758 ****       -18.0000  -9.7500 -10.5000 Du        
   6759 ****       -18.0000  -9.7500 -10.2500 Du        
   6760 ****       -18.0000  -9.7500 -10.0000 Du        
   6761 ****       -18.0000  -9.7500  -9.7500 Du        
   6762 ****       -18.0000  -9.5000 -10.2500 Du        
   6763 ****       -18.0000  -9.5000 -10.0000 Du        
   6764 ****       -18.0000  -9.5000  -9.7500 Du        
   6765 ****       -18.0000  -9.5000  -9.5000 Du        
   6766 ****       -18.0000  -9.2500 -10.0000 Du        
   6767 ****       -18.0000  -9.2500  -9.7500 Du        
   6768 ****       -18.0000  -9.2500  -9.5000 Du        
   6769 ****       -18.0000  -9.2500  -9.2500 Du        
   6770 ****       -18.0000  -9.2500  -9.0000 Du        
   6771 ****       -18.0000  -9.0000  -9.7500 Du        
   6772 ****       -18.0000  -9.0000  -9.5000 Du        
   6773 ****       -18.0000  -9.0000  -9.2500 Du        
   6774 ****       -18.0000  -9.0000  -9.0000 Du        
   6775 ****       -18.0000  -9.0000  -8.7500 Du        
   6776 ****       -18.0000  -8.7500  -9.5000 Du        
   6777 ****       -18.0000  -8.7500  -9.2500 Du        
   6778 ****       -18.0000  -8.7500  -9.0000 Du        
   6779 ****       -18.0000  -8.7500  -8.7500 Du        
   6780 ****       -18.0000  -8.7500  -8.5000 Du        
   6781 ****       -18.0000  -8.7500  -8.2500 Du        
   6782 ****       -18.0000  -8.5000  -9.2500 Du        
   6783 ****       -18.0000  -8.5000  -9.0000 Du        
   6784 ****       -18.0000  -8.5000  -8.7500 Du        
   6785 ****       -18.0000  -8.5000  -8.5000 Du        
   6786 ****       -18.0000  -8.5000  -8.2500 Du        
   6787 ****       -18.0000  -8.5000  -8.0000 Du        
   6788 ****       -18.0000  -8.2500  -9.0000 Du        
   6789 ****       -18.0000  -8.2500  -8.7500 Du        
   6790 ****       -18.0000  -8.2500  -8.5000 Du        
   6791 ****       -18.0000  -8.2500  -8.2500 Du        
   6792 ****       -18.0000  -8.2500  -8.0000 Du        
   6793 ****       -18.0000  -8.0000  -8.7500 Du        
   6794 ****       -18.0000  -8.0000  -8.5000 Du        
   6795 ****       -18.0000  -8.0000  -8.2500 Du        
   6796 ****       -18.0000  -8.0000  -8.0000 Du        
   6797 ****       -18.0000  -8.0000  -7.7500 Du        
   6798 ****       -18.0000  -7.7500  -8.7500 Du        
   6799 ****       -18.0000  -7.7500  -8.5000 Du        
   6800 ****       -18.0000  -7.7500  -8.2500 Du        
   6801 ****       -18.0000  -7.7500  -8.0000 Du        
   6802 ****       -18.0000  -7.7500  -7.7500 Du        
   6803 ****       -18.0000  -7.7500  -7.5000 Du        
   6804 ****       -18.0000  -7.5000  -8.5000 Du        
   6805 ****       -18.0000  -7.5000  -8.2500 Du        
   6806 ****       -18.0000  -7.5000  -8.0000 Du        
   6807 ****       -18.0000  -7.5000  -7.7500 Du        
   6808 ****       -18.0000  -7.5000  -7.5000 Du        
   6809 ****       -18.0000  -7.5000  -7.2500 Du        
   6810 ****       -18.0000  -7.2500  -8.2500 Du        
   6811 ****       -18.0000  -7.2500  -8.0000 Du        
   6812 ****       -18.0000  -7.2500  -7.7500 Du        
   6813 ****       -18.0000  -7.2500  -7.5000 Du        
   6814 ****       -18.0000  -7.2500  -7.2500 Du        
   6815 ****       -18.0000  -7.2500  -7.0000 Du        
   6816 ****       -18.0000  -7.0000  -8.2500 Du        
   6817 ****       -18.0000  -7.0000  -8.0000 Du        
   6818 ****       -18.0000  -7.0000  -7.7500 Du        
   6819 ****       -18.0000  -7.0000  -7.5000 Du        
   6820 ****       -18.0000  -7.0000  -7.2500 Du        
   6821 ****       -18.0000  -7.0000  -7.0000 Du        
   6822 ****       -18.0000  -7.0000  -6.7500 Du        
   6823 ****       -18.0000  -6.7500  -8.2500 Du        
   6824 ****       -18.0000  -6.7500  -8.0000 Du        
   6825 ****       -18.0000  -6.7500  -7.7500 Du        
   6826 ****       -18.0000  -6.7500  -7.5000 Du        
   6827 ****       -18.0000  -6.7500  -7.2500 Du        
   6828 ****       -18.0000  -6.7500  -7.0000 Du        
   6829 ****       -18.0000  -6.7500  -6.7500 Du        
   6830 ****       -18.0000  -6.7500  -6.5000 Du        
   6831 ****       -18.0000  -6.5000  -8.2500 Du        
   6832 ****       -18.0000  -6.5000  -8.0000 Du        
   6833 ****       -18.0000  -6.5000  -7.7500 Du        
   6834 ****       -18.0000  -6.5000  -7.5000 Du        
   6835 ****       -18.0000  -6.5000  -7.2500 Du        
   6836 ****       -18.0000  -6.5000  -7.0000 Du        
   6837 ****       -18.0000  -6.5000  -6.7500 Du        
   6838 ****       -18.0000  -6.5000  -6.5000 Du        
   6839 ****       -18.0000  -6.5000  -6.2500 Du        
   6840 ****       -18.0000  -6.5000  -6.0000 Du        
   6841 ****       -18.0000  -6.2500  -8.2500 Du        
   6842 ****       -18.0000  -6.2500  -8.0000 Du        
   6843 ****       -18.0000  -6.2500  -7.7500 Du        
   6844 ****       -18.0000  -6.2500  -7.5000 Du        
   6845 ****       -18.0000  -6.2500  -7.2500 Du        
   6846 ****       -18.0000  -6.2500  -7.0000 Du        
   6847 ****       -18.0000  -6.2500  -6.7500 Du        
   6848 ****       -18.0000  -6.2500  -6.5000 Du        
   6849 ****       -18.0000  -6.2500  -6.2500 Du        
   6850 ****       -18.0000  -6.2500  -6.0000 Du        
   6851 ****       -18.0000  -6.2500  -5.7500 Du        
   6852 ****       -18.0000  -6.0000  -8.2500 Du        
   6853 ****       -18.0000  -6.0000  -8.0000 Du        
   6854 ****       -18.0000  -6.0000  -7.7500 Du        
   6855 ****       -18.0000  -6.0000  -7.5000 Du        
   6856 ****       -18.0000  -6.0000  -7.2500 Du        
   6857 ****       -18.0000  -6.0000  -7.0000 Du        
   6858 ****       -18.0000  -6.0000  -6.7500 Du        
   6859 ****       -18.0000  -6.0000  -6.5000 Du        
   6860 ****       -18.0000  -6.0000  -6.2500 Du        
   6861 ****       -18.0000  -6.0000  -6.0000 Du        
   6862 ****       -18.0000  -6.0000  -5.7500 Du        
   6863 ****       -18.0000  -6.0000  -5.5000 Du        
   6864 ****       -18.0000  -6.0000  -5.2500 Du        
   6865 ****       -18.0000  -6.0000  -5.0000 Du        
   6866 ****       -18.0000  -5.7500  -8.2500 Du        
   6867 ****       -18.0000  -5.7500  -8.0000 Du        
   6868 ****       -18.0000  -5.7500  -7.7500 Du        
   6869 ****       -18.0000  -5.7500  -7.5000 Du        
   6870 ****       -18.0000  -5.7500  -7.2500 Du        
   6871 ****       -18.0000  -5.7500  -7.0000 Du        
   6872 ****       -18.0000  -5.7500  -6.7500 Du        
   6873 ****       -18.0000  -5.7500  -6.5000 Du        
   6874 ****       -18.0000  -5.7500  -6.2500 Du        
   6875 ****       -18.0000  -5.7500  -6.0000 Du        
   6876 ****       -18.0000  -5.7500  -5.7500 Du        
   6877 ****       -18.0000  -5.7500  -5.5000 Du        
   6878 ****       -18.0000  -5.7500  -5.2500 Du        
   6879 ****       -18.0000  -5.7500  -5.0000 Du        
   6880 ****       -18.0000  -5.7500  -4.7500 Du        
   6881 ****       -18.0000  -5.7500  -4.5000 Du        
   6882 ****       -18.0000  -5.7500  -4.2500 Du        
   6883 ****       -18.0000  -5.7500  -4.0000 Du        
   6884 ****       -18.0000  -5.5000  -8.2500 Du        
   6885 ****       -18.0000  -5.5000  -8.0000 Du        
   6886 ****       -18.0000  -5.5000  -7.7500 Du        
   6887 ****       -18.0000  -5.5000  -7.5000 Du        
   6888 ****       -18.0000  -5.5000  -7.2500 Du        
   6889 ****       -18.0000  -5.5000  -7.0000 Du        
   6890 ****       -18.0000  -5.5000  -6.7500 Du        
   6891 ****       -18.0000  -5.5000  -6.5000 Du        
   6892 ****       -18.0000  -5.5000  -6.2500 Du        
   6893 ****       -18.0000  -5.5000  -6.0000 Du        
   6894 ****       -18.0000  -5.5000  -5.7500 Du        
   6895 ****       -18.0000  -5.5000  -5.5000 Du        
   6896 ****       -18.0000  -5.5000  -5.2500 Du        
   6897 ****       -18.0000  -5.5000  -5.0000 Du        
   6898 ****       -18.0000  -5.5000  -4.7500 Du        
   6899 ****       -18.0000  -5.5000  -4.5000 Du        
   6900 ****       -18.0000  -5.5000  -4.2500 Du        
   6901 ****       -18.0000  -5.5000  -4.0000 Du        
   6902 ****       -18.0000  -5.5000  -3.7500 Du        
   6903 ****       -18.0000  -5.2500  -8.2500 Du        
   6904 ****       -18.0000  -5.2500  -8.0000 Du        
   6905 ****       -18.0000  -5.2500  -7.7500 Du        
   6906 ****       -18.0000  -5.2500  -7.5000 Du        
   6907 ****       -18.0000  -5.2500  -7.2500 Du        
   6908 ****       -18.0000  -5.2500  -7.0000 Du        
   6909 ****       -18.0000  -5.2500  -6.7500 Du        
   6910 ****       -18.0000  -5.2500  -6.5000 Du        
   6911 ****       -18.0000  -5.2500  -6.2500 Du        
   6912 ****       -18.0000  -5.2500  -6.0000 Du        
   6913 ****       -18.0000  -5.2500  -5.7500 Du        
   6914 ****       -18.0000  -5.2500  -5.5000 Du        
   6915 ****       -18.0000  -5.2500  -5.2500 Du        
   6916 ****       -18.0000  -5.2500  -5.0000 Du        
   6917 ****       -18.0000  -5.2500  -4.7500 Du        
   6918 ****       -18.0000  -5.2500  -4.5000 Du        
   6919 ****       -18.0000  -5.2500  -4.2500 Du        
   6920 ****       -18.0000  -5.2500  -4.0000 Du        
   6921 ****       -18.0000  -5.2500  -3.7500 Du        
   6922 ****       -18.0000  -5.2500  -3.5000 Du        
   6923 ****       -18.0000  -5.0000  -8.2500 Du        
   6924 ****       -18.0000  -5.0000  -8.0000 Du        
   6925 ****       -18.0000  -5.0000  -7.7500 Du        
   6926 ****       -18.0000  -5.0000  -7.5000 Du        
   6927 ****       -18.0000  -5.0000  -7.2500 Du        
   6928 ****       -18.0000  -5.0000  -7.0000 Du        
   6929 ****       -18.0000  -5.0000  -6.7500 Du        
   6930 ****       -18.0000  -5.0000  -6.5000 Du        
   6931 ****       -18.0000  -5.0000  -6.2500 Du        
   6932 ****       -18.0000  -5.0000  -6.0000 Du        
   6933 ****       -18.0000  -5.0000  -5.7500 Du        
   6934 ****       -18.0000  -5.0000  -5.5000 Du        
   6935 ****       -18.0000  -5.0000  -5.2500 Du        
   6936 ****       -18.0000  -5.0000  -5.0000 Du        
   6937 ****       -18.0000  -5.0000  -4.7500 Du        
   6938 ****       -18.0000  -5.0000  -4.5000 Du        
   6939 ****       -18.0000  -5.0000  -4.2500 Du        
   6940 ****       -18.0000  -5.0000  -4.0000 Du        
   6941 ****       -18.0000  -5.0000  -3.7500 Du        
   6942 ****       -18.0000  -4.7500  -8.2500 Du        
   6943 ****       -18.0000  -4.7500  -8.0000 Du        
   6944 ****       -18.0000  -4.7500  -7.7500 Du        
   6945 ****       -18.0000  -4.7500  -7.5000 Du        
   6946 ****       -18.0000  -4.7500  -7.2500 Du        
   6947 ****       -18.0000  -4.7500  -7.0000 Du        
   6948 ****       -18.0000  -4.7500  -6.7500 Du        
   6949 ****       -18.0000  -4.7500  -6.5000 Du        
   6950 ****       -18.0000  -4.7500  -6.2500 Du        
   6951 ****       -18.0000  -4.7500  -6.0000 Du        
   6952 ****       -18.0000  -4.7500  -5.7500 Du        
   6953 ****       -18.0000  -4.7500  -5.5000 Du        
   6954 ****       -18.0000  -4.7500  -5.2500 Du        
   6955 ****       -18.0000  -4.7500  -5.0000 Du        
   6956 ****       -18.0000  -4.7500  -4.7500 Du        
   6957 ****       -18.0000  -4.7500  -4.5000 Du        
   6958 ****       -18.0000  -4.7500  -4.2500 Du        
   6959 ****       -18.0000  -4.7500  -4.0000 Du        
   6960 ****       -18.0000  -4.7500  -3.7500 Du        
   6961 ****       -18.0000  -4.5000  -8.2500 Du        
   6962 ****       -18.0000  -4.5000  -8.0000 Du        
   6963 ****       -18.0000  -4.5000  -7.7500 Du        
   6964 ****       -18.0000  -4.5000  -7.5000 Du        
   6965 ****       -18.0000  -4.5000  -7.2500 Du        
   6966 ****       -18.0000  -4.5000  -7.0000 Du        
   6967 ****       -18.0000  -4.5000  -6.7500 Du        
   6968 ****       -18.0000  -4.5000  -6.5000 Du        
   6969 ****       -18.0000  -4.5000  -6.2500 Du        
   6970 ****       -18.0000  -4.5000  -6.0000 Du        
   6971 ****       -18.0000  -4.5000  -5.7500 Du        
   6972 ****       -18.0000  -4.5000  -5.5000 Du        
   6973 ****       -18.0000  -4.5000  -5.2500 Du        
   6974 ****       -18.0000  -4.5000  -5.0000 Du        
   6975 ****       -18.0000  -4.5000  -4.7500 Du        
   6976 ****       -18.0000  -4.5000  -4.5000 Du        
   6977 ****       -18.0000  -4.5000  -4.2500 Du        
   6978 ****       -18.0000  -4.5000  -4.0000 Du        
   6979 ****       -18.0000  -4.2500  -8.2500 Du        
   6980 ****       -18.0000  -4.2500  -8.0000 Du        
   6981 ****       -18.0000  -4.2500  -7.7500 Du        
   6982 ****       -18.0000  -4.2500  -7.2500 Du        
   6983 ****       -18.0000  -4.2500  -7.0000 Du        
   6984 ****       -18.0000  -4.2500  -6.7500 Du        
   6985 ****       -18.0000  -4.2500  -6.5000 Du        
   6986 ****       -18.0000  -4.2500  -6.2500 Du        
   6987 ****       -18.0000  -4.2500  -6.0000 Du        
   6988 ****       -18.0000  -4.2500  -5.7500 Du        
   6989 ****       -18.0000  -4.2500  -5.5000 Du        
   6990 ****       -18.0000  -4.2500  -5.2500 Du        
   6991 ****       -18.0000  -4.2500  -5.0000 Du        
   6992 ****       -18.0000  -4.2500  -4.7500 Du        
   6993 ****       -18.0000  -4.2500  -4.5000 Du        
   6994 ****       -18.0000  -4.2500  -4.2500 Du        
   6995 ****       -18.0000  -4.0000  -8.2500 Du        
   6996 ****       -18.0000  -4.0000  -8.0000 Du        
   6997 ****       -18.0000  -4.0000  -7.7500 Du        
   6998 ****       -18.0000  -4.0000  -7.2500 Du        
   6999 ****       -18.0000  -4.0000  -7.0000 Du        
   7000 ****       -18.0000  -4.0000  -6.7500 Du        
   7001 ****       -18.0000  -4.0000  -6.5000 Du        
   7002 ****       -18.0000  -4.0000  -6.2500 Du        
   7003 ****       -18.0000  -4.0000  -6.0000 Du        
   7004 ****       -18.0000  -4.0000  -5.7500 Du        
   7005 ****       -18.0000  -4.0000  -5.5000 Du        
   7006 ****       -18.0000  -4.0000  -5.2500 Du        
   7007 ****       -18.0000  -4.0000  -5.0000 Du        
   7008 ****       -18.0000  -4.0000  -4.7500 Du        
   7009 ****       -18.0000  -4.0000  -4.5000 Du        
   7010 ****       -18.0000  -4.0000  -4.2500 Du        
   7011 ****       -18.0000  -3.7500  -8.2500 Du        
   7012 ****       -18.0000  -3.7500  -8.0000 Du        
   7013 ****       -18.0000  -3.7500  -7.7500 Du        
   7014 ****       -18.0000  -3.7500  -6.7500 Du        
   7015 ****       -18.0000  -3.7500  -6.5000 Du        
   7016 ****       -18.0000  -3.7500  -6.2500 Du        
   7017 ****       -18.0000  -3.7500  -6.0000 Du        
   7018 ****       -18.0000  -3.7500  -5.7500 Du        
   7019 ****       -18.0000  -3.7500  -5.5000 Du        
   7020 ****       -18.0000  -3.7500  -5.2500 Du        
   7021 ****       -18.0000  -3.7500  -5.0000 Du        
   7022 ****       -18.0000  -3.7500  -4.7500 Du        
   7023 ****       -18.0000  -3.7500  -4.5000 Du        
   7024 ****       -18.0000  -3.5000  -8.0000 Du        
   7025 ****       -18.0000  -3.5000  -7.7500 Du        
   7026 ****       -18.0000  -3.5000  -7.5000 Du        
   7027 ****       -18.0000  -3.5000  -7.0000 Du        
   7028 ****       -18.0000  -3.5000  -6.7500 Du        
   7029 ****       -18.0000  -3.5000  -6.0000 Du        
   7030 ****       -18.0000  -3.5000  -5.7500 Du        
   7031 ****       -18.0000  -3.5000  -5.5000 Du        
   7032 ****       -18.0000  -3.5000  -5.2500 Du        
   7033 ****       -18.0000  -3.5000  -5.0000 Du        
   7034 ****       -18.0000  -3.5000  -4.7500 Du        
   7035 ****       -18.0000  -3.2500  -8.0000 Du        
   7036 ****       -18.0000  -3.2500  -7.7500 Du        
   7037 ****       -18.0000  -3.2500  -7.5000 Du        
   7038 ****       -18.0000  -3.2500  -7.2500 Du        
   7039 ****       -18.0000  -3.2500  -7.0000 Du        
   7040 ****       -18.0000  -3.2500  -6.7500 Du        
   7041 ****       -18.0000  -3.2500  -6.2500 Du        
   7042 ****       -18.0000  -3.2500  -6.0000 Du        
   7043 ****       -18.0000  -3.2500  -5.7500 Du        
   7044 ****       -18.0000  -3.2500  -5.5000 Du        
   7045 ****       -18.0000  -3.2500  -5.2500 Du        
   7046 ****       -18.0000  -3.2500  -5.0000 Du        
   7047 ****       -18.0000  -3.2500  -4.7500 Du        
   7048 ****       -18.0000  -3.0000  -8.0000 Du        
   7049 ****       -18.0000  -3.0000  -7.7500 Du        
   7050 ****       -18.0000  -3.0000  -7.5000 Du        
   7051 ****       -18.0000  -3.0000  -7.2500 Du        
   7052 ****       -18.0000  -3.0000  -7.0000 Du        
   7053 ****       -18.0000  -3.0000  -6.7500 Du        
   7054 ****       -18.0000  -3.0000  -6.2500 Du        
   7055 ****       -18.0000  -3.0000  -6.0000 Du        
   7056 ****       -18.0000  -3.0000  -5.7500 Du        
   7057 ****       -18.0000  -3.0000  -5.5000 Du        
   7058 ****       -18.0000  -3.0000  -5.2500 Du        
   7059 ****       -18.0000  -3.0000  -5.0000 Du        
   7060 ****       -18.0000  -3.0000  -4.7500 Du        
   7061 ****       -18.0000  -2.7500  -8.0000 Du        
   7062 ****       -18.0000  -2.7500  -7.7500 Du        
   7063 ****       -18.0000  -2.7500  -7.5000 Du        
   7064 ****       -18.0000  -2.7500  -7.2500 Du        
   7065 ****       -18.0000  -2.7500  -7.0000 Du        
   7066 ****       -18.0000  -2.7500  -6.7500 Du        
   7067 ****       -18.0000  -2.7500  -6.2500 Du        
   7068 ****       -18.0000  -2.7500  -6.0000 Du        
   7069 ****       -18.0000  -2.7500  -5.7500 Du        
   7070 ****       -18.0000  -2.7500  -5.5000 Du        
   7071 ****       -18.0000  -2.7500  -5.2500 Du        
   7072 ****       -18.0000  -2.7500  -5.0000 Du        
   7073 ****       -18.0000  -2.5000  -7.7500 Du        
   7074 ****       -18.0000  -2.5000  -7.5000 Du        
   7075 ****       -18.0000  -2.5000  -7.2500 Du        
   7076 ****       -18.0000  -2.5000  -7.0000 Du        
   7077 ****       -18.0000  -2.5000  -6.7500 Du        
   7078 ****       -18.0000  -2.5000  -6.5000 Du        
   7079 ****       -18.0000  -2.5000  -6.2500 Du        
   7080 ****       -18.0000  -2.5000  -6.0000 Du        
   7081 ****       -18.0000  -2.5000  -5.7500 Du        
   7082 ****       -18.0000  -2.5000  -5.5000 Du        
   7083 ****       -18.0000  -2.5000  -5.2500 Du        
   7084 ****       -18.0000  -2.5000  -5.0000 Du        
   7085 ****       -18.0000  -2.2500  -7.5000 Du        
   7086 ****       -18.0000  -2.2500  -7.2500 Du        
   7087 ****       -18.0000  -2.2500  -7.0000 Du        
   7088 ****       -18.0000  -2.2500  -6.7500 Du        
   7089 ****       -18.0000  -2.2500  -6.5000 Du        
   7090 ****       -18.0000  -2.2500  -6.2500 Du        
   7091 ****       -18.0000  -2.2500  -6.0000 Du        
   7092 ****       -18.0000  -2.2500  -5.7500 Du        
   7093 ****       -18.0000  -2.2500  -5.5000 Du        
   7094 ****       -18.0000  -2.2500  -5.2500 Du        
   7095 ****       -18.0000  -2.2500  -5.0000 Du        
   7096 ****       -18.0000  -2.0000  -7.5000 Du        
   7097 ****       -18.0000  -2.0000  -7.2500 Du        
   7098 ****       -18.0000  -2.0000  -7.0000 Du        
   7099 ****       -18.0000  -2.0000  -6.7500 Du        
   7100 ****       -18.0000  -2.0000  -6.5000 Du        
   7101 ****       -18.0000  -2.0000  -6.2500 Du        
   7102 ****       -18.0000  -2.0000  -6.0000 Du        
   7103 ****       -18.0000  -2.0000  -5.7500 Du        
   7104 ****       -18.0000  -2.0000  -5.5000 Du        
   7105 ****       -18.0000  -2.0000  -5.2500 Du        
   7106 ****       -18.0000  -1.7500  -7.5000 Du        
   7107 ****       -18.0000  -1.7500  -7.2500 Du        
   7108 ****       -18.0000  -1.7500  -7.0000 Du        
   7109 ****       -18.0000  -1.7500  -6.7500 Du        
   7110 ****       -18.0000  -1.7500  -6.5000 Du        
   7111 ****       -18.0000  -1.7500  -6.2500 Du        
   7112 ****       -18.0000  -1.7500  -6.0000 Du        
   7113 ****       -18.0000  -1.7500  -5.7500 Du        
   7114 ****       -18.0000  -1.7500  -5.5000 Du        
   7115 ****       -18.0000  -1.7500  -5.2500 Du        
   7116 ****       -18.0000  -1.5000  -7.0000 Du        
   7117 ****       -18.0000  -1.5000  -6.7500 Du        
   7118 ****       -18.0000  -1.5000  -6.5000 Du        
   7119 ****       -18.0000  -1.5000  -6.2500 Du        
   7120 ****       -18.0000  -1.5000  -6.0000 Du        
   7121 ****       -18.0000  -1.5000  -5.7500 Du        
   7122 ****       -18.0000  -1.2500  -7.0000 Du        
   7123 ****       -18.0000  -1.2500  -6.7500 Du        
   7124 ****       -18.0000  -1.2500  -6.5000 Du        
   7125 ****       -18.0000  -1.2500  -6.2500 Du        
   7126 ****       -18.0000  -1.2500  -6.0000 Du        
   7127 ****       -18.0000  -1.2500  -5.7500 Du        
   7128 ****       -18.0000  -1.0000  -7.0000 Du        
   7129 ****       -18.0000  -1.0000  -6.7500 Du        
   7130 ****       -18.0000  -1.0000  -6.5000 Du        
   7131 ****       -18.0000  -1.0000  -6.2500 Du        
   7132 ****       -18.0000  -1.0000  -6.0000 Du        
   7133 ****       -18.0000  -0.7500  -7.0000 Du        
   7134 ****       -18.0000  -0.7500  -6.7500 Du        
   7135 ****       -18.0000   4.5000  -9.7500 Du        
   7136 ****       -18.0000   4.7500 -10.0000 Du        
   7137 ****       -18.0000   4.7500  -9.7500 Du        
   7138 ****       -18.0000   5.0000 -10.2500 Du        
   7139 ****       -18.0000   5.0000 -10.0000 Du        
   7140 ****       -18.0000   5.0000  -9.7500 Du        
   7141 ****       -18.0000   5.2500 -10.5000 Du        
   7142 ****       -18.0000   5.2500 -10.2500 Du        
   7143 ****       -18.0000   5.2500 -10.0000 Du        
   7144 ****       -18.0000   5.2500  -9.7500 Du        
   7145 ****       -18.0000   5.5000 -10.7500 Du        
   7146 ****       -18.0000   5.5000 -10.2500 Du        
   7147 ****       -18.0000   5.7500 -17.5000 Du        
   7148 ****       -18.0000   5.7500 -17.2500 Du        
   7149 ****       -18.0000   5.7500 -11.2500 Du        
   7150 ****       -18.0000   5.7500 -11.0000 Du        
   7151 ****       -18.0000   5.7500 -10.7500 Du        
   7152 ****       -18.0000   6.0000 -17.7500 Du        
   7153 ****       -18.0000   6.0000 -17.5000 Du        
   7154 ****       -18.0000   6.0000 -17.2500 Du        
   7155 ****       -18.0000   6.0000 -17.0000 Du        
   7156 ****       -18.0000   6.0000 -16.7500 Du        
   7157 ****       -18.0000   6.0000 -11.2500 Du        
   7158 ****       -18.0000   6.0000 -11.0000 Du        
   7159 ****       -18.0000   6.0000 -10.7500 Du        
   7160 ****       -18.0000   6.2500 -17.5000 Du        
   7161 ****       -18.0000   6.2500 -17.2500 Du        
   7162 ****       -18.0000   6.2500 -17.0000 Du        
   7163 ****       -18.0000   6.2500 -16.7500 Du        
   7164 ****       -18.0000   6.2500 -16.5000 Du        
   7165 ****       -18.0000   6.2500 -11.2500 Du        
   7166 ****       -18.0000   6.2500 -11.0000 Du        
   7167 ****       -18.0000   6.5000 -17.2500 Du        
   7168 ****       -18.0000   6.5000 -17.0000 Du        
   7169 ****       -18.0000   6.5000 -16.7500 Du        
   7170 ****       -18.0000   6.5000 -16.5000 Du        
   7171 ****       -17.7500 -25.5000  -9.2500 Du        
   7172 ****       -17.7500 -25.2500  -9.5000 Du        
   7173 ****       -17.7500 -25.2500  -9.2500 Du        
   7174 ****       -17.7500 -25.2500  -9.0000 Du        
   7175 ****       -17.7500 -25.0000  -9.2500 Du        
   7176 ****       -17.7500 -25.0000  -9.0000 Du        
   7177 ****       -17.7500 -24.7500  -9.2500 Du        
   7178 ****       -17.7500 -24.7500  -9.0000 Du        
   7179 ****       -17.7500 -20.5000  -8.5000 Du        
   7180 ****       -17.7500 -20.5000  -8.2500 Du        
   7181 ****       -17.7500 -20.2500  -8.7500 Du        
   7182 ****       -17.7500 -20.2500  -8.5000 Du        
   7183 ****       -17.7500 -20.2500  -8.2500 Du        
   7184 ****       -17.7500 -20.2500  -8.0000 Du        
   7185 ****       -17.7500 -20.2500  -7.7500 Du        
   7186 ****       -17.7500 -20.0000  -9.0000 Du        
   7187 ****       -17.7500 -20.0000  -8.7500 Du        
   7188 ****       -17.7500 -20.0000  -8.5000 Du        
   7189 ****       -17.7500 -20.0000  -8.2500 Du        
   7190 ****       -17.7500 -20.0000  -8.0000 Du        
   7191 ****       -17.7500 -20.0000  -7.7500 Du        
   7192 ****       -17.7500 -19.7500  -9.2500 Du        
   7193 ****       -17.7500 -19.7500  -9.0000 Du        
   7194 ****       -17.7500 -19.7500  -8.7500 Du        
   7195 ****       -17.7500 -19.7500  -8.5000 Du        
   7196 ****       -17.7500 -19.7500  -8.2500 Du        
   7197 ****       -17.7500 -19.7500  -8.0000 Du        
   7198 ****       -17.7500 -19.7500  -7.7500 Du        
   7199 ****       -17.7500 -19.5000  -9.5000 Du        
   7200 ****       -17.7500 -19.5000  -9.2500 Du        
   7201 ****       -17.7500 -19.5000  -9.0000 Du        
   7202 ****       -17.7500 -19.5000  -8.7500 Du        
   7203 ****       -17.7500 -19.5000  -8.5000 Du        
   7204 ****       -17.7500 -19.5000  -8.2500 Du        
   7205 ****       -17.7500 -19.5000  -8.0000 Du        
   7206 ****       -17.7500 -19.5000  -7.7500 Du        
   7207 ****       -17.7500 -19.2500 -10.0000 Du        
   7208 ****       -17.7500 -19.2500  -9.7500 Du        
   7209 ****       -17.7500 -19.2500  -9.5000 Du        
   7210 ****       -17.7500 -19.2500  -9.2500 Du        
   7211 ****       -17.7500 -19.2500  -9.0000 Du        
   7212 ****       -17.7500 -19.2500  -8.7500 Du        
   7213 ****       -17.7500 -19.2500  -8.5000 Du        
   7214 ****       -17.7500 -19.2500  -8.2500 Du        
   7215 ****       -17.7500 -19.2500  -8.0000 Du        
   7216 ****       -17.7500 -19.2500  -7.7500 Du        
   7217 ****       -17.7500 -19.2500  -7.5000 Du        
   7218 ****       -17.7500 -19.0000 -10.7500 Du        
   7219 ****       -17.7500 -19.0000 -10.5000 Du        
   7220 ****       -17.7500 -19.0000 -10.2500 Du        
   7221 ****       -17.7500 -19.0000 -10.0000 Du        
   7222 ****       -17.7500 -19.0000  -9.7500 Du        
   7223 ****       -17.7500 -19.0000  -9.5000 Du        
   7224 ****       -17.7500 -19.0000  -9.2500 Du        
   7225 ****       -17.7500 -19.0000  -9.0000 Du        
   7226 ****       -17.7500 -19.0000  -8.7500 Du        
   7227 ****       -17.7500 -19.0000  -8.5000 Du        
   7228 ****       -17.7500 -19.0000  -8.2500 Du        
   7229 ****       -17.7500 -19.0000  -8.0000 Du        
   7230 ****       -17.7500 -19.0000  -7.7500 Du        
   7231 ****       -17.7500 -19.0000  -7.5000 Du        
   7232 ****       -17.7500 -18.7500 -11.2500 Du        
   7233 ****       -17.7500 -18.7500 -11.0000 Du        
   7234 ****       -17.7500 -18.7500 -10.7500 Du        
   7235 ****       -17.7500 -18.7500 -10.5000 Du        
   7236 ****       -17.7500 -18.7500 -10.2500 Du        
   7237 ****       -17.7500 -18.7500 -10.0000 Du        
   7238 ****       -17.7500 -18.7500  -9.7500 Du        
   7239 ****       -17.7500 -18.7500  -9.5000 Du        
   7240 ****       -17.7500 -18.7500  -9.2500 Du        
   7241 ****       -17.7500 -18.7500  -9.0000 Du        
   7242 ****       -17.7500 -18.7500  -8.7500 Du        
   7243 ****       -17.7500 -18.7500  -8.5000 Du        
   7244 ****       -17.7500 -18.7500  -8.2500 Du        
   7245 ****       -17.7500 -18.7500  -8.0000 Du        
   7246 ****       -17.7500 -18.7500  -7.7500 Du        
   7247 ****       -17.7500 -18.7500  -7.5000 Du        
   7248 ****       -17.7500 -18.7500  -7.2500 Du        
   7249 ****       -17.7500 -18.5000 -22.5000 Du        
   7250 ****       -17.7500 -18.5000 -12.0000 Du        
   7251 ****       -17.7500 -18.5000 -11.7500 Du        
   7252 ****       -17.7500 -18.5000 -11.5000 Du        
   7253 ****       -17.7500 -18.5000 -11.2500 Du        
   7254 ****       -17.7500 -18.5000 -11.0000 Du        
   7255 ****       -17.7500 -18.5000 -10.7500 Du        
   7256 ****       -17.7500 -18.5000 -10.5000 Du        
   7257 ****       -17.7500 -18.5000 -10.2500 Du        
   7258 ****       -17.7500 -18.5000 -10.0000 Du        
   7259 ****       -17.7500 -18.5000  -9.7500 Du        
   7260 ****       -17.7500 -18.5000  -9.5000 Du        
   7261 ****       -17.7500 -18.5000  -9.2500 Du        
   7262 ****       -17.7500 -18.5000  -9.0000 Du        
   7263 ****       -17.7500 -18.5000  -8.7500 Du        
   7264 ****       -17.7500 -18.5000  -8.5000 Du        
   7265 ****       -17.7500 -18.5000  -8.2500 Du        
   7266 ****       -17.7500 -18.5000  -8.0000 Du        
   7267 ****       -17.7500 -18.5000  -7.7500 Du        
   7268 ****       -17.7500 -18.5000  -7.5000 Du        
   7269 ****       -17.7500 -18.5000  -7.2500 Du        
   7270 ****       -17.7500 -18.2500 -23.0000 Du        
   7271 ****       -17.7500 -18.2500 -22.7500 Du        
   7272 ****       -17.7500 -18.2500 -13.2500 Du        
   7273 ****       -17.7500 -18.2500 -13.0000 Du        
   7274 ****       -17.7500 -18.2500 -12.7500 Du        
   7275 ****       -17.7500 -18.2500 -12.5000 Du        
   7276 ****       -17.7500 -18.2500 -12.2500 Du        
   7277 ****       -17.7500 -18.2500 -12.0000 Du        
   7278 ****       -17.7500 -18.2500 -11.7500 Du        
   7279 ****       -17.7500 -18.2500 -11.5000 Du        
   7280 ****       -17.7500 -18.2500 -11.2500 Du        
   7281 ****       -17.7500 -18.2500 -11.0000 Du        
   7282 ****       -17.7500 -18.2500 -10.7500 Du        
   7283 ****       -17.7500 -18.2500 -10.5000 Du        
   7284 ****       -17.7500 -18.2500 -10.2500 Du        
   7285 ****       -17.7500 -18.2500 -10.0000 Du        
   7286 ****       -17.7500 -18.2500  -9.7500 Du        
   7287 ****       -17.7500 -18.2500  -9.5000 Du        
   7288 ****       -17.7500 -18.2500  -9.2500 Du        
   7289 ****       -17.7500 -18.2500  -9.0000 Du        
   7290 ****       -17.7500 -18.2500  -8.7500 Du        
   7291 ****       -17.7500 -18.2500  -8.5000 Du        
   7292 ****       -17.7500 -18.2500  -8.2500 Du        
   7293 ****       -17.7500 -18.2500  -8.0000 Du        
   7294 ****       -17.7500 -18.2500  -7.7500 Du        
   7295 ****       -17.7500 -18.2500  -7.5000 Du        
   7296 ****       -17.7500 -18.2500  -7.2500 Du        
   7297 ****       -17.7500 -18.2500  -7.0000 Du        
   7298 ****       -17.7500 -18.0000 -23.2500 Du        
   7299 ****       -17.7500 -18.0000 -23.0000 Du        
   7300 ****       -17.7500 -18.0000 -13.7500 Du        
   7301 ****       -17.7500 -18.0000 -13.5000 Du        
   7302 ****       -17.7500 -18.0000 -13.2500 Du        
   7303 ****       -17.7500 -18.0000 -13.0000 Du        
   7304 ****       -17.7500 -18.0000 -12.7500 Du        
   7305 ****       -17.7500 -18.0000 -12.5000 Du        
   7306 ****       -17.7500 -18.0000 -12.2500 Du        
   7307 ****       -17.7500 -18.0000 -12.0000 Du        
   7308 ****       -17.7500 -18.0000 -11.7500 Du        
   7309 ****       -17.7500 -18.0000 -11.5000 Du        
   7310 ****       -17.7500 -18.0000 -11.2500 Du        
   7311 ****       -17.7500 -18.0000 -11.0000 Du        
   7312 ****       -17.7500 -18.0000 -10.7500 Du        
   7313 ****       -17.7500 -18.0000 -10.5000 Du        
   7314 ****       -17.7500 -18.0000 -10.2500 Du        
   7315 ****       -17.7500 -18.0000 -10.0000 Du        
   7316 ****       -17.7500 -18.0000  -9.7500 Du        
   7317 ****       -17.7500 -18.0000  -9.5000 Du        
   7318 ****       -17.7500 -18.0000  -9.2500 Du        
   7319 ****       -17.7500 -18.0000  -9.0000 Du        
   7320 ****       -17.7500 -18.0000  -8.7500 Du        
   7321 ****       -17.7500 -18.0000  -8.5000 Du        
   7322 ****       -17.7500 -18.0000  -8.2500 Du        
   7323 ****       -17.7500 -18.0000  -8.0000 Du        
   7324 ****       -17.7500 -18.0000  -7.7500 Du        
   7325 ****       -17.7500 -18.0000  -7.5000 Du        
   7326 ****       -17.7500 -18.0000  -7.2500 Du        
   7327 ****       -17.7500 -18.0000  -7.0000 Du        
   7328 ****       -17.7500 -18.0000  -6.7500 Du        
   7329 ****       -17.7500 -17.7500 -23.5000 Du        
   7330 ****       -17.7500 -17.7500 -23.2500 Du        
   7331 ****       -17.7500 -17.7500 -23.0000 Du        
   7332 ****       -17.7500 -17.7500 -14.0000 Du        
   7333 ****       -17.7500 -17.7500 -13.7500 Du        
   7334 ****       -17.7500 -17.7500 -13.5000 Du        
   7335 ****       -17.7500 -17.7500 -13.2500 Du        
   7336 ****       -17.7500 -17.7500 -13.0000 Du        
   7337 ****       -17.7500 -17.7500 -12.7500 Du        
   7338 ****       -17.7500 -17.7500 -12.5000 Du        
   7339 ****       -17.7500 -17.7500 -12.2500 Du        
   7340 ****       -17.7500 -17.7500 -12.0000 Du        
   7341 ****       -17.7500 -17.7500 -11.7500 Du        
   7342 ****       -17.7500 -17.7500 -11.5000 Du        
   7343 ****       -17.7500 -17.7500 -11.2500 Du        
   7344 ****       -17.7500 -17.7500 -11.0000 Du        
   7345 ****       -17.7500 -17.7500 -10.7500 Du        
   7346 ****       -17.7500 -17.7500 -10.5000 Du        
   7347 ****       -17.7500 -17.7500 -10.2500 Du        
   7348 ****       -17.7500 -17.7500 -10.0000 Du        
   7349 ****       -17.7500 -17.7500  -9.7500 Du        
   7350 ****       -17.7500 -17.7500  -9.5000 Du        
   7351 ****       -17.7500 -17.7500  -9.2500 Du        
   7352 ****       -17.7500 -17.7500  -9.0000 Du        
   7353 ****       -17.7500 -17.7500  -8.7500 Du        
   7354 ****       -17.7500 -17.7500  -8.5000 Du        
   7355 ****       -17.7500 -17.7500  -8.2500 Du        
   7356 ****       -17.7500 -17.7500  -8.0000 Du        
   7357 ****       -17.7500 -17.7500  -7.7500 Du        
   7358 ****       -17.7500 -17.7500  -7.5000 Du        
   7359 ****       -17.7500 -17.7500  -7.2500 Du        
   7360 ****       -17.7500 -17.7500  -7.0000 Du        
   7361 ****       -17.7500 -17.7500  -6.7500 Du        
   7362 ****       -17.7500 -17.5000 -24.0000 Du        
   7363 ****       -17.7500 -17.5000 -23.7500 Du        
   7364 ****       -17.7500 -17.5000 -23.5000 Du        
   7365 ****       -17.7500 -17.5000 -23.2500 Du        
   7366 ****       -17.7500 -17.5000 -14.0000 Du        
   7367 ****       -17.7500 -17.5000 -13.7500 Du        
   7368 ****       -17.7500 -17.5000 -13.5000 Du        
   7369 ****       -17.7500 -17.5000 -13.2500 Du        
   7370 ****       -17.7500 -17.5000 -13.0000 Du        
   7371 ****       -17.7500 -17.5000 -12.7500 Du        
   7372 ****       -17.7500 -17.5000 -12.5000 Du        
   7373 ****       -17.7500 -17.5000 -12.2500 Du        
   7374 ****       -17.7500 -17.5000 -12.0000 Du        
   7375 ****       -17.7500 -17.5000 -11.7500 Du        
   7376 ****       -17.7500 -17.5000  -9.2500 Du        
   7377 ****       -17.7500 -17.5000  -9.0000 Du        
   7378 ****       -17.7500 -17.5000  -8.7500 Du        
   7379 ****       -17.7500 -17.5000  -8.5000 Du        
   7380 ****       -17.7500 -17.5000  -8.2500 Du        
   7381 ****       -17.7500 -17.5000  -8.0000 Du        
   7382 ****       -17.7500 -17.5000  -7.7500 Du        
   7383 ****       -17.7500 -17.2500 -25.7500 Du        
   7384 ****       -17.7500 -17.2500 -25.5000 Du        
   7385 ****       -17.7500 -17.2500 -25.2500 Du        
   7386 ****       -17.7500 -17.2500 -25.0000 Du        
   7387 ****       -17.7500 -17.2500 -24.7500 Du        
   7388 ****       -17.7500 -17.2500 -24.5000 Du        
   7389 ****       -17.7500 -17.2500 -24.2500 Du        
   7390 ****       -17.7500 -17.2500 -24.0000 Du        
   7391 ****       -17.7500 -17.2500 -23.7500 Du        
   7392 ****       -17.7500 -17.2500 -23.5000 Du        
   7393 ****       -17.7500 -17.2500 -14.0000 Du        
   7394 ****       -17.7500 -17.2500 -13.7500 Du        
   7395 ****       -17.7500 -17.2500 -13.5000 Du        
   7396 ****       -17.7500 -17.2500 -13.2500 Du        
   7397 ****       -17.7500 -17.2500 -13.0000 Du        
   7398 ****       -17.7500 -17.2500 -12.7500 Du        
   7399 ****       -17.7500 -17.2500 -12.5000 Du        
   7400 ****       -17.7500 -17.2500 -12.2500 Du        
   7401 ****       -17.7500 -17.2500 -12.0000 Du        
   7402 ****       -17.7500 -17.2500  -8.0000 Du        
   7403 ****       -17.7500 -17.0000 -25.7500 Du        
   7404 ****       -17.7500 -17.0000 -25.5000 Du        
   7405 ****       -17.7500 -17.0000 -25.2500 Du        
   7406 ****       -17.7500 -17.0000 -25.0000 Du        
   7407 ****       -17.7500 -17.0000 -24.7500 Du        
   7408 ****       -17.7500 -17.0000 -24.5000 Du        
   7409 ****       -17.7500 -17.0000 -24.2500 Du        
   7410 ****       -17.7500 -17.0000 -24.0000 Du        
   7411 ****       -17.7500 -17.0000 -23.7500 Du        
   7412 ****       -17.7500 -17.0000 -23.5000 Du        
   7413 ****       -17.7500 -17.0000 -14.0000 Du        
   7414 ****       -17.7500 -17.0000 -13.7500 Du        
   7415 ****       -17.7500 -17.0000 -13.5000 Du        
   7416 ****       -17.7500 -17.0000 -13.2500 Du        
   7417 ****       -17.7500 -17.0000 -13.0000 Du        
   7418 ****       -17.7500 -17.0000 -12.7500 Du        
   7419 ****       -17.7500 -16.7500 -25.7500 Du        
   7420 ****       -17.7500 -16.7500 -25.5000 Du        
   7421 ****       -17.7500 -16.7500 -25.2500 Du        
   7422 ****       -17.7500 -16.7500 -25.0000 Du        
   7423 ****       -17.7500 -16.7500 -24.7500 Du        
   7424 ****       -17.7500 -16.7500 -24.5000 Du        
   7425 ****       -17.7500 -16.7500 -24.2500 Du        
   7426 ****       -17.7500 -16.7500 -24.0000 Du        
   7427 ****       -17.7500 -16.7500 -23.7500 Du        
   7428 ****       -17.7500 -16.7500 -14.0000 Du        
   7429 ****       -17.7500 -16.7500 -13.7500 Du        
   7430 ****       -17.7500 -16.7500 -13.5000 Du        
   7431 ****       -17.7500 -16.7500 -13.2500 Du        
   7432 ****       -17.7500 -16.7500 -13.0000 Du        
   7433 ****       -17.7500 -16.7500 -12.7500 Du        
   7434 ****       -17.7500 -16.7500   3.5000 Du        
   7435 ****       -17.7500 -16.5000 -25.7500 Du        
   7436 ****       -17.7500 -16.5000 -25.5000 Du        
   7437 ****       -17.7500 -16.5000 -25.2500 Du        
   7438 ****       -17.7500 -16.5000 -25.0000 Du        
   7439 ****       -17.7500 -16.5000 -24.7500 Du        
   7440 ****       -17.7500 -16.5000 -24.5000 Du        
   7441 ****       -17.7500 -16.5000 -24.2500 Du        
   7442 ****       -17.7500 -16.5000 -24.0000 Du        
   7443 ****       -17.7500 -16.5000 -23.7500 Du        
   7444 ****       -17.7500 -16.5000 -13.7500 Du        
   7445 ****       -17.7500 -16.5000   3.0000 Du        
   7446 ****       -17.7500 -16.5000   3.2500 Du        
   7447 ****       -17.7500 -16.5000   3.5000 Du        
   7448 ****       -17.7500 -16.2500 -25.7500 Du        
   7449 ****       -17.7500 -16.2500 -25.5000 Du        
   7450 ****       -17.7500 -16.2500 -25.2500 Du        
   7451 ****       -17.7500 -16.2500 -25.0000 Du        
   7452 ****       -17.7500 -16.2500 -24.7500 Du        
   7453 ****       -17.7500 -16.2500 -24.5000 Du        
   7454 ****       -17.7500 -16.2500 -24.2500 Du        
   7455 ****       -17.7500 -16.2500 -24.0000 Du        
   7456 ****       -17.7500 -16.2500 -23.7500 Du        
   7457 ****       -17.7500 -16.2500 -13.7500 Du        
   7458 ****       -17.7500 -16.2500   3.0000 Du        
   7459 ****       -17.7500 -16.2500   3.2500 Du        
   7460 ****       -17.7500 -16.2500   3.5000 Du        
   7461 ****       -17.7500 -16.0000 -25.7500 Du        
   7462 ****       -17.7500 -16.0000 -25.5000 Du        
   7463 ****       -17.7500 -16.0000 -25.2500 Du        
   7464 ****       -17.7500 -16.0000 -25.0000 Du        
   7465 ****       -17.7500 -16.0000 -24.7500 Du        
   7466 ****       -17.7500 -16.0000 -24.5000 Du        
   7467 ****       -17.7500 -16.0000 -24.2500 Du        
   7468 ****       -17.7500 -16.0000 -24.0000 Du        
   7469 ****       -17.7500 -16.0000 -23.7500 Du        
   7470 ****       -17.7500 -16.0000   3.0000 Du        
   7471 ****       -17.7500 -16.0000   3.2500 Du        
   7472 ****       -17.7500 -16.0000   3.5000 Du        
   7473 ****       -17.7500 -15.7500 -25.7500 Du        
   7474 ****       -17.7500 -15.7500 -25.5000 Du        
   7475 ****       -17.7500 -15.7500 -25.2500 Du        
   7476 ****       -17.7500 -15.7500 -25.0000 Du        
   7477 ****       -17.7500 -15.7500 -24.7500 Du        
   7478 ****       -17.7500 -15.7500 -24.5000 Du        
   7479 ****       -17.7500 -15.7500 -24.2500 Du        
   7480 ****       -17.7500 -15.7500 -24.0000 Du        
   7481 ****       -17.7500 -15.7500   3.0000 Du        
   7482 ****       -17.7500 -15.7500   3.2500 Du        
   7483 ****       -17.7500 -15.7500   3.5000 Du        
   7484 ****       -17.7500 -15.5000 -25.2500 Du        
   7485 ****       -17.7500 -15.5000 -25.0000 Du        
   7486 ****       -17.7500 -15.5000 -24.7500 Du        
   7487 ****       -17.7500 -15.5000 -24.5000 Du        
   7488 ****       -17.7500 -15.5000 -24.2500 Du        
   7489 ****       -17.7500 -15.5000 -24.0000 Du        
   7490 ****       -17.7500 -15.5000   3.2500 Du        
   7491 ****       -17.7500 -15.5000   3.5000 Du        
   7492 ****       -17.7500 -15.5000   3.7500 Du        
   7493 ****       -17.7500 -15.2500 -24.7500 Du        
   7494 ****       -17.7500 -15.2500 -24.5000 Du        
   7495 ****       -17.7500 -15.2500 -24.2500 Du        
   7496 ****       -17.7500 -15.2500 -24.0000 Du        
   7497 ****       -17.7500 -14.2500 -15.2500 Du        
   7498 ****       -17.7500 -14.0000 -16.0000 Du        
   7499 ****       -17.7500 -14.0000 -15.7500 Du        
   7500 ****       -17.7500 -14.0000 -15.5000 Du        
   7501 ****       -17.7500 -14.0000 -15.2500 Du        
   7502 ****       -17.7500 -14.0000 -15.0000 Du        
   7503 ****       -17.7500 -13.7500 -16.2500 Du        
   7504 ****       -17.7500 -13.7500 -16.0000 Du        
   7505 ****       -17.7500 -13.7500 -15.7500 Du        
   7506 ****       -17.7500 -13.7500 -15.5000 Du        
   7507 ****       -17.7500 -13.5000 -16.2500 Du        
   7508 ****       -17.7500 -13.5000 -16.0000 Du        
   7509 ****       -17.7500 -13.5000 -15.7500 Du        
   7510 ****       -17.7500 -13.2500 -16.7500 Du        
   7511 ****       -17.7500 -13.2500 -16.5000 Du        
   7512 ****       -17.7500 -13.2500 -16.2500 Du        
   7513 ****       -17.7500 -13.2500 -16.0000 Du        
   7514 ****       -17.7500 -13.0000 -17.0000 Du        
   7515 ****       -17.7500 -13.0000 -16.7500 Du        
   7516 ****       -17.7500 -13.0000 -16.5000 Du        
   7517 ****       -17.7500 -13.0000 -16.2500 Du        
   7518 ****       -17.7500 -12.7500 -17.2500 Du        
   7519 ****       -17.7500 -12.7500 -17.0000 Du        
   7520 ****       -17.7500 -12.7500 -16.7500 Du        
   7521 ****       -17.7500 -12.7500 -16.5000 Du        
   7522 ****       -17.7500 -12.5000 -17.0000 Du        
   7523 ****       -17.7500 -12.2500 -17.5000 Du        
   7524 ****       -17.7500 -12.2500 -17.2500 Du        
   7525 ****       -17.7500 -12.2500 -17.0000 Du        
   7526 ****       -17.7500 -12.2500 -16.7500 Du        
   7527 ****       -17.7500 -12.0000 -17.5000 Du        
   7528 ****       -17.7500 -12.0000 -17.2500 Du        
   7529 ****       -17.7500 -12.0000 -17.0000 Du        
   7530 ****       -17.7500 -12.0000 -16.7500 Du        
   7531 ****       -17.7500 -11.7500 -17.5000 Du        
   7532 ****       -17.7500 -11.7500 -17.2500 Du        
   7533 ****       -17.7500 -11.7500 -17.0000 Du        
   7534 ****       -17.7500 -11.7500 -11.2500 Du        
   7535 ****       -17.7500 -11.7500 -11.0000 Du        
   7536 ****       -17.7500 -11.7500 -10.7500 Du        
   7537 ****       -17.7500 -11.5000 -11.5000 Du        
   7538 ****       -17.7500 -11.5000 -11.2500 Du        
   7539 ****       -17.7500 -11.5000 -11.0000 Du        
   7540 ****       -17.7500 -11.5000 -10.7500 Du        
   7541 ****       -17.7500 -11.5000 -10.5000 Du        
   7542 ****       -17.7500 -11.2500 -12.0000 Du        
   7543 ****       -17.7500 -11.2500 -11.7500 Du        
   7544 ****       -17.7500 -11.2500 -11.5000 Du        
   7545 ****       -17.7500 -11.2500 -11.2500 Du        
   7546 ****       -17.7500 -11.2500 -11.0000 Du        
   7547 ****       -17.7500 -11.2500 -10.7500 Du        
   7548 ****       -17.7500 -11.2500 -10.5000 Du        
   7549 ****       -17.7500 -11.0000 -12.0000 Du        
   7550 ****       -17.7500 -11.0000 -11.7500 Du        
   7551 ****       -17.7500 -11.0000 -11.5000 Du        
   7552 ****       -17.7500 -11.0000 -11.2500 Du        
   7553 ****       -17.7500 -11.0000 -11.0000 Du        
   7554 ****       -17.7500 -11.0000 -10.7500 Du        
   7555 ****       -17.7500 -11.0000 -10.5000 Du        
   7556 ****       -17.7500 -10.7500 -11.7500 Du        
   7557 ****       -17.7500 -10.7500 -11.5000 Du        
   7558 ****       -17.7500 -10.7500 -11.2500 Du        
   7559 ****       -17.7500 -10.7500 -11.0000 Du        
   7560 ****       -17.7500 -10.7500 -10.7500 Du        
   7561 ****       -17.7500 -10.7500 -10.5000 Du        
   7562 ****       -17.7500 -10.5000 -11.5000 Du        
   7563 ****       -17.7500 -10.5000 -11.2500 Du        
   7564 ****       -17.7500 -10.5000 -11.0000 Du        
   7565 ****       -17.7500 -10.5000 -10.7500 Du        
   7566 ****       -17.7500 -10.5000 -10.5000 Du        
   7567 ****       -17.7500 -10.2500 -11.2500 Du        
   7568 ****       -17.7500 -10.2500 -11.0000 Du        
   7569 ****       -17.7500 -10.2500 -10.7500 Du        
   7570 ****       -17.7500 -10.2500 -10.5000 Du        
   7571 ****       -17.7500 -10.2500 -10.2500 Du        
   7572 ****       -17.7500 -10.0000 -11.0000 Du        
   7573 ****       -17.7500 -10.0000 -10.7500 Du        
   7574 ****       -17.7500 -10.0000 -10.5000 Du        
   7575 ****       -17.7500 -10.0000 -10.2500 Du        
   7576 ****       -17.7500  -9.7500 -10.5000 Du        
   7577 ****       -17.7500  -9.7500 -10.2500 Du        
   7578 ****       -17.7500  -9.5000 -10.2500 Du        
   7579 ****       -17.7500  -9.5000 -10.0000 Du        
   7580 ****       -17.7500  -9.0000  -9.2500 Du        
   7581 ****       -17.7500  -8.7500  -9.0000 Du        
   7582 ****       -17.7500  -8.7500  -8.7500 Du        
   7583 ****       -17.7500  -8.5000  -9.0000 Du        
   7584 ****       -17.7500  -8.5000  -8.7500 Du        
   7585 ****       -17.7500  -8.5000  -8.5000 Du        
   7586 ****       -17.7500  -8.5000  -8.2500 Du        
   7587 ****       -17.7500  -8.2500  -8.7500 Du        
   7588 ****       -17.7500  -8.2500  -8.5000 Du        
   7589 ****       -17.7500  -8.2500  -8.2500 Du        
   7590 ****       -17.7500  -8.2500  -8.0000 Du        
   7591 ****       -17.7500  -8.0000  -8.7500 Du        
   7592 ****       -17.7500  -8.0000  -8.5000 Du        
   7593 ****       -17.7500  -8.0000  -8.2500 Du        
   7594 ****       -17.7500  -8.0000  -8.0000 Du        
   7595 ****       -17.7500  -7.7500  -8.5000 Du        
   7596 ****       -17.7500  -7.7500  -8.2500 Du        
   7597 ****       -17.7500  -7.7500  -8.0000 Du        
   7598 ****       -17.7500  -7.7500  -7.7500 Du        
   7599 ****       -17.7500  -7.5000  -8.2500 Du        
   7600 ****       -17.7500  -7.5000  -8.0000 Du        
   7601 ****       -17.7500  -7.5000  -7.7500 Du        
   7602 ****       -17.7500  -7.5000  -7.5000 Du        
   7603 ****       -17.7500  -7.2500  -8.2500 Du        
   7604 ****       -17.7500  -7.2500  -8.0000 Du        
   7605 ****       -17.7500  -7.2500  -7.7500 Du        
   7606 ****       -17.7500  -7.2500  -7.5000 Du        
   7607 ****       -17.7500  -7.2500  -7.2500 Du        
   7608 ****       -17.7500  -7.0000  -8.2500 Du        
   7609 ****       -17.7500  -7.0000  -8.0000 Du        
   7610 ****       -17.7500  -7.0000  -7.7500 Du        
   7611 ****       -17.7500  -7.0000  -7.5000 Du        
   7612 ****       -17.7500  -7.0000  -7.2500 Du        
   7613 ****       -17.7500  -7.0000  -7.0000 Du        
   7614 ****       -17.7500  -6.7500  -8.2500 Du        
   7615 ****       -17.7500  -6.7500  -8.0000 Du        
   7616 ****       -17.7500  -6.7500  -7.7500 Du        
   7617 ****       -17.7500  -6.7500  -7.5000 Du        
   7618 ****       -17.7500  -6.7500  -7.2500 Du        
   7619 ****       -17.7500  -6.7500  -7.0000 Du        
   7620 ****       -17.7500  -6.7500  -6.7500 Du        
   7621 ****       -17.7500  -6.5000  -8.0000 Du        
   7622 ****       -17.7500  -6.5000  -7.7500 Du        
   7623 ****       -17.7500  -6.5000  -7.5000 Du        
   7624 ****       -17.7500  -6.5000  -7.2500 Du        
   7625 ****       -17.7500  -6.5000  -7.0000 Du        
   7626 ****       -17.7500  -6.5000  -6.7500 Du        
   7627 ****       -17.7500  -6.5000  -6.5000 Du        
   7628 ****       -17.7500  -6.5000  -6.2500 Du        
   7629 ****       -17.7500  -6.2500  -8.2500 Du        
   7630 ****       -17.7500  -6.2500  -8.0000 Du        
   7631 ****       -17.7500  -6.2500  -7.7500 Du        
   7632 ****       -17.7500  -6.2500  -7.5000 Du        
   7633 ****       -17.7500  -6.2500  -7.2500 Du        
   7634 ****       -17.7500  -6.2500  -7.0000 Du        
   7635 ****       -17.7500  -6.2500  -6.7500 Du        
   7636 ****       -17.7500  -6.2500  -6.5000 Du        
   7637 ****       -17.7500  -6.2500  -6.2500 Du        
   7638 ****       -17.7500  -6.2500  -6.0000 Du        
   7639 ****       -17.7500  -6.2500  -5.7500 Du        
   7640 ****       -17.7500  -6.0000  -8.2500 Du        
   7641 ****       -17.7500  -6.0000  -8.0000 Du        
   7642 ****       -17.7500  -6.0000  -7.7500 Du        
   7643 ****       -17.7500  -6.0000  -7.5000 Du        
   7644 ****       -17.7500  -6.0000  -7.2500 Du        
   7645 ****       -17.7500  -6.0000  -7.0000 Du        
   7646 ****       -17.7500  -6.0000  -6.7500 Du        
   7647 ****       -17.7500  -6.0000  -6.5000 Du        
   7648 ****       -17.7500  -6.0000  -6.2500 Du        
   7649 ****       -17.7500  -6.0000  -6.0000 Du        
   7650 ****       -17.7500  -6.0000  -5.7500 Du        
   7651 ****       -17.7500  -6.0000  -5.5000 Du        
   7652 ****       -17.7500  -6.0000  -5.2500 Du        
   7653 ****       -17.7500  -6.0000  -5.0000 Du        
   7654 ****       -17.7500  -5.7500  -8.2500 Du        
   7655 ****       -17.7500  -5.7500  -8.0000 Du        
   7656 ****       -17.7500  -5.7500  -7.7500 Du        
   7657 ****       -17.7500  -5.7500  -7.5000 Du        
   7658 ****       -17.7500  -5.7500  -7.2500 Du        
   7659 ****       -17.7500  -5.7500  -7.0000 Du        
   7660 ****       -17.7500  -5.7500  -6.7500 Du        
   7661 ****       -17.7500  -5.7500  -6.5000 Du        
   7662 ****       -17.7500  -5.7500  -6.2500 Du        
   7663 ****       -17.7500  -5.7500  -6.0000 Du        
   7664 ****       -17.7500  -5.7500  -5.7500 Du        
   7665 ****       -17.7500  -5.7500  -5.5000 Du        
   7666 ****       -17.7500  -5.7500  -5.2500 Du        
   7667 ****       -17.7500  -5.7500  -5.0000 Du        
   7668 ****       -17.7500  -5.7500  -4.7500 Du        
   7669 ****       -17.7500  -5.7500  -4.5000 Du        
   7670 ****       -17.7500  -5.7500  -4.2500 Du        
   7671 ****       -17.7500  -5.5000  -8.2500 Du        
   7672 ****       -17.7500  -5.5000  -8.0000 Du        
   7673 ****       -17.7500  -5.5000  -7.7500 Du        
   7674 ****       -17.7500  -5.5000  -7.5000 Du        
   7675 ****       -17.7500  -5.5000  -7.2500 Du        
   7676 ****       -17.7500  -5.5000  -7.0000 Du        
   7677 ****       -17.7500  -5.5000  -6.7500 Du        
   7678 ****       -17.7500  -5.5000  -6.5000 Du        
   7679 ****       -17.7500  -5.5000  -6.2500 Du        
   7680 ****       -17.7500  -5.5000  -6.0000 Du        
   7681 ****       -17.7500  -5.5000  -5.7500 Du        
   7682 ****       -17.7500  -5.5000  -5.5000 Du        
   7683 ****       -17.7500  -5.5000  -5.2500 Du        
   7684 ****       -17.7500  -5.5000  -5.0000 Du        
   7685 ****       -17.7500  -5.5000  -4.7500 Du        
   7686 ****       -17.7500  -5.5000  -4.5000 Du        
   7687 ****       -17.7500  -5.5000  -4.2500 Du        
   7688 ****       -17.7500  -5.5000  -4.0000 Du        
   7689 ****       -17.7500  -5.2500  -8.2500 Du        
   7690 ****       -17.7500  -5.2500  -8.0000 Du        
   7691 ****       -17.7500  -5.2500  -7.7500 Du        
   7692 ****       -17.7500  -5.2500  -7.5000 Du        
   7693 ****       -17.7500  -5.2500  -7.2500 Du        
   7694 ****       -17.7500  -5.2500  -7.0000 Du        
   7695 ****       -17.7500  -5.2500  -6.7500 Du        
   7696 ****       -17.7500  -5.2500  -6.5000 Du        
   7697 ****       -17.7500  -5.2500  -6.2500 Du        
   7698 ****       -17.7500  -5.2500  -6.0000 Du        
   7699 ****       -17.7500  -5.2500  -5.7500 Du        
   7700 ****       -17.7500  -5.2500  -5.5000 Du        
   7701 ****       -17.7500  -5.2500  -5.2500 Du        
   7702 ****       -17.7500  -5.2500  -5.0000 Du        
   7703 ****       -17.7500  -5.2500  -4.7500 Du        
   7704 ****       -17.7500  -5.2500  -4.5000 Du        
   7705 ****       -17.7500  -5.2500  -4.2500 Du        
   7706 ****       -17.7500  -5.2500  -4.0000 Du        
   7707 ****       -17.7500  -5.2500  -3.7500 Du        
   7708 ****       -17.7500  -5.0000  -8.2500 Du        
   7709 ****       -17.7500  -5.0000  -8.0000 Du        
   7710 ****       -17.7500  -5.0000  -7.7500 Du        
   7711 ****       -17.7500  -5.0000  -7.5000 Du        
   7712 ****       -17.7500  -5.0000  -7.2500 Du        
   7713 ****       -17.7500  -5.0000  -7.0000 Du        
   7714 ****       -17.7500  -5.0000  -6.7500 Du        
   7715 ****       -17.7500  -5.0000  -6.5000 Du        
   7716 ****       -17.7500  -5.0000  -6.2500 Du        
   7717 ****       -17.7500  -5.0000  -6.0000 Du        
   7718 ****       -17.7500  -5.0000  -5.7500 Du        
   7719 ****       -17.7500  -5.0000  -5.5000 Du        
   7720 ****       -17.7500  -5.0000  -5.2500 Du        
   7721 ****       -17.7500  -5.0000  -5.0000 Du        
   7722 ****       -17.7500  -5.0000  -4.7500 Du        
   7723 ****       -17.7500  -5.0000  -4.5000 Du        
   7724 ****       -17.7500  -5.0000  -4.2500 Du        
   7725 ****       -17.7500  -5.0000  -4.0000 Du        
   7726 ****       -17.7500  -5.0000  -3.7500 Du        
   7727 ****       -17.7500  -4.7500  -8.0000 Du        
   7728 ****       -17.7500  -4.7500  -7.7500 Du        
   7729 ****       -17.7500  -4.7500  -7.5000 Du        
   7730 ****       -17.7500  -4.7500  -7.2500 Du        
   7731 ****       -17.7500  -4.7500  -7.0000 Du        
   7732 ****       -17.7500  -4.7500  -6.5000 Du        
   7733 ****       -17.7500  -4.7500  -6.2500 Du        
   7734 ****       -17.7500  -4.7500  -6.0000 Du        
   7735 ****       -17.7500  -4.7500  -5.7500 Du        
   7736 ****       -17.7500  -4.7500  -5.5000 Du        
   7737 ****       -17.7500  -4.7500  -5.2500 Du        
   7738 ****       -17.7500  -4.7500  -5.0000 Du        
   7739 ****       -17.7500  -4.7500  -4.7500 Du        
   7740 ****       -17.7500  -4.7500  -4.5000 Du        
   7741 ****       -17.7500  -4.7500  -4.2500 Du        
   7742 ****       -17.7500  -4.7500  -4.0000 Du        
   7743 ****       -17.7500  -4.7500  -3.7500 Du        
   7744 ****       -17.7500  -4.5000  -8.0000 Du        
   7745 ****       -17.7500  -4.5000  -7.7500 Du        
   7746 ****       -17.7500  -4.5000  -7.5000 Du        
   7747 ****       -17.7500  -4.5000  -7.2500 Du        
   7748 ****       -17.7500  -4.5000  -7.0000 Du        
   7749 ****       -17.7500  -4.5000  -6.5000 Du        
   7750 ****       -17.7500  -4.5000  -6.2500 Du        
   7751 ****       -17.7500  -4.5000  -6.0000 Du        
   7752 ****       -17.7500  -4.5000  -5.7500 Du        
   7753 ****       -17.7500  -4.5000  -5.5000 Du        
   7754 ****       -17.7500  -4.5000  -5.2500 Du        
   7755 ****       -17.7500  -4.5000  -5.0000 Du        
   7756 ****       -17.7500  -4.5000  -4.7500 Du        
   7757 ****       -17.7500  -4.5000  -4.5000 Du        
   7758 ****       -17.7500  -4.5000  -4.2500 Du        
   7759 ****       -17.7500  -4.5000  -4.0000 Du        
   7760 ****       -17.7500  -4.2500  -8.0000 Du        
   7761 ****       -17.7500  -4.2500  -7.7500 Du        
   7762 ****       -17.7500  -4.2500  -7.5000 Du        
   7763 ****       -17.7500  -4.2500  -7.2500 Du        
   7764 ****       -17.7500  -4.2500  -6.2500 Du        
   7765 ****       -17.7500  -4.2500  -6.0000 Du        
   7766 ****       -17.7500  -4.2500  -5.7500 Du        
   7767 ****       -17.7500  -4.2500  -5.5000 Du        
   7768 ****       -17.7500  -4.2500  -5.2500 Du        
   7769 ****       -17.7500  -4.2500  -5.0000 Du        
   7770 ****       -17.7500  -4.2500  -4.7500 Du        
   7771 ****       -17.7500  -4.2500  -4.5000 Du        
   7772 ****       -17.7500  -4.2500  -4.2500 Du        
   7773 ****       -17.7500  -4.0000  -8.0000 Du        
   7774 ****       -17.7500  -4.0000  -7.7500 Du        
   7775 ****       -17.7500  -4.0000  -7.5000 Du        
   7776 ****       -17.7500  -4.0000  -7.2500 Du        
   7777 ****       -17.7500  -4.0000  -7.0000 Du        
   7778 ****       -17.7500  -4.0000  -6.2500 Du        
   7779 ****       -17.7500  -4.0000  -6.0000 Du        
   7780 ****       -17.7500  -4.0000  -5.7500 Du        
   7781 ****       -17.7500  -4.0000  -5.5000 Du        
   7782 ****       -17.7500  -4.0000  -5.2500 Du        
   7783 ****       -17.7500  -4.0000  -5.0000 Du        
   7784 ****       -17.7500  -4.0000  -4.7500 Du        
   7785 ****       -17.7500  -4.0000  -4.5000 Du        
   7786 ****       -17.7500  -4.0000  -4.2500 Du        
   7787 ****       -17.7500  -3.7500  -8.0000 Du        
   7788 ****       -17.7500  -3.7500  -7.7500 Du        
   7789 ****       -17.7500  -3.7500  -7.5000 Du        
   7790 ****       -17.7500  -3.7500  -7.2500 Du        
   7791 ****       -17.7500  -3.7500  -6.0000 Du        
   7792 ****       -17.7500  -3.7500  -5.7500 Du        
   7793 ****       -17.7500  -3.7500  -5.5000 Du        
   7794 ****       -17.7500  -3.7500  -5.2500 Du        
   7795 ****       -17.7500  -3.7500  -5.0000 Du        
   7796 ****       -17.7500  -3.7500  -4.7500 Du        
   7797 ****       -17.7500  -3.7500  -4.5000 Du        
   7798 ****       -17.7500  -3.5000  -7.7500 Du        
   7799 ****       -17.7500  -3.5000  -7.5000 Du        
   7800 ****       -17.7500  -3.5000  -7.2500 Du        
   7801 ****       -17.7500  -3.5000  -7.0000 Du        
   7802 ****       -17.7500  -3.5000  -6.7500 Du        
   7803 ****       -17.7500  -3.5000  -5.5000 Du        
   7804 ****       -17.7500  -3.5000  -5.2500 Du        
   7805 ****       -17.7500  -3.5000  -5.0000 Du        
   7806 ****       -17.7500  -3.5000  -4.7500 Du        
   7807 ****       -17.7500  -3.2500  -8.0000 Du        
   7808 ****       -17.7500  -3.2500  -7.7500 Du        
   7809 ****       -17.7500  -3.2500  -7.5000 Du        
   7810 ****       -17.7500  -3.2500  -7.2500 Du        
   7811 ****       -17.7500  -3.2500  -7.0000 Du        
   7812 ****       -17.7500  -3.2500  -6.7500 Du        
   7813 ****       -17.7500  -3.2500  -6.0000 Du        
   7814 ****       -17.7500  -3.2500  -5.7500 Du        
   7815 ****       -17.7500  -3.2500  -5.5000 Du        
   7816 ****       -17.7500  -3.2500  -5.2500 Du        
   7817 ****       -17.7500  -3.2500  -5.0000 Du        
   7818 ****       -17.7500  -3.2500  -4.7500 Du        
   7819 ****       -17.7500  -3.0000  -8.0000 Du        
   7820 ****       -17.7500  -3.0000  -7.7500 Du        
   7821 ****       -17.7500  -3.0000  -7.5000 Du        
   7822 ****       -17.7500  -3.0000  -7.2500 Du        
   7823 ****       -17.7500  -3.0000  -7.0000 Du        
   7824 ****       -17.7500  -3.0000  -6.7500 Du        
   7825 ****       -17.7500  -3.0000  -6.2500 Du        
   7826 ****       -17.7500  -3.0000  -6.0000 Du        
   7827 ****       -17.7500  -3.0000  -5.7500 Du        
   7828 ****       -17.7500  -3.0000  -5.5000 Du        
   7829 ****       -17.7500  -3.0000  -5.2500 Du        
   7830 ****       -17.7500  -3.0000  -5.0000 Du        
   7831 ****       -17.7500  -2.7500  -8.0000 Du        
   7832 ****       -17.7500  -2.7500  -7.7500 Du        
   7833 ****       -17.7500  -2.7500  -7.5000 Du        
   7834 ****       -17.7500  -2.7500  -7.2500 Du        
   7835 ****       -17.7500  -2.7500  -7.0000 Du        
   7836 ****       -17.7500  -2.7500  -6.7500 Du        
   7837 ****       -17.7500  -2.7500  -6.5000 Du        
   7838 ****       -17.7500  -2.7500  -6.2500 Du        
   7839 ****       -17.7500  -2.7500  -6.0000 Du        
   7840 ****       -17.7500  -2.7500  -5.7500 Du        
   7841 ****       -17.7500  -2.7500  -5.5000 Du        
   7842 ****       -17.7500  -2.7500  -5.2500 Du        
   7843 ****       -17.7500  -2.7500  -5.0000 Du        
   7844 ****       -17.7500  -2.5000  -7.7500 Du        
   7845 ****       -17.7500  -2.5000  -7.5000 Du        
   7846 ****       -17.7500  -2.5000  -7.2500 Du        
   7847 ****       -17.7500  -2.5000  -7.0000 Du        
   7848 ****       -17.7500  -2.5000  -6.7500 Du        
   7849 ****       -17.7500  -2.5000  -6.5000 Du        
   7850 ****       -17.7500  -2.5000  -6.2500 Du        
   7851 ****       -17.7500  -2.5000  -6.0000 Du        
   7852 ****       -17.7500  -2.5000  -5.7500 Du        
   7853 ****       -17.7500  -2.5000  -5.5000 Du        
   7854 ****       -17.7500  -2.5000  -5.2500 Du        
   7855 ****       -17.7500  -2.2500  -7.5000 Du        
   7856 ****       -17.7500  -2.2500  -7.2500 Du        
   7857 ****       -17.7500  -2.2500  -7.0000 Du        
   7858 ****       -17.7500  -2.2500  -6.7500 Du        
   7859 ****       -17.7500  -2.2500  -6.5000 Du        
   7860 ****       -17.7500  -2.2500  -6.2500 Du        
   7861 ****       -17.7500  -2.2500  -6.0000 Du        
   7862 ****       -17.7500  -2.2500  -5.7500 Du        
   7863 ****       -17.7500  -2.2500  -5.5000 Du        
   7864 ****       -17.7500  -2.2500  -5.2500 Du        
   7865 ****       -17.7500  -2.0000  -7.5000 Du        
   7866 ****       -17.7500  -2.0000  -7.2500 Du        
   7867 ****       -17.7500  -2.0000  -7.0000 Du        
   7868 ****       -17.7500  -2.0000  -6.7500 Du        
   7869 ****       -17.7500  -2.0000  -6.5000 Du        
   7870 ****       -17.7500  -2.0000  -6.2500 Du        
   7871 ****       -17.7500  -2.0000  -6.0000 Du        
   7872 ****       -17.7500  -2.0000  -5.7500 Du        
   7873 ****       -17.7500  -2.0000  -5.5000 Du        
   7874 ****       -17.7500  -1.7500  -7.5000 Du        
   7875 ****       -17.7500  -1.7500  -7.2500 Du        
   7876 ****       -17.7500  -1.7500  -7.0000 Du        
   7877 ****       -17.7500  -1.7500  -6.7500 Du        
   7878 ****       -17.7500  -1.7500  -6.5000 Du        
   7879 ****       -17.7500  -1.7500  -6.2500 Du        
   7880 ****       -17.7500  -1.7500  -6.0000 Du        
   7881 ****       -17.7500  -1.7500  -5.7500 Du        
   7882 ****       -17.7500  -1.5000  -7.2500 Du        
   7883 ****       -17.7500  -1.5000  -7.0000 Du        
   7884 ****       -17.7500  -1.5000  -6.7500 Du        
   7885 ****       -17.7500  -1.5000  -6.5000 Du        
   7886 ****       -17.7500  -1.5000  -6.2500 Du        
   7887 ****       -17.7500  -1.5000  -6.0000 Du        
   7888 ****       -17.7500  -1.2500  -7.2500 Du        
   7889 ****       -17.7500  -1.2500  -7.0000 Du        
   7890 ****       -17.7500  -1.2500  -6.7500 Du        
   7891 ****       -17.7500  -1.2500  -6.5000 Du        
   7892 ****       -17.7500  -1.2500  -6.2500 Du        
   7893 ****       -17.7500  -1.0000  -7.0000 Du        
   7894 ****       -17.7500  -1.0000  -6.7500 Du        
   7895 ****       -17.7500  -0.7500  -7.0000 Du        
   7896 ****       -17.7500  -0.7500  -6.7500 Du        
   7897 ****       -17.7500   4.7500 -10.2500 Du        
   7898 ****       -17.7500   4.7500 -10.0000 Du        
   7899 ****       -17.7500   4.7500  -9.7500 Du        
   7900 ****       -17.7500   4.7500  -9.5000 Du        
   7901 ****       -17.7500   5.0000 -10.5000 Du        
   7902 ****       -17.7500   5.0000 -10.2500 Du        
   7903 ****       -17.7500   5.0000 -10.0000 Du        
   7904 ****       -17.7500   5.0000  -9.7500 Du        
   7905 ****       -17.7500   5.0000  -9.5000 Du        
   7906 ****       -17.7500   5.0000  -9.2500 Du        
   7907 ****       -17.7500   5.0000  -9.0000 Du        
   7908 ****       -17.7500   5.2500 -10.7500 Du        
   7909 ****       -17.7500   5.2500 -10.5000 Du        
   7910 ****       -17.7500   5.2500 -10.2500 Du        
   7911 ****       -17.7500   5.2500 -10.0000 Du        
   7912 ****       -17.7500   5.2500  -9.7500 Du        
   7913 ****       -17.7500   5.5000 -11.0000 Du        
   7914 ****       -17.7500   5.5000 -10.7500 Du        
   7915 ****       -17.7500   5.5000 -10.5000 Du        
   7916 ****       -17.7500   5.5000 -10.2500 Du        
   7917 ****       -17.7500   5.5000 -10.0000 Du        
   7918 ****       -17.7500   5.5000  -9.7500 Du        
   7919 ****       -17.7500   5.7500 -17.5000 Du        
   7920 ****       -17.7500   5.7500 -17.2500 Du        
   7921 ****       -17.7500   5.7500 -17.0000 Du        
   7922 ****       -17.7500   5.7500 -11.2500 Du        
   7923 ****       -17.7500   5.7500 -11.0000 Du        
   7924 ****       -17.7500   5.7500 -10.7500 Du        
   7925 ****       -17.7500   5.7500 -10.5000 Du        
   7926 ****       -17.7500   5.7500 -10.2500 Du        
   7927 ****       -17.7500   5.7500 -10.0000 Du        
   7928 ****       -17.7500   6.0000 -18.0000 Du        
   7929 ****       -17.7500   6.0000 -17.7500 Du        
   7930 ****       -17.7500   6.0000 -17.5000 Du        
   7931 ****       -17.7500   6.0000 -17.2500 Du        
   7932 ****       -17.7500   6.0000 -17.0000 Du        
   7933 ****       -17.7500   6.0000 -16.7500 Du        
   7934 ****       -17.7500   6.0000 -11.2500 Du        
   7935 ****       -17.7500   6.0000 -11.0000 Du        
   7936 ****       -17.7500   6.0000 -10.7500 Du        
   7937 ****       -17.7500   6.2500 -17.7500 Du        
   7938 ****       -17.7500   6.2500 -17.5000 Du        
   7939 ****       -17.7500   6.2500 -17.2500 Du        
   7940 ****       -17.7500   6.2500 -17.0000 Du        
   7941 ****       -17.7500   6.2500 -16.7500 Du        
   7942 ****       -17.7500   6.2500 -16.5000 Du        
   7943 ****       -17.7500   6.2500 -11.2500 Du        
   7944 ****       -17.7500   6.2500 -11.0000 Du        
   7945 ****       -17.7500   6.2500 -10.7500 Du        
   7946 ****       -17.7500   6.5000 -17.5000 Du        
   7947 ****       -17.7500   6.5000 -17.2500 Du        
   7948 ****       -17.7500   6.5000 -17.0000 Du        
   7949 ****       -17.7500   6.5000 -16.7500 Du        
   7950 ****       -17.5000 -20.0000  -8.5000 Du        
   7951 ****       -17.5000 -20.0000  -8.2500 Du        
   7952 ****       -17.5000 -20.0000  -8.0000 Du        
   7953 ****       -17.5000 -20.0000  -7.7500 Du        
   7954 ****       -17.5000 -19.7500  -8.7500 Du        
   7955 ****       -17.5000 -19.7500  -8.5000 Du        
   7956 ****       -17.5000 -19.7500  -8.2500 Du        
   7957 ****       -17.5000 -19.7500  -8.0000 Du        
   7958 ****       -17.5000 -19.7500  -7.7500 Du        
   7959 ****       -17.5000 -19.5000  -9.0000 Du        
   7960 ****       -17.5000 -19.5000  -8.7500 Du        
   7961 ****       -17.5000 -19.5000  -8.5000 Du        
   7962 ****       -17.5000 -19.5000  -8.2500 Du        
   7963 ****       -17.5000 -19.5000  -8.0000 Du        
   7964 ****       -17.5000 -19.5000  -7.7500 Du        
   7965 ****       -17.5000 -19.2500  -9.2500 Du        
   7966 ****       -17.5000 -19.2500  -9.0000 Du        
   7967 ****       -17.5000 -19.2500  -8.7500 Du        
   7968 ****       -17.5000 -19.2500  -8.5000 Du        
   7969 ****       -17.5000 -19.2500  -8.2500 Du        
   7970 ****       -17.5000 -19.2500  -8.0000 Du        
   7971 ****       -17.5000 -19.2500  -7.7500 Du        
   7972 ****       -17.5000 -19.2500  -7.5000 Du        
   7973 ****       -17.5000 -19.0000 -10.0000 Du        
   7974 ****       -17.5000 -19.0000  -9.7500 Du        
   7975 ****       -17.5000 -19.0000  -9.5000 Du        
   7976 ****       -17.5000 -19.0000  -9.2500 Du        
   7977 ****       -17.5000 -19.0000  -9.0000 Du        
   7978 ****       -17.5000 -19.0000  -8.7500 Du        
   7979 ****       -17.5000 -19.0000  -8.5000 Du        
   7980 ****       -17.5000 -19.0000  -8.2500 Du        
   7981 ****       -17.5000 -19.0000  -8.0000 Du        
   7982 ****       -17.5000 -19.0000  -7.7500 Du        
   7983 ****       -17.5000 -19.0000  -7.5000 Du        
   7984 ****       -17.5000 -18.7500 -11.2500 Du        
   7985 ****       -17.5000 -18.7500 -11.0000 Du        
   7986 ****       -17.5000 -18.7500 -10.7500 Du        
   7987 ****       -17.5000 -18.7500 -10.5000 Du        
   7988 ****       -17.5000 -18.7500 -10.2500 Du        
   7989 ****       -17.5000 -18.7500 -10.0000 Du        
   7990 ****       -17.5000 -18.7500  -9.7500 Du        
   7991 ****       -17.5000 -18.7500  -9.5000 Du        
   7992 ****       -17.5000 -18.7500  -9.2500 Du        
   7993 ****       -17.5000 -18.7500  -9.0000 Du        
   7994 ****       -17.5000 -18.7500  -8.7500 Du        
   7995 ****       -17.5000 -18.7500  -8.5000 Du        
   7996 ****       -17.5000 -18.7500  -8.2500 Du        
   7997 ****       -17.5000 -18.7500  -8.0000 Du        
   7998 ****       -17.5000 -18.7500  -7.7500 Du        
   7999 ****       -17.5000 -18.7500  -7.5000 Du        
   8000 ****       -17.5000 -18.7500  -7.2500 Du        
   8001 ****       -17.5000 -18.5000 -11.7500 Du        
   8002 ****       -17.5000 -18.5000 -11.5000 Du        
   8003 ****       -17.5000 -18.5000 -11.2500 Du        
   8004 ****       -17.5000 -18.5000 -11.0000 Du        
   8005 ****       -17.5000 -18.5000 -10.7500 Du        
   8006 ****       -17.5000 -18.5000 -10.5000 Du        
   8007 ****       -17.5000 -18.5000 -10.2500 Du        
   8008 ****       -17.5000 -18.5000 -10.0000 Du        
   8009 ****       -17.5000 -18.5000  -9.7500 Du        
   8010 ****       -17.5000 -18.5000  -9.5000 Du        
   8011 ****       -17.5000 -18.5000  -9.2500 Du        
   8012 ****       -17.5000 -18.5000  -9.0000 Du        
   8013 ****       -17.5000 -18.5000  -8.7500 Du        
   8014 ****       -17.5000 -18.5000  -8.5000 Du        
   8015 ****       -17.5000 -18.5000  -8.2500 Du        
   8016 ****       -17.5000 -18.5000  -8.0000 Du        
   8017 ****       -17.5000 -18.5000  -7.7500 Du        
   8018 ****       -17.5000 -18.5000  -7.5000 Du        
   8019 ****       -17.5000 -18.5000  -7.2500 Du        
   8020 ****       -17.5000 -18.5000  -7.0000 Du        
   8021 ****       -17.5000 -18.2500 -13.0000 Du        
   8022 ****       -17.5000 -18.2500 -12.7500 Du        
   8023 ****       -17.5000 -18.2500 -12.5000 Du        
   8024 ****       -17.5000 -18.2500 -12.2500 Du        
   8025 ****       -17.5000 -18.2500 -12.0000 Du        
   8026 ****       -17.5000 -18.2500 -11.7500 Du        
   8027 ****       -17.5000 -18.2500 -11.5000 Du        
   8028 ****       -17.5000 -18.2500 -11.2500 Du        
   8029 ****       -17.5000 -18.2500 -11.0000 Du        
   8030 ****       -17.5000 -18.2500 -10.7500 Du        
   8031 ****       -17.5000 -18.2500 -10.5000 Du        
   8032 ****       -17.5000 -18.2500 -10.2500 Du        
   8033 ****       -17.5000 -18.2500 -10.0000 Du        
   8034 ****       -17.5000 -18.2500  -9.7500 Du        
   8035 ****       -17.5000 -18.2500  -9.5000 Du        
   8036 ****       -17.5000 -18.2500  -9.2500 Du        
   8037 ****       -17.5000 -18.2500  -9.0000 Du        
   8038 ****       -17.5000 -18.2500  -8.7500 Du        
   8039 ****       -17.5000 -18.2500  -8.5000 Du        
   8040 ****       -17.5000 -18.2500  -8.2500 Du        
   8041 ****       -17.5000 -18.2500  -8.0000 Du        
   8042 ****       -17.5000 -18.2500  -7.7500 Du        
   8043 ****       -17.5000 -18.2500  -7.5000 Du        
   8044 ****       -17.5000 -18.2500  -7.2500 Du        
   8045 ****       -17.5000 -18.2500  -7.0000 Du        
   8046 ****       -17.5000 -18.2500  -6.7500 Du        
   8047 ****       -17.5000 -18.0000 -13.7500 Du        
   8048 ****       -17.5000 -18.0000 -13.5000 Du        
   8049 ****       -17.5000 -18.0000 -13.2500 Du        
   8050 ****       -17.5000 -18.0000 -13.0000 Du        
   8051 ****       -17.5000 -18.0000 -12.7500 Du        
   8052 ****       -17.5000 -18.0000 -12.5000 Du        
   8053 ****       -17.5000 -18.0000 -12.2500 Du        
   8054 ****       -17.5000 -18.0000 -12.0000 Du        
   8055 ****       -17.5000 -18.0000 -11.7500 Du        
   8056 ****       -17.5000 -18.0000 -11.5000 Du        
   8057 ****       -17.5000 -18.0000 -11.2500 Du        
   8058 ****       -17.5000 -18.0000 -11.0000 Du        
   8059 ****       -17.5000 -18.0000 -10.7500 Du        
   8060 ****       -17.5000 -18.0000 -10.5000 Du        
   8061 ****       -17.5000 -18.0000 -10.2500 Du        
   8062 ****       -17.5000 -18.0000 -10.0000 Du        
   8063 ****       -17.5000 -18.0000  -9.7500 Du        
   8064 ****       -17.5000 -18.0000  -9.5000 Du        
   8065 ****       -17.5000 -18.0000  -9.2500 Du        
   8066 ****       -17.5000 -18.0000  -9.0000 Du        
   8067 ****       -17.5000 -18.0000  -8.7500 Du        
   8068 ****       -17.5000 -18.0000  -8.5000 Du        
   8069 ****       -17.5000 -18.0000  -8.2500 Du        
   8070 ****       -17.5000 -18.0000  -8.0000 Du        
   8071 ****       -17.5000 -18.0000  -7.7500 Du        
   8072 ****       -17.5000 -18.0000  -7.5000 Du        
   8073 ****       -17.5000 -18.0000  -7.2500 Du        
   8074 ****       -17.5000 -18.0000  -7.0000 Du        
   8075 ****       -17.5000 -18.0000  -6.7500 Du        
   8076 ****       -17.5000 -17.7500 -13.7500 Du        
   8077 ****       -17.5000 -17.7500 -13.5000 Du        
   8078 ****       -17.5000 -17.7500 -13.2500 Du        
   8079 ****       -17.5000 -17.7500 -13.0000 Du        
   8080 ****       -17.5000 -17.7500 -12.7500 Du        
   8081 ****       -17.5000 -17.7500 -12.5000 Du        
   8082 ****       -17.5000 -17.7500 -12.2500 Du        
   8083 ****       -17.5000 -17.7500 -12.0000 Du        
   8084 ****       -17.5000 -17.7500 -11.7500 Du        
   8085 ****       -17.5000 -17.7500 -11.5000 Du        
   8086 ****       -17.5000 -17.7500 -11.2500 Du        
   8087 ****       -17.5000 -17.7500 -11.0000 Du        
   8088 ****       -17.5000 -17.7500 -10.7500 Du        
   8089 ****       -17.5000 -17.7500 -10.5000 Du        
   8090 ****       -17.5000 -17.7500 -10.2500 Du        
   8091 ****       -17.5000 -17.7500 -10.0000 Du        
   8092 ****       -17.5000 -17.7500  -9.7500 Du        
   8093 ****       -17.5000 -17.7500  -9.5000 Du        
   8094 ****       -17.5000 -17.7500  -9.2500 Du        
   8095 ****       -17.5000 -17.7500  -9.0000 Du        
   8096 ****       -17.5000 -17.7500  -8.7500 Du        
   8097 ****       -17.5000 -17.7500  -8.5000 Du        
   8098 ****       -17.5000 -17.7500  -8.2500 Du        
   8099 ****       -17.5000 -17.7500  -8.0000 Du        
   8100 ****       -17.5000 -17.7500  -7.7500 Du        
   8101 ****       -17.5000 -17.7500  -7.5000 Du        
   8102 ****       -17.5000 -17.7500  -7.2500 Du        
   8103 ****       -17.5000 -17.7500  -7.0000 Du        
   8104 ****       -17.5000 -17.5000 -13.7500 Du        
   8105 ****       -17.5000 -17.5000 -13.5000 Du        
   8106 ****       -17.5000 -17.5000 -13.2500 Du        
   8107 ****       -17.5000 -17.5000 -13.0000 Du        
   8108 ****       -17.5000 -17.5000 -12.7500 Du        
   8109 ****       -17.5000 -17.5000 -12.5000 Du        
   8110 ****       -17.5000 -17.5000 -12.2500 Du        
   8111 ****       -17.5000 -17.5000 -12.0000 Du        
   8112 ****       -17.5000 -17.5000 -11.7500 Du        
   8113 ****       -17.5000 -17.5000  -8.7500 Du        
   8114 ****       -17.5000 -17.2500 -23.7500 Du        
   8115 ****       -17.5000 -17.2500 -13.7500 Du        
   8116 ****       -17.5000 -17.2500 -13.5000 Du        
   8117 ****       -17.5000 -17.2500 -13.2500 Du        
   8118 ****       -17.5000 -17.2500 -13.0000 Du        
   8119 ****       -17.5000 -17.2500 -12.7500 Du        
   8120 ****       -17.5000 -17.2500 -12.5000 Du        
   8121 ****       -17.5000 -17.2500 -12.2500 Du        
   8122 ****       -17.5000 -17.0000 -25.5000 Du        
   8123 ****       -17.5000 -17.0000 -25.2500 Du        
   8124 ****       -17.5000 -17.0000 -25.0000 Du        
   8125 ****       -17.5000 -17.0000 -24.7500 Du        
   8126 ****       -17.5000 -17.0000 -24.2500 Du        
   8127 ****       -17.5000 -17.0000 -24.0000 Du        
   8128 ****       -17.5000 -17.0000 -23.7500 Du        
   8129 ****       -17.5000 -17.0000 -13.7500 Du        
   8130 ****       -17.5000 -17.0000 -13.5000 Du        
   8131 ****       -17.5000 -17.0000 -13.2500 Du        
   8132 ****       -17.5000 -17.0000 -13.0000 Du        
   8133 ****       -17.5000 -17.0000 -12.7500 Du        
   8134 ****       -17.5000 -16.7500 -25.7500 Du        
   8135 ****       -17.5000 -16.7500 -25.5000 Du        
   8136 ****       -17.5000 -16.7500 -25.2500 Du        
   8137 ****       -17.5000 -16.7500 -25.0000 Du        
   8138 ****       -17.5000 -16.7500 -24.7500 Du        
   8139 ****       -17.5000 -16.7500 -24.5000 Du        
   8140 ****       -17.5000 -16.7500 -24.2500 Du        
   8141 ****       -17.5000 -16.7500 -24.0000 Du        
   8142 ****       -17.5000 -16.7500 -23.7500 Du        
   8143 ****       -17.5000 -16.7500 -13.5000 Du        
   8144 ****       -17.5000 -16.7500 -13.2500 Du        
   8145 ****       -17.5000 -16.7500 -13.0000 Du        
   8146 ****       -17.5000 -16.7500 -12.7500 Du        
   8147 ****       -17.5000 -16.5000 -25.7500 Du        
   8148 ****       -17.5000 -16.5000 -25.5000 Du        
   8149 ****       -17.5000 -16.5000 -25.2500 Du        
   8150 ****       -17.5000 -16.5000 -25.0000 Du        
   8151 ****       -17.5000 -16.5000 -24.7500 Du        
   8152 ****       -17.5000 -16.5000 -24.5000 Du        
   8153 ****       -17.5000 -16.5000 -24.2500 Du        
   8154 ****       -17.5000 -16.5000 -24.0000 Du        
   8155 ****       -17.5000 -16.5000   3.2500 Du        
   8156 ****       -17.5000 -16.5000   3.5000 Du        
   8157 ****       -17.5000 -16.5000   3.7500 Du        
   8158 ****       -17.5000 -16.5000   4.0000 Du        
   8159 ****       -17.5000 -16.2500 -25.7500 Du        
   8160 ****       -17.5000 -16.2500 -25.5000 Du        
   8161 ****       -17.5000 -16.2500 -25.2500 Du        
   8162 ****       -17.5000 -16.2500 -25.0000 Du        
   8163 ****       -17.5000 -16.2500 -24.7500 Du        
   8164 ****       -17.5000 -16.2500 -24.5000 Du        
   8165 ****       -17.5000 -16.2500 -24.2500 Du        
   8166 ****       -17.5000 -16.2500 -24.0000 Du        
   8167 ****       -17.5000 -16.2500   3.2500 Du        
   8168 ****       -17.5000 -16.2500   3.5000 Du        
   8169 ****       -17.5000 -16.2500   3.7500 Du        
   8170 ****       -17.5000 -16.2500   4.0000 Du        
   8171 ****       -17.5000 -16.0000 -25.7500 Du        
   8172 ****       -17.5000 -16.0000 -25.5000 Du        
   8173 ****       -17.5000 -16.0000 -25.2500 Du        
   8174 ****       -17.5000 -16.0000 -25.0000 Du        
   8175 ****       -17.5000 -16.0000 -24.7500 Du        
   8176 ****       -17.5000 -16.0000 -24.5000 Du        
   8177 ****       -17.5000 -16.0000 -24.2500 Du        
   8178 ****       -17.5000 -16.0000 -24.0000 Du        
   8179 ****       -17.5000 -16.0000   3.2500 Du        
   8180 ****       -17.5000 -16.0000   3.5000 Du        
   8181 ****       -17.5000 -16.0000   3.7500 Du        
   8182 ****       -17.5000 -16.0000   4.0000 Du        
   8183 ****       -17.5000 -15.7500 -25.5000 Du        
   8184 ****       -17.5000 -15.7500 -25.2500 Du        
   8185 ****       -17.5000 -15.7500 -25.0000 Du        
   8186 ****       -17.5000 -15.7500 -24.7500 Du        
   8187 ****       -17.5000 -15.7500 -24.5000 Du        
   8188 ****       -17.5000 -15.7500 -24.2500 Du        
   8189 ****       -17.5000 -15.7500 -24.0000 Du        
   8190 ****       -17.5000 -15.7500   3.5000 Du        
   8191 ****       -17.5000 -15.7500   3.7500 Du        
   8192 ****       -17.5000 -15.7500   4.0000 Du        
   8193 ****       -17.5000 -15.5000 -25.2500 Du        
   8194 ****       -17.5000 -15.5000 -25.0000 Du        
   8195 ****       -17.5000 -15.5000 -24.7500 Du        
   8196 ****       -17.5000 -15.5000 -24.5000 Du        
   8197 ****       -17.5000 -15.5000 -24.2500 Du        
   8198 ****       -17.5000 -15.5000 -24.0000 Du        
   8199 ****       -17.5000 -15.5000   3.5000 Du        
   8200 ****       -17.5000 -15.5000   3.7500 Du        
   8201 ****       -17.5000 -15.2500 -24.7500 Du        
   8202 ****       -17.5000 -15.2500 -24.2500 Du        
   8203 ****       -17.5000 -12.7500 -16.7500 Du        
   8204 ****       -17.5000 -11.5000 -11.7500 Du        
   8205 ****       -17.5000 -11.5000 -11.5000 Du        
   8206 ****       -17.5000 -11.5000 -11.2500 Du        
   8207 ****       -17.5000 -11.5000 -11.0000 Du        
   8208 ****       -17.5000 -11.5000 -10.7500 Du        
   8209 ****       -17.5000 -11.2500 -12.0000 Du        
   8210 ****       -17.5000 -11.2500 -11.7500 Du        
   8211 ****       -17.5000 -11.2500 -11.5000 Du        
   8212 ****       -17.5000 -11.2500 -11.2500 Du        
   8213 ****       -17.5000 -11.2500 -11.0000 Du        
   8214 ****       -17.5000 -11.2500 -10.7500 Du        
   8215 ****       -17.5000 -11.0000 -12.0000 Du        
   8216 ****       -17.5000 -11.0000 -11.7500 Du        
   8217 ****       -17.5000 -11.0000 -11.5000 Du        
   8218 ****       -17.5000 -11.0000 -11.2500 Du        
   8219 ****       -17.5000 -11.0000 -11.0000 Du        
   8220 ****       -17.5000 -11.0000 -10.7500 Du        
   8221 ****       -17.5000 -10.7500 -11.7500 Du        
   8222 ****       -17.5000 -10.7500 -11.5000 Du        
   8223 ****       -17.5000 -10.7500 -11.2500 Du        
   8224 ****       -17.5000 -10.7500 -11.0000 Du        
   8225 ****       -17.5000 -10.7500 -10.7500 Du        
   8226 ****       -17.5000 -10.5000 -11.5000 Du        
   8227 ****       -17.5000 -10.5000 -11.2500 Du        
   8228 ****       -17.5000 -10.5000 -11.0000 Du        
   8229 ****       -17.5000 -10.5000 -10.7500 Du        
   8230 ****       -17.5000 -10.2500 -11.2500 Du        
   8231 ****       -17.5000 -10.2500 -11.0000 Du        
   8232 ****       -17.5000 -10.2500 -10.7500 Du        
   8233 ****       -17.5000 -10.0000 -10.7500 Du        
   8234 ****       -17.5000 -10.0000 -10.5000 Du        
   8235 ****       -17.5000  -8.2500  -8.5000 Du        
   8236 ****       -17.5000  -8.0000  -8.5000 Du        
   8237 ****       -17.5000  -8.0000  -8.2500 Du        
   8238 ****       -17.5000  -7.7500  -8.2500 Du        
   8239 ****       -17.5000  -7.7500  -8.0000 Du        
   8240 ****       -17.5000  -7.5000  -8.2500 Du        
   8241 ****       -17.5000  -7.5000  -8.0000 Du        
   8242 ****       -17.5000  -7.2500  -8.0000 Du        
   8243 ****       -17.5000  -7.2500  -7.7500 Du        
   8244 ****       -17.5000  -7.0000  -8.0000 Du        
   8245 ****       -17.5000  -7.0000  -7.7500 Du        
   8246 ****       -17.5000  -7.0000  -7.5000 Du        
   8247 ****       -17.5000  -6.7500  -8.0000 Du        
   8248 ****       -17.5000  -6.7500  -7.7500 Du        
   8249 ****       -17.5000  -6.7500  -7.5000 Du        
   8250 ****       -17.5000  -6.7500  -7.2500 Du        
   8251 ****       -17.5000  -6.5000  -8.0000 Du        
   8252 ****       -17.5000  -6.5000  -7.7500 Du        
   8253 ****       -17.5000  -6.5000  -7.5000 Du        
   8254 ****       -17.5000  -6.5000  -7.2500 Du        
   8255 ****       -17.5000  -6.5000  -7.0000 Du        
   8256 ****       -17.5000  -6.5000  -6.7500 Du        
   8257 ****       -17.5000  -6.2500  -8.0000 Du        
   8258 ****       -17.5000  -6.2500  -7.7500 Du        
   8259 ****       -17.5000  -6.2500  -7.5000 Du        
   8260 ****       -17.5000  -6.2500  -7.2500 Du        
   8261 ****       -17.5000  -6.2500  -7.0000 Du        
   8262 ****       -17.5000  -6.2500  -6.7500 Du        
   8263 ****       -17.5000  -6.2500  -6.5000 Du        
   8264 ****       -17.5000  -6.2500  -6.2500 Du        
   8265 ****       -17.5000  -6.2500  -6.0000 Du        
   8266 ****       -17.5000  -6.0000  -8.0000 Du        
   8267 ****       -17.5000  -6.0000  -7.7500 Du        
   8268 ****       -17.5000  -6.0000  -7.5000 Du        
   8269 ****       -17.5000  -6.0000  -7.2500 Du        
   8270 ****       -17.5000  -6.0000  -7.0000 Du        
   8271 ****       -17.5000  -6.0000  -6.7500 Du        
   8272 ****       -17.5000  -6.0000  -6.5000 Du        
   8273 ****       -17.5000  -6.0000  -6.2500 Du        
   8274 ****       -17.5000  -6.0000  -6.0000 Du        
   8275 ****       -17.5000  -6.0000  -5.7500 Du        
   8276 ****       -17.5000  -6.0000  -5.5000 Du        
   8277 ****       -17.5000  -6.0000  -5.2500 Du        
   8278 ****       -17.5000  -5.7500  -8.0000 Du        
   8279 ****       -17.5000  -5.7500  -7.7500 Du        
   8280 ****       -17.5000  -5.7500  -7.5000 Du        
   8281 ****       -17.5000  -5.7500  -7.2500 Du        
   8282 ****       -17.5000  -5.7500  -7.0000 Du        
   8283 ****       -17.5000  -5.7500  -6.7500 Du        
   8284 ****       -17.5000  -5.7500  -6.5000 Du        
   8285 ****       -17.5000  -5.7500  -6.2500 Du        
   8286 ****       -17.5000  -5.7500  -6.0000 Du        
   8287 ****       -17.5000  -5.7500  -5.7500 Du        
   8288 ****       -17.5000  -5.7500  -5.5000 Du        
   8289 ****       -17.5000  -5.7500  -5.2500 Du        
   8290 ****       -17.5000  -5.7500  -5.0000 Du        
   8291 ****       -17.5000  -5.7500  -4.7500 Du        
   8292 ****       -17.5000  -5.7500  -4.5000 Du        
   8293 ****       -17.5000  -5.5000  -8.0000 Du        
   8294 ****       -17.5000  -5.5000  -7.7500 Du        
   8295 ****       -17.5000  -5.5000  -7.5000 Du        
   8296 ****       -17.5000  -5.5000  -7.2500 Du        
   8297 ****       -17.5000  -5.5000  -7.0000 Du        
   8298 ****       -17.5000  -5.5000  -6.7500 Du        
   8299 ****       -17.5000  -5.5000  -6.5000 Du        
   8300 ****       -17.5000  -5.5000  -6.2500 Du        
   8301 ****       -17.5000  -5.5000  -6.0000 Du        
   8302 ****       -17.5000  -5.5000  -5.7500 Du        
   8303 ****       -17.5000  -5.5000  -5.5000 Du        
   8304 ****       -17.5000  -5.5000  -5.2500 Du        
   8305 ****       -17.5000  -5.5000  -5.0000 Du        
   8306 ****       -17.5000  -5.5000  -4.7500 Du        
   8307 ****       -17.5000  -5.5000  -4.5000 Du        
   8308 ****       -17.5000  -5.5000  -4.2500 Du        
   8309 ****       -17.5000  -5.5000  -4.0000 Du        
   8310 ****       -17.5000  -5.2500  -8.0000 Du        
   8311 ****       -17.5000  -5.2500  -7.7500 Du        
   8312 ****       -17.5000  -5.2500  -7.5000 Du        
   8313 ****       -17.5000  -5.2500  -7.2500 Du        
   8314 ****       -17.5000  -5.2500  -7.0000 Du        
   8315 ****       -17.5000  -5.2500  -6.7500 Du        
   8316 ****       -17.5000  -5.2500  -6.5000 Du        
   8317 ****       -17.5000  -5.2500  -6.2500 Du        
   8318 ****       -17.5000  -5.2500  -6.0000 Du        
   8319 ****       -17.5000  -5.2500  -5.7500 Du        
   8320 ****       -17.5000  -5.2500  -5.5000 Du        
   8321 ****       -17.5000  -5.2500  -5.2500 Du        
   8322 ****       -17.5000  -5.2500  -5.0000 Du        
   8323 ****       -17.5000  -5.2500  -4.7500 Du        
   8324 ****       -17.5000  -5.2500  -4.5000 Du        
   8325 ****       -17.5000  -5.2500  -4.2500 Du        
   8326 ****       -17.5000  -5.2500  -4.0000 Du        
   8327 ****       -17.5000  -5.2500  -3.7500 Du        
   8328 ****       -17.5000  -5.0000  -8.0000 Du        
   8329 ****       -17.5000  -5.0000  -7.7500 Du        
   8330 ****       -17.5000  -5.0000  -7.5000 Du        
   8331 ****       -17.5000  -5.0000  -7.2500 Du        
   8332 ****       -17.5000  -5.0000  -7.0000 Du        
   8333 ****       -17.5000  -5.0000  -6.7500 Du        
   8334 ****       -17.5000  -5.0000  -6.5000 Du        
   8335 ****       -17.5000  -5.0000  -6.0000 Du        
   8336 ****       -17.5000  -5.0000  -5.7500 Du        
   8337 ****       -17.5000  -5.0000  -5.5000 Du        
   8338 ****       -17.5000  -5.0000  -5.2500 Du        
   8339 ****       -17.5000  -5.0000  -5.0000 Du        
   8340 ****       -17.5000  -5.0000  -4.7500 Du        
   8341 ****       -17.5000  -5.0000  -4.5000 Du        
   8342 ****       -17.5000  -5.0000  -4.2500 Du        
   8343 ****       -17.5000  -5.0000  -4.0000 Du        
   8344 ****       -17.5000  -5.0000  -3.7500 Du        
   8345 ****       -17.5000  -4.7500  -8.0000 Du        
   8346 ****       -17.5000  -4.7500  -7.7500 Du        
   8347 ****       -17.5000  -4.7500  -7.5000 Du        
   8348 ****       -17.5000  -4.7500  -7.2500 Du        
   8349 ****       -17.5000  -4.7500  -7.0000 Du        
   8350 ****       -17.5000  -4.7500  -5.5000 Du        
   8351 ****       -17.5000  -4.7500  -5.2500 Du        
   8352 ****       -17.5000  -4.7500  -5.0000 Du        
   8353 ****       -17.5000  -4.7500  -4.7500 Du        
   8354 ****       -17.5000  -4.7500  -4.5000 Du        
   8355 ****       -17.5000  -4.7500  -4.2500 Du        
   8356 ****       -17.5000  -4.7500  -4.0000 Du        
   8357 ****       -17.5000  -4.7500  -3.7500 Du        
   8358 ****       -17.5000  -4.5000  -7.7500 Du        
   8359 ****       -17.5000  -4.5000  -7.5000 Du        
   8360 ****       -17.5000  -4.5000  -7.2500 Du        
   8361 ****       -17.5000  -4.5000  -5.2500 Du        
   8362 ****       -17.5000  -4.5000  -5.0000 Du        
   8363 ****       -17.5000  -4.5000  -4.7500 Du        
   8364 ****       -17.5000  -4.5000  -4.5000 Du        
   8365 ****       -17.5000  -4.5000  -4.2500 Du        
   8366 ****       -17.5000  -4.5000  -4.0000 Du        
   8367 ****       -17.5000  -4.2500  -7.7500 Du        
   8368 ****       -17.5000  -4.2500  -7.5000 Du        
   8369 ****       -17.5000  -4.2500  -5.0000 Du        
   8370 ****       -17.5000  -4.2500  -4.7500 Du        
   8371 ****       -17.5000  -4.2500  -4.5000 Du        
   8372 ****       -17.5000  -4.2500  -4.2500 Du        
   8373 ****       -17.5000  -4.0000  -7.7500 Du        
   8374 ****       -17.5000  -4.0000  -7.5000 Du        
   8375 ****       -17.5000  -4.0000  -7.2500 Du        
   8376 ****       -17.5000  -4.0000  -5.0000 Du        
   8377 ****       -17.5000  -4.0000  -4.7500 Du        
   8378 ****       -17.5000  -4.0000  -4.5000 Du        
   8379 ****       -17.5000  -3.7500  -7.7500 Du        
   8380 ****       -17.5000  -3.7500  -7.5000 Du        
   8381 ****       -17.5000  -3.7500  -7.2500 Du        
   8382 ****       -17.5000  -3.7500  -5.0000 Du        
   8383 ****       -17.5000  -3.7500  -4.7500 Du        
   8384 ****       -17.5000  -3.7500  -4.5000 Du        
   8385 ****       -17.5000  -3.5000  -7.7500 Du        
   8386 ****       -17.5000  -3.5000  -7.5000 Du        
   8387 ****       -17.5000  -3.5000  -7.2500 Du        
   8388 ****       -17.5000  -3.5000  -7.0000 Du        
   8389 ****       -17.5000  -3.5000  -5.2500 Du        
   8390 ****       -17.5000  -3.5000  -5.0000 Du        
   8391 ****       -17.5000  -3.2500  -7.7500 Du        
   8392 ****       -17.5000  -3.2500  -7.5000 Du        
   8393 ****       -17.5000  -3.2500  -7.2500 Du        
   8394 ****       -17.5000  -3.2500  -7.0000 Du        
   8395 ****       -17.5000  -3.2500  -6.7500 Du        
   8396 ****       -17.5000  -3.2500  -5.2500 Du        
   8397 ****       -17.5000  -3.2500  -5.0000 Du        
   8398 ****       -17.5000  -3.0000  -8.0000 Du        
   8399 ****       -17.5000  -3.0000  -7.7500 Du        
   8400 ****       -17.5000  -3.0000  -7.5000 Du        
   8401 ****       -17.5000  -3.0000  -7.2500 Du        
   8402 ****       -17.5000  -3.0000  -7.0000 Du        
   8403 ****       -17.5000  -3.0000  -6.7500 Du        
   8404 ****       -17.5000  -3.0000  -6.5000 Du        
   8405 ****       -17.5000  -3.0000  -6.2500 Du        
   8406 ****       -17.5000  -3.0000  -6.0000 Du        
   8407 ****       -17.5000  -3.0000  -5.7500 Du        
   8408 ****       -17.5000  -3.0000  -5.5000 Du        
   8409 ****       -17.5000  -3.0000  -5.2500 Du        
   8410 ****       -17.5000  -2.7500  -8.0000 Du        
   8411 ****       -17.5000  -2.7500  -7.7500 Du        
   8412 ****       -17.5000  -2.7500  -7.5000 Du        
   8413 ****       -17.5000  -2.7500  -7.2500 Du        
   8414 ****       -17.5000  -2.7500  -7.0000 Du        
   8415 ****       -17.5000  -2.7500  -6.7500 Du        
   8416 ****       -17.5000  -2.7500  -6.5000 Du        
   8417 ****       -17.5000  -2.7500  -6.2500 Du        
   8418 ****       -17.5000  -2.7500  -6.0000 Du        
   8419 ****       -17.5000  -2.7500  -5.7500 Du        
   8420 ****       -17.5000  -2.7500  -5.5000 Du        
   8421 ****       -17.5000  -2.7500  -5.2500 Du        
   8422 ****       -17.5000  -2.5000  -7.7500 Du        
   8423 ****       -17.5000  -2.5000  -7.5000 Du        
   8424 ****       -17.5000  -2.5000  -7.2500 Du        
   8425 ****       -17.5000  -2.5000  -7.0000 Du        
   8426 ****       -17.5000  -2.5000  -6.7500 Du        
   8427 ****       -17.5000  -2.5000  -6.5000 Du        
   8428 ****       -17.5000  -2.5000  -6.2500 Du        
   8429 ****       -17.5000  -2.5000  -6.0000 Du        
   8430 ****       -17.5000  -2.5000  -5.7500 Du        
   8431 ****       -17.5000  -2.5000  -5.5000 Du        
   8432 ****       -17.5000  -2.2500  -7.7500 Du        
   8433 ****       -17.5000  -2.2500  -7.5000 Du        
   8434 ****       -17.5000  -2.2500  -7.2500 Du        
   8435 ****       -17.5000  -2.2500  -7.0000 Du        
   8436 ****       -17.5000  -2.2500  -6.7500 Du        
   8437 ****       -17.5000  -2.2500  -6.5000 Du        
   8438 ****       -17.5000  -2.2500  -6.2500 Du        
   8439 ****       -17.5000  -2.2500  -6.0000 Du        
   8440 ****       -17.5000  -2.2500  -5.7500 Du        
   8441 ****       -17.5000  -2.2500  -5.5000 Du        
   8442 ****       -17.5000  -2.0000  -7.5000 Du        
   8443 ****       -17.5000  -2.0000  -7.2500 Du        
   8444 ****       -17.5000  -2.0000  -7.0000 Du        
   8445 ****       -17.5000  -2.0000  -6.7500 Du        
   8446 ****       -17.5000  -2.0000  -6.5000 Du        
   8447 ****       -17.5000  -2.0000  -6.2500 Du        
   8448 ****       -17.5000  -2.0000  -6.0000 Du        
   8449 ****       -17.5000  -2.0000  -5.7500 Du        
   8450 ****       -17.5000  -1.7500  -7.5000 Du        
   8451 ****       -17.5000  -1.7500  -7.2500 Du        
   8452 ****       -17.5000  -1.7500  -7.0000 Du        
   8453 ****       -17.5000  -1.7500  -6.7500 Du        
   8454 ****       -17.5000  -1.7500  -6.5000 Du        
   8455 ****       -17.5000  -1.7500  -6.2500 Du        
   8456 ****       -17.5000  -1.7500  -6.0000 Du        
   8457 ****       -17.5000  -1.5000  -7.2500 Du        
   8458 ****       -17.5000  -1.5000  -7.0000 Du        
   8459 ****       -17.5000  -1.5000  -6.7500 Du        
   8460 ****       -17.5000  -1.5000  -6.5000 Du        
   8461 ****       -17.5000  -1.5000  -6.2500 Du        
   8462 ****       -17.5000  -1.2500  -7.2500 Du        
   8463 ****       -17.5000  -1.2500  -7.0000 Du        
   8464 ****       -17.5000  -1.2500  -6.7500 Du        
   8465 ****       -17.5000  -1.2500  -6.5000 Du        
   8466 ****       -17.5000  -1.2500  -6.2500 Du        
   8467 ****       -17.5000  -1.0000  -7.2500 Du        
   8468 ****       -17.5000  -1.0000  -7.0000 Du        
   8469 ****       -17.5000  -1.0000  -6.7500 Du        
   8470 ****       -17.5000  -0.7500  -7.0000 Du        
   8471 ****       -17.5000  -0.7500  -6.7500 Du        
   8472 ****       -17.5000   4.7500 -10.2500 Du        
   8473 ****       -17.5000   4.7500 -10.0000 Du        
   8474 ****       -17.5000   4.7500  -9.7500 Du        
   8475 ****       -17.5000   4.7500  -9.5000 Du        
   8476 ****       -17.5000   4.7500  -9.2500 Du        
   8477 ****       -17.5000   4.7500  -9.0000 Du        
   8478 ****       -17.5000   4.7500  -8.7500 Du        
   8479 ****       -17.5000   5.0000 -10.7500 Du        
   8480 ****       -17.5000   5.0000 -10.5000 Du        
   8481 ****       -17.5000   5.0000 -10.2500 Du        
   8482 ****       -17.5000   5.0000 -10.0000 Du        
   8483 ****       -17.5000   5.0000  -9.7500 Du        
   8484 ****       -17.5000   5.0000  -9.5000 Du        
   8485 ****       -17.5000   5.0000  -9.2500 Du        
   8486 ****       -17.5000   5.0000  -9.0000 Du        
   8487 ****       -17.5000   5.0000  -8.7500 Du        
   8488 ****       -17.5000   5.2500 -11.0000 Du        
   8489 ****       -17.5000   5.2500 -10.7500 Du        
   8490 ****       -17.5000   5.2500 -10.5000 Du        
   8491 ****       -17.5000   5.2500 -10.2500 Du        
   8492 ****       -17.5000   5.2500 -10.0000 Du        
   8493 ****       -17.5000   5.2500  -9.7500 Du        
   8494 ****       -17.5000   5.2500  -9.5000 Du        
   8495 ****       -17.5000   5.2500  -9.2500 Du        
   8496 ****       -17.5000   5.2500  -9.0000 Du        
   8497 ****       -17.5000   5.2500  -8.7500 Du        
   8498 ****       -17.5000   5.5000 -17.5000 Du        
   8499 ****       -17.5000   5.5000 -17.2500 Du        
   8500 ****       -17.5000   5.5000 -11.2500 Du        
   8501 ****       -17.5000   5.5000 -11.0000 Du        
   8502 ****       -17.5000   5.5000 -10.7500 Du        
   8503 ****       -17.5000   5.5000 -10.5000 Du        
   8504 ****       -17.5000   5.5000 -10.2500 Du        
   8505 ****       -17.5000   5.5000 -10.0000 Du        
   8506 ****       -17.5000   5.5000  -9.7500 Du        
   8507 ****       -17.5000   5.5000  -9.5000 Du        
   8508 ****       -17.5000   5.7500 -17.7500 Du        
   8509 ****       -17.5000   5.7500 -17.5000 Du        
   8510 ****       -17.5000   5.7500 -17.2500 Du        
   8511 ****       -17.5000   5.7500 -17.0000 Du        
   8512 ****       -17.5000   5.7500 -11.2500 Du        
   8513 ****       -17.5000   5.7500 -11.0000 Du        
   8514 ****       -17.5000   5.7500 -10.7500 Du        
   8515 ****       -17.5000   5.7500 -10.5000 Du        
   8516 ****       -17.5000   5.7500 -10.2500 Du        
   8517 ****       -17.5000   5.7500 -10.0000 Du        
   8518 ****       -17.5000   5.7500  -9.7500 Du        
   8519 ****       -17.5000   6.0000 -18.0000 Du        
   8520 ****       -17.5000   6.0000 -17.7500 Du        
   8521 ****       -17.5000   6.0000 -17.5000 Du        
   8522 ****       -17.5000   6.0000 -17.2500 Du        
   8523 ****       -17.5000   6.0000 -17.0000 Du        
   8524 ****       -17.5000   6.0000 -16.7500 Du        
   8525 ****       -17.5000   6.0000 -11.2500 Du        
   8526 ****       -17.5000   6.0000 -11.0000 Du        
   8527 ****       -17.5000   6.0000 -10.7500 Du        
   8528 ****       -17.5000   6.0000 -10.5000 Du        
   8529 ****       -17.5000   6.0000 -10.2500 Du        
   8530 ****       -17.5000   6.0000 -10.0000 Du        
   8531 ****       -17.5000   6.0000  -9.7500 Du        
   8532 ****       -17.5000   6.2500 -18.0000 Du        
   8533 ****       -17.5000   6.2500 -17.7500 Du        
   8534 ****       -17.5000   6.2500 -17.5000 Du        
   8535 ****       -17.5000   6.2500 -17.2500 Du        
   8536 ****       -17.5000   6.2500 -17.0000 Du        
   8537 ****       -17.5000   6.2500 -16.7500 Du        
   8538 ****       -17.5000   6.2500 -16.5000 Du        
   8539 ****       -17.5000   6.2500 -11.2500 Du        
   8540 ****       -17.5000   6.2500 -11.0000 Du        
   8541 ****       -17.5000   6.2500 -10.7500 Du        
   8542 ****       -17.5000   6.2500 -10.5000 Du        
   8543 ****       -17.5000   6.2500 -10.2500 Du        
   8544 ****       -17.5000   6.5000 -17.5000 Du        
   8545 ****       -17.5000   6.5000 -17.2500 Du        
   8546 ****       -17.5000   6.5000 -17.0000 Du        
   8547 ****       -17.2500 -19.7500  -8.2500 Du        
   8548 ****       -17.2500 -19.7500  -8.0000 Du        
   8549 ****       -17.2500 -19.7500  -7.7500 Du        
   8550 ****       -17.2500 -19.5000  -8.7500 Du        
   8551 ****       -17.2500 -19.5000  -8.5000 Du        
   8552 ****       -17.2500 -19.5000  -8.2500 Du        
   8553 ****       -17.2500 -19.5000  -8.0000 Du        
   8554 ****       -17.2500 -19.5000  -7.7500 Du        
   8555 ****       -17.2500 -19.2500  -9.0000 Du        
   8556 ****       -17.2500 -19.2500  -8.7500 Du        
   8557 ****       -17.2500 -19.2500  -8.5000 Du        
   8558 ****       -17.2500 -19.2500  -8.2500 Du        
   8559 ****       -17.2500 -19.2500  -8.0000 Du        
   8560 ****       -17.2500 -19.2500  -7.7500 Du        
   8561 ****       -17.2500 -19.2500  -7.5000 Du        
   8562 ****       -17.2500 -19.0000  -9.2500 Du        
   8563 ****       -17.2500 -19.0000  -9.0000 Du        
   8564 ****       -17.2500 -19.0000  -8.7500 Du        
   8565 ****       -17.2500 -19.0000  -8.5000 Du        
   8566 ****       -17.2500 -19.0000  -8.2500 Du        
   8567 ****       -17.2500 -19.0000  -8.0000 Du        
   8568 ****       -17.2500 -19.0000  -7.7500 Du        
   8569 ****       -17.2500 -19.0000  -7.5000 Du        
   8570 ****       -17.2500 -19.0000  -7.2500 Du        
   8571 ****       -17.2500 -18.7500 -22.2500 Du        
   8572 ****       -17.2500 -18.7500 -11.7500 Du        
   8573 ****       -17.2500 -18.7500 -11.5000 Du        
   8574 ****       -17.2500 -18.7500 -11.2500 Du        
   8575 ****       -17.2500 -18.7500 -11.0000 Du        
   8576 ****       -17.2500 -18.7500 -10.7500 Du        
   8577 ****       -17.2500 -18.7500 -10.0000 Du        
   8578 ****       -17.2500 -18.7500  -9.7500 Du        
   8579 ****       -17.2500 -18.7500  -9.5000 Du        
   8580 ****       -17.2500 -18.7500  -9.2500 Du        
   8581 ****       -17.2500 -18.7500  -9.0000 Du        
   8582 ****       -17.2500 -18.7500  -8.7500 Du        
   8583 ****       -17.2500 -18.7500  -8.5000 Du        
   8584 ****       -17.2500 -18.7500  -8.2500 Du        
   8585 ****       -17.2500 -18.7500  -8.0000 Du        
   8586 ****       -17.2500 -18.7500  -7.7500 Du        
   8587 ****       -17.2500 -18.7500  -7.5000 Du        
   8588 ****       -17.2500 -18.7500  -7.2500 Du        
   8589 ****       -17.2500 -18.5000 -12.2500 Du        
   8590 ****       -17.2500 -18.5000 -12.0000 Du        
   8591 ****       -17.2500 -18.5000 -11.7500 Du        
   8592 ****       -17.2500 -18.5000 -11.5000 Du        
   8593 ****       -17.2500 -18.5000 -11.2500 Du        
   8594 ****       -17.2500 -18.5000 -11.0000 Du        
   8595 ****       -17.2500 -18.5000 -10.7500 Du        
   8596 ****       -17.2500 -18.5000 -10.5000 Du        
   8597 ****       -17.2500 -18.5000 -10.2500 Du        
   8598 ****       -17.2500 -18.5000 -10.0000 Du        
   8599 ****       -17.2500 -18.5000  -9.7500 Du        
   8600 ****       -17.2500 -18.5000  -9.5000 Du        
   8601 ****       -17.2500 -18.5000  -9.2500 Du        
   8602 ****       -17.2500 -18.5000  -9.0000 Du        
   8603 ****       -17.2500 -18.5000  -8.7500 Du        
   8604 ****       -17.2500 -18.5000  -8.5000 Du        
   8605 ****       -17.2500 -18.5000  -8.2500 Du        
   8606 ****       -17.2500 -18.5000  -8.0000 Du        
   8607 ****       -17.2500 -18.5000  -7.7500 Du        
   8608 ****       -17.2500 -18.5000  -7.5000 Du        
   8609 ****       -17.2500 -18.5000  -7.2500 Du        
   8610 ****       -17.2500 -18.5000  -7.0000 Du        
   8611 ****       -17.2500 -18.2500 -22.5000 Du        
   8612 ****       -17.2500 -18.2500 -13.0000 Du        
   8613 ****       -17.2500 -18.2500 -12.7500 Du        
   8614 ****       -17.2500 -18.2500 -12.5000 Du        
   8615 ****       -17.2500 -18.2500 -12.2500 Du        
   8616 ****       -17.2500 -18.2500 -12.0000 Du        
   8617 ****       -17.2500 -18.2500 -11.7500 Du        
   8618 ****       -17.2500 -18.2500 -11.5000 Du        
   8619 ****       -17.2500 -18.2500 -11.2500 Du        
   8620 ****       -17.2500 -18.2500 -11.0000 Du        
   8621 ****       -17.2500 -18.2500 -10.7500 Du        
   8622 ****       -17.2500 -18.2500 -10.5000 Du        
   8623 ****       -17.2500 -18.2500 -10.2500 Du        
   8624 ****       -17.2500 -18.2500 -10.0000 Du        
   8625 ****       -17.2500 -18.2500  -9.7500 Du        
   8626 ****       -17.2500 -18.2500  -9.5000 Du        
   8627 ****       -17.2500 -18.2500  -9.2500 Du        
   8628 ****       -17.2500 -18.2500  -9.0000 Du        
   8629 ****       -17.2500 -18.2500  -8.7500 Du        
   8630 ****       -17.2500 -18.2500  -8.5000 Du        
   8631 ****       -17.2500 -18.2500  -8.2500 Du        
   8632 ****       -17.2500 -18.2500  -8.0000 Du        
   8633 ****       -17.2500 -18.2500  -7.7500 Du        
   8634 ****       -17.2500 -18.2500  -7.5000 Du        
   8635 ****       -17.2500 -18.2500  -7.2500 Du        
   8636 ****       -17.2500 -18.2500  -7.0000 Du        
   8637 ****       -17.2500 -18.2500  -6.7500 Du        
   8638 ****       -17.2500 -18.0000 -13.5000 Du        
   8639 ****       -17.2500 -18.0000 -13.2500 Du        
   8640 ****       -17.2500 -18.0000 -13.0000 Du        
   8641 ****       -17.2500 -18.0000 -12.7500 Du        
   8642 ****       -17.2500 -18.0000 -12.5000 Du        
   8643 ****       -17.2500 -18.0000 -12.2500 Du        
   8644 ****       -17.2500 -18.0000 -12.0000 Du        
   8645 ****       -17.2500 -18.0000 -11.7500 Du        
   8646 ****       -17.2500 -18.0000 -11.5000 Du        
   8647 ****       -17.2500 -18.0000 -11.2500 Du        
   8648 ****       -17.2500 -18.0000 -11.0000 Du        
   8649 ****       -17.2500 -18.0000 -10.7500 Du        
   8650 ****       -17.2500 -18.0000 -10.5000 Du        
   8651 ****       -17.2500 -18.0000 -10.2500 Du        
   8652 ****       -17.2500 -18.0000 -10.0000 Du        
   8653 ****       -17.2500 -18.0000  -9.7500 Du        
   8654 ****       -17.2500 -18.0000  -9.5000 Du        
   8655 ****       -17.2500 -18.0000  -9.2500 Du        
   8656 ****       -17.2500 -18.0000  -9.0000 Du        
   8657 ****       -17.2500 -18.0000  -8.7500 Du        
   8658 ****       -17.2500 -18.0000  -8.5000 Du        
   8659 ****       -17.2500 -18.0000  -8.2500 Du        
   8660 ****       -17.2500 -18.0000  -8.0000 Du        
   8661 ****       -17.2500 -18.0000  -7.7500 Du        
   8662 ****       -17.2500 -18.0000  -7.5000 Du        
   8663 ****       -17.2500 -18.0000  -7.2500 Du        
   8664 ****       -17.2500 -18.0000  -7.0000 Du        
   8665 ****       -17.2500 -18.0000  -6.7500 Du        
   8666 ****       -17.2500 -17.7500 -13.7500 Du        
   8667 ****       -17.2500 -17.7500 -13.5000 Du        
   8668 ****       -17.2500 -17.7500 -13.2500 Du        
   8669 ****       -17.2500 -17.7500 -13.0000 Du        
   8670 ****       -17.2500 -17.7500 -12.7500 Du        
   8671 ****       -17.2500 -17.7500 -12.5000 Du        
   8672 ****       -17.2500 -17.7500 -12.2500 Du        
   8673 ****       -17.2500 -17.7500 -12.0000 Du        
   8674 ****       -17.2500 -17.7500 -11.7500 Du        
   8675 ****       -17.2500 -17.7500 -11.5000 Du        
   8676 ****       -17.2500 -17.7500 -11.2500 Du        
   8677 ****       -17.2500 -17.7500 -11.0000 Du        
   8678 ****       -17.2500 -17.7500 -10.7500 Du        
   8679 ****       -17.2500 -17.7500 -10.5000 Du        
   8680 ****       -17.2500 -17.7500 -10.2500 Du        
   8681 ****       -17.2500 -17.7500 -10.0000 Du        
   8682 ****       -17.2500 -17.7500  -9.7500 Du        
   8683 ****       -17.2500 -17.7500  -9.5000 Du        
   8684 ****       -17.2500 -17.7500  -9.2500 Du        
   8685 ****       -17.2500 -17.7500  -9.0000 Du        
   8686 ****       -17.2500 -17.7500  -8.7500 Du        
   8687 ****       -17.2500 -17.7500  -8.5000 Du        
   8688 ****       -17.2500 -17.7500  -8.2500 Du        
   8689 ****       -17.2500 -17.7500  -8.0000 Du        
   8690 ****       -17.2500 -17.7500  -7.7500 Du        
   8691 ****       -17.2500 -17.7500  -7.5000 Du        
   8692 ****       -17.2500 -17.5000 -13.5000 Du        
   8693 ****       -17.2500 -17.5000 -13.2500 Du        
   8694 ****       -17.2500 -17.5000 -13.0000 Du        
   8695 ****       -17.2500 -17.5000 -12.7500 Du        
   8696 ****       -17.2500 -17.5000 -12.5000 Du        
   8697 ****       -17.2500 -17.5000 -12.2500 Du        
   8698 ****       -17.2500 -17.5000 -12.0000 Du        
   8699 ****       -17.2500 -17.5000 -11.7500 Du        
   8700 ****       -17.2500 -17.5000  -9.0000 Du        
   8701 ****       -17.2500 -17.5000  -8.7500 Du        
   8702 ****       -17.2500 -17.2500 -13.5000 Du        
   8703 ****       -17.2500 -17.2500 -13.2500 Du        
   8704 ****       -17.2500 -17.2500 -13.0000 Du        
   8705 ****       -17.2500 -17.2500 -12.7500 Du        
   8706 ****       -17.2500 -17.2500 -12.5000 Du        
   8707 ****       -17.2500 -17.2500 -12.2500 Du        
   8708 ****       -17.2500 -17.2500 -12.0000 Du        
   8709 ****       -17.2500 -17.0000 -24.0000 Du        
   8710 ****       -17.2500 -17.0000 -23.7500 Du        
   8711 ****       -17.2500 -17.0000 -13.5000 Du        
   8712 ****       -17.2500 -17.0000 -13.2500 Du        
   8713 ****       -17.2500 -17.0000 -13.0000 Du        
   8714 ****       -17.2500 -17.0000 -12.7500 Du        
   8715 ****       -17.2500 -17.0000 -12.5000 Du        
   8716 ****       -17.2500 -16.7500 -25.5000 Du        
   8717 ****       -17.2500 -16.7500 -25.2500 Du        
   8718 ****       -17.2500 -16.7500 -25.0000 Du        
   8719 ****       -17.2500 -16.7500 -24.7500 Du        
   8720 ****       -17.2500 -16.7500 -24.5000 Du        
   8721 ****       -17.2500 -16.7500 -24.2500 Du        
   8722 ****       -17.2500 -16.7500 -24.0000 Du        
   8723 ****       -17.2500 -16.7500 -23.7500 Du        
   8724 ****       -17.2500 -16.7500 -13.5000 Du        
   8725 ****       -17.2500 -16.7500 -13.2500 Du        
   8726 ****       -17.2500 -16.7500 -13.0000 Du        
   8727 ****       -17.2500 -16.7500 -12.7500 Du        
   8728 ****       -17.2500 -16.5000 -25.7500 Du        
   8729 ****       -17.2500 -16.5000 -25.5000 Du        
   8730 ****       -17.2500 -16.5000 -25.2500 Du        
   8731 ****       -17.2500 -16.5000 -25.0000 Du        
   8732 ****       -17.2500 -16.5000 -24.7500 Du        
   8733 ****       -17.2500 -16.5000 -24.5000 Du        
   8734 ****       -17.2500 -16.5000 -24.2500 Du        
   8735 ****       -17.2500 -16.5000 -24.0000 Du        
   8736 ****       -17.2500 -16.5000   3.5000 Du        
   8737 ****       -17.2500 -16.5000   3.7500 Du        
   8738 ****       -17.2500 -16.5000   4.0000 Du        
   8739 ****       -17.2500 -16.2500 -25.7500 Du        
   8740 ****       -17.2500 -16.2500 -25.5000 Du        
   8741 ****       -17.2500 -16.2500 -25.2500 Du        
   8742 ****       -17.2500 -16.2500 -25.0000 Du        
   8743 ****       -17.2500 -16.2500 -24.7500 Du        
   8744 ****       -17.2500 -16.2500 -24.5000 Du        
   8745 ****       -17.2500 -16.2500 -24.2500 Du        
   8746 ****       -17.2500 -16.2500 -24.0000 Du        
   8747 ****       -17.2500 -16.2500   3.5000 Du        
   8748 ****       -17.2500 -16.2500   3.7500 Du        
   8749 ****       -17.2500 -16.2500   4.0000 Du        
   8750 ****       -17.2500 -16.0000 -25.7500 Du        
   8751 ****       -17.2500 -16.0000 -25.5000 Du        
   8752 ****       -17.2500 -16.0000 -25.2500 Du        
   8753 ****       -17.2500 -16.0000 -25.0000 Du        
   8754 ****       -17.2500 -16.0000 -24.7500 Du        
   8755 ****       -17.2500 -16.0000 -24.5000 Du        
   8756 ****       -17.2500 -16.0000 -24.2500 Du        
   8757 ****       -17.2500 -16.0000 -24.0000 Du        
   8758 ****       -17.2500 -16.0000   3.5000 Du        
   8759 ****       -17.2500 -16.0000   3.7500 Du        
   8760 ****       -17.2500 -16.0000   4.0000 Du        
   8761 ****       -17.2500 -15.7500 -25.5000 Du        
   8762 ****       -17.2500 -15.7500 -25.2500 Du        
   8763 ****       -17.2500 -15.7500 -25.0000 Du        
   8764 ****       -17.2500 -15.7500 -24.7500 Du        
   8765 ****       -17.2500 -15.7500 -24.5000 Du        
   8766 ****       -17.2500 -15.7500 -24.2500 Du        
   8767 ****       -17.2500 -15.7500 -24.0000 Du        
   8768 ****       -17.2500 -15.7500   3.7500 Du        
   8769 ****       -17.2500 -15.7500   4.0000 Du        
   8770 ****       -17.2500 -15.5000 -25.2500 Du        
   8771 ****       -17.2500 -15.5000 -25.0000 Du        
   8772 ****       -17.2500 -15.5000 -24.7500 Du        
   8773 ****       -17.2500 -15.5000 -24.5000 Du        
   8774 ****       -17.2500 -15.5000 -24.2500 Du        
   8775 ****       -17.2500 -15.5000 -24.0000 Du        
   8776 ****       -17.2500 -15.2500 -25.2500 Du        
   8777 ****       -17.2500 -15.2500 -25.0000 Du        
   8778 ****       -17.2500 -15.2500 -24.7500 Du        
   8779 ****       -17.2500 -15.2500 -24.5000 Du        
   8780 ****       -17.2500 -15.2500 -24.2500 Du        
   8781 ****       -17.2500 -15.2500 -24.0000 Du        
   8782 ****       -17.2500 -15.0000 -24.7500 Du        
   8783 ****       -17.2500 -13.0000 -16.5000 Du        
   8784 ****       -17.2500 -11.5000 -11.7500 Du        
   8785 ****       -17.2500 -11.5000 -11.5000 Du        
   8786 ****       -17.2500 -11.5000 -11.2500 Du        
   8787 ****       -17.2500 -11.5000 -11.0000 Du        
   8788 ****       -17.2500 -11.2500 -12.0000 Du        
   8789 ****       -17.2500 -11.2500 -11.7500 Du        
   8790 ****       -17.2500 -11.2500 -11.5000 Du        
   8791 ****       -17.2500 -11.2500 -11.2500 Du        
   8792 ****       -17.2500 -11.2500 -11.0000 Du        
   8793 ****       -17.2500 -11.0000 -12.0000 Du        
   8794 ****       -17.2500 -11.0000 -11.7500 Du        
   8795 ****       -17.2500 -11.0000 -11.5000 Du        
   8796 ****       -17.2500 -11.0000 -11.2500 Du        
   8797 ****       -17.2500 -11.0000 -11.0000 Du        
   8798 ****       -17.2500 -10.7500 -11.7500 Du        
   8799 ****       -17.2500 -10.7500 -11.5000 Du        
   8800 ****       -17.2500 -10.7500 -11.2500 Du        
   8801 ****       -17.2500 -10.7500 -11.0000 Du        
   8802 ****       -17.2500 -10.5000 -11.5000 Du        
   8803 ****       -17.2500 -10.5000 -11.2500 Du        
   8804 ****       -17.2500 -10.5000 -11.0000 Du        
   8805 ****       -17.2500 -10.2500 -11.2500 Du        
   8806 ****       -17.2500 -10.2500 -11.0000 Du        
   8807 ****       -17.2500 -10.2500 -10.7500 Du        
   8808 ****       -17.2500  -6.7500  -8.0000 Du        
   8809 ****       -17.2500  -6.7500  -7.7500 Du        
   8810 ****       -17.2500  -6.5000  -8.0000 Du        
   8811 ****       -17.2500  -6.5000  -7.7500 Du        
   8812 ****       -17.2500  -6.5000  -7.5000 Du        
   8813 ****       -17.2500  -6.2500  -8.0000 Du        
   8814 ****       -17.2500  -6.2500  -7.7500 Du        
   8815 ****       -17.2500  -6.2500  -7.5000 Du        
   8816 ****       -17.2500  -6.2500  -7.2500 Du        
   8817 ****       -17.2500  -6.2500  -7.0000 Du        
   8818 ****       -17.2500  -6.0000  -8.0000 Du        
   8819 ****       -17.2500  -6.0000  -7.7500 Du        
   8820 ****       -17.2500  -6.0000  -7.5000 Du        
   8821 ****       -17.2500  -6.0000  -7.2500 Du        
   8822 ****       -17.2500  -6.0000  -7.0000 Du        
   8823 ****       -17.2500  -6.0000  -6.7500 Du        
   8824 ****       -17.2500  -5.7500  -8.0000 Du        
   8825 ****       -17.2500  -5.7500  -7.7500 Du        
   8826 ****       -17.2500  -5.7500  -7.5000 Du        
   8827 ****       -17.2500  -5.7500  -7.2500 Du        
   8828 ****       -17.2500  -5.7500  -7.0000 Du        
   8829 ****       -17.2500  -5.7500  -6.7500 Du        
   8830 ****       -17.2500  -5.5000  -8.0000 Du        
   8831 ****       -17.2500  -5.5000  -7.7500 Du        
   8832 ****       -17.2500  -5.5000  -7.5000 Du        
   8833 ****       -17.2500  -5.5000  -7.2500 Du        
   8834 ****       -17.2500  -5.5000  -7.0000 Du        
   8835 ****       -17.2500  -5.5000  -6.7500 Du        
   8836 ****       -17.2500  -5.2500  -8.0000 Du        
   8837 ****       -17.2500  -5.2500  -7.7500 Du        
   8838 ****       -17.2500  -5.2500  -7.5000 Du        
   8839 ****       -17.2500  -5.2500  -7.2500 Du        
   8840 ****       -17.2500  -5.2500  -7.0000 Du        
   8841 ****       -17.2500  -5.2500  -4.5000 Du        
   8842 ****       -17.2500  -5.2500  -4.2500 Du        
   8843 ****       -17.2500  -5.2500  -4.0000 Du        
   8844 ****       -17.2500  -5.0000  -7.7500 Du        
   8845 ****       -17.2500  -5.0000  -7.5000 Du        
   8846 ****       -17.2500  -5.0000  -7.2500 Du        
   8847 ****       -17.2500  -5.0000  -4.7500 Du        
   8848 ****       -17.2500  -5.0000  -4.5000 Du        
   8849 ****       -17.2500  -5.0000  -4.2500 Du        
   8850 ****       -17.2500  -5.0000  -4.0000 Du        
   8851 ****       -17.2500  -5.0000  -3.7500 Du        
   8852 ****       -17.2500  -4.7500  -4.7500 Du        
   8853 ****       -17.2500  -4.7500  -4.5000 Du        
   8854 ****       -17.2500  -4.7500  -4.2500 Du        
   8855 ****       -17.2500  -4.7500  -4.0000 Du        
   8856 ****       -17.2500  -4.7500  -3.7500 Du        
   8857 ****       -17.2500  -4.5000  -4.5000 Du        
   8858 ****       -17.2500  -4.5000  -4.2500 Du        
   8859 ****       -17.2500  -4.5000  -4.0000 Du        
   8860 ****       -17.2500  -4.2500  -4.5000 Du        
   8861 ****       -17.2500  -4.2500  -4.2500 Du        
   8862 ****       -17.2500  -3.0000  -7.7500 Du        
   8863 ****       -17.2500  -3.0000  -7.5000 Du        
   8864 ****       -17.2500  -3.0000  -7.2500 Du        
   8865 ****       -17.2500  -3.0000  -7.0000 Du        
   8866 ****       -17.2500  -2.7500  -7.7500 Du        
   8867 ****       -17.2500  -2.7500  -7.5000 Du        
   8868 ****       -17.2500  -2.7500  -7.2500 Du        
   8869 ****       -17.2500  -2.7500  -7.0000 Du        
   8870 ****       -17.2500  -2.7500  -6.7500 Du        
   8871 ****       -17.2500  -2.5000  -7.7500 Du        
   8872 ****       -17.2500  -2.5000  -7.5000 Du        
   8873 ****       -17.2500  -2.5000  -7.2500 Du        
   8874 ****       -17.2500  -2.5000  -7.0000 Du        
   8875 ****       -17.2500  -2.5000  -6.7500 Du        
   8876 ****       -17.2500  -2.5000  -6.5000 Du        
   8877 ****       -17.2500  -2.5000  -6.2500 Du        
   8878 ****       -17.2500  -2.5000  -6.0000 Du        
   8879 ****       -17.2500  -2.2500  -7.5000 Du        
   8880 ****       -17.2500  -2.2500  -7.2500 Du        
   8881 ****       -17.2500  -2.2500  -7.0000 Du        
   8882 ****       -17.2500  -2.2500  -6.7500 Du        
   8883 ****       -17.2500  -2.2500  -6.5000 Du        
   8884 ****       -17.2500  -2.2500  -6.2500 Du        
   8885 ****       -17.2500  -2.2500  -6.0000 Du        
   8886 ****       -17.2500  -2.2500  -5.7500 Du        
   8887 ****       -17.2500  -2.0000  -7.5000 Du        
   8888 ****       -17.2500  -2.0000  -7.2500 Du        
   8889 ****       -17.2500  -2.0000  -7.0000 Du        
   8890 ****       -17.2500  -2.0000  -6.7500 Du        
   8891 ****       -17.2500  -2.0000  -6.5000 Du        
   8892 ****       -17.2500  -2.0000  -6.2500 Du        
   8893 ****       -17.2500  -2.0000  -6.0000 Du        
   8894 ****       -17.2500  -1.7500  -7.5000 Du        
   8895 ****       -17.2500  -1.7500  -7.2500 Du        
   8896 ****       -17.2500  -1.7500  -7.0000 Du        
   8897 ****       -17.2500  -1.7500  -6.7500 Du        
   8898 ****       -17.2500  -1.7500  -6.5000 Du        
   8899 ****       -17.2500  -1.7500  -6.2500 Du        
   8900 ****       -17.2500  -1.5000  -7.2500 Du        
   8901 ****       -17.2500  -1.5000  -7.0000 Du        
   8902 ****       -17.2500  -1.5000  -6.7500 Du        
   8903 ****       -17.2500  -1.5000  -6.5000 Du        
   8904 ****       -17.2500  -1.2500  -7.2500 Du        
   8905 ****       -17.2500  -1.2500  -7.0000 Du        
   8906 ****       -17.2500  -1.2500  -6.7500 Du        
   8907 ****       -17.2500  -1.0000  -7.0000 Du        
   8908 ****       -17.2500   4.7500 -10.5000 Du        
   8909 ****       -17.2500   4.7500 -10.2500 Du        
   8910 ****       -17.2500   4.7500 -10.0000 Du        
   8911 ****       -17.2500   4.7500  -9.7500 Du        
   8912 ****       -17.2500   4.7500  -9.5000 Du        
   8913 ****       -17.2500   4.7500  -9.2500 Du        
   8914 ****       -17.2500   4.7500  -9.0000 Du        
   8915 ****       -17.2500   4.7500  -8.7500 Du        
   8916 ****       -17.2500   5.0000 -10.7500 Du        
   8917 ****       -17.2500   5.0000 -10.5000 Du        
   8918 ****       -17.2500   5.0000 -10.2500 Du        
   8919 ****       -17.2500   5.0000 -10.0000 Du        
   8920 ****       -17.2500   5.0000  -9.7500 Du        
   8921 ****       -17.2500   5.0000  -9.5000 Du        
   8922 ****       -17.2500   5.0000  -9.2500 Du        
   8923 ****       -17.2500   5.0000  -9.0000 Du        
   8924 ****       -17.2500   5.0000  -8.7500 Du        
   8925 ****       -17.2500   5.2500 -11.0000 Du        
   8926 ****       -17.2500   5.2500 -10.7500 Du        
   8927 ****       -17.2500   5.2500 -10.5000 Du        
   8928 ****       -17.2500   5.2500 -10.2500 Du        
   8929 ****       -17.2500   5.2500 -10.0000 Du        
   8930 ****       -17.2500   5.2500  -9.7500 Du        
   8931 ****       -17.2500   5.2500  -9.5000 Du        
   8932 ****       -17.2500   5.2500  -9.2500 Du        
   8933 ****       -17.2500   5.2500  -9.0000 Du        
   8934 ****       -17.2500   5.2500  -8.7500 Du        
   8935 ****       -17.2500   5.5000 -17.5000 Du        
   8936 ****       -17.2500   5.5000 -17.2500 Du        
   8937 ****       -17.2500   5.5000 -17.0000 Du        
   8938 ****       -17.2500   5.5000 -11.2500 Du        
   8939 ****       -17.2500   5.5000 -11.0000 Du        
   8940 ****       -17.2500   5.5000 -10.7500 Du        
   8941 ****       -17.2500   5.5000 -10.5000 Du        
   8942 ****       -17.2500   5.5000 -10.2500 Du        
   8943 ****       -17.2500   5.5000 -10.0000 Du        
   8944 ****       -17.2500   5.5000  -9.7500 Du        
   8945 ****       -17.2500   5.5000  -9.5000 Du        
   8946 ****       -17.2500   5.5000  -9.2500 Du        
   8947 ****       -17.2500   5.5000  -9.0000 Du        
   8948 ****       -17.2500   5.5000  -8.7500 Du        
   8949 ****       -17.2500   5.7500 -18.0000 Du        
   8950 ****       -17.2500   5.7500 -17.7500 Du        
   8951 ****       -17.2500   5.7500 -17.5000 Du        
   8952 ****       -17.2500   5.7500 -17.2500 Du        
   8953 ****       -17.2500   5.7500 -17.0000 Du        
   8954 ****       -17.2500   5.7500 -16.7500 Du        
   8955 ****       -17.2500   5.7500 -11.2500 Du        
   8956 ****       -17.2500   5.7500 -11.0000 Du        
   8957 ****       -17.2500   5.7500 -10.7500 Du        
   8958 ****       -17.2500   5.7500 -10.5000 Du        
   8959 ****       -17.2500   5.7500 -10.2500 Du        
   8960 ****       -17.2500   5.7500 -10.0000 Du        
   8961 ****       -17.2500   5.7500  -9.7500 Du        
   8962 ****       -17.2500   5.7500  -9.5000 Du        
   8963 ****       -17.2500   5.7500  -9.2500 Du        
   8964 ****       -17.2500   6.0000 -18.2500 Du        
   8965 ****       -17.2500   6.0000 -18.0000 Du        
   8966 ****       -17.2500   6.0000 -17.7500 Du        
   8967 ****       -17.2500   6.0000 -17.5000 Du        
   8968 ****       -17.2500   6.0000 -17.2500 Du        
   8969 ****       -17.2500   6.0000 -17.0000 Du        
   8970 ****       -17.2500   6.0000 -16.7500 Du        
   8971 ****       -17.2500   6.0000 -16.5000 Du        
   8972 ****       -17.2500   6.0000 -11.2500 Du        
   8973 ****       -17.2500   6.0000 -11.0000 Du        
   8974 ****       -17.2500   6.0000 -10.7500 Du        
   8975 ****       -17.2500   6.0000 -10.5000 Du        
   8976 ****       -17.2500   6.0000 -10.2500 Du        
   8977 ****       -17.2500   6.0000 -10.0000 Du        
   8978 ****       -17.2500   6.0000  -9.7500 Du        
   8979 ****       -17.2500   6.2500 -18.0000 Du        
   8980 ****       -17.2500   6.2500 -17.7500 Du        
   8981 ****       -17.2500   6.2500 -17.5000 Du        
   8982 ****       -17.2500   6.2500 -17.2500 Du        
   8983 ****       -17.2500   6.2500 -17.0000 Du        
   8984 ****       -17.2500   6.2500 -16.7500 Du        
   8985 ****       -17.2500   6.2500 -11.0000 Du        
   8986 ****       -17.2500   6.2500 -10.7500 Du        
   8987 ****       -17.2500   6.2500 -10.5000 Du        
   8988 ****       -17.2500   6.2500 -10.2500 Du        
   8989 ****       -17.2500   6.2500 -10.0000 Du        
   8990 ****       -17.2500   6.5000 -17.5000 Du        
   8991 ****       -17.2500   6.5000 -17.2500 Du        
   8992 ****       -17.0000 -19.2500  -8.5000 Du        
   8993 ****       -17.0000 -19.2500  -8.2500 Du        
   8994 ****       -17.0000 -19.2500  -8.0000 Du        
   8995 ****       -17.0000 -19.2500  -7.7500 Du        
   8996 ****       -17.0000 -19.0000  -9.0000 Du        
   8997 ****       -17.0000 -19.0000  -8.7500 Du        
   8998 ****       -17.0000 -19.0000  -8.5000 Du        
   8999 ****       -17.0000 -19.0000  -8.2500 Du        
   9000 ****       -17.0000 -19.0000  -8.0000 Du        
   9001 ****       -17.0000 -19.0000  -7.7500 Du        
   9002 ****       -17.0000 -19.0000  -7.5000 Du        
   9003 ****       -17.0000 -18.7500 -22.2500 Du        
   9004 ****       -17.0000 -18.7500 -22.0000 Du        
   9005 ****       -17.0000 -18.7500 -12.0000 Du        
   9006 ****       -17.0000 -18.7500 -11.7500 Du        
   9007 ****       -17.0000 -18.7500 -11.5000 Du        
   9008 ****       -17.0000 -18.7500  -9.2500 Du        
   9009 ****       -17.0000 -18.7500  -9.0000 Du        
   9010 ****       -17.0000 -18.7500  -8.7500 Du        
   9011 ****       -17.0000 -18.7500  -8.5000 Du        
   9012 ****       -17.0000 -18.7500  -8.2500 Du        
   9013 ****       -17.0000 -18.7500  -8.0000 Du        
   9014 ****       -17.0000 -18.7500  -7.7500 Du        
   9015 ****       -17.0000 -18.7500  -7.5000 Du        
   9016 ****       -17.0000 -18.7500  -7.2500 Du        
   9017 ****       -17.0000 -18.5000 -22.2500 Du        
   9018 ****       -17.0000 -18.5000 -22.0000 Du        
   9019 ****       -17.0000 -18.5000 -12.7500 Du        
   9020 ****       -17.0000 -18.5000 -12.5000 Du        
   9021 ****       -17.0000 -18.5000 -12.2500 Du        
   9022 ****       -17.0000 -18.5000 -12.0000 Du        
   9023 ****       -17.0000 -18.5000 -11.7500 Du        
   9024 ****       -17.0000 -18.5000 -11.5000 Du        
   9025 ****       -17.0000 -18.5000 -11.2500 Du        
   9026 ****       -17.0000 -18.5000 -11.0000 Du        
   9027 ****       -17.0000 -18.5000 -10.7500 Du        
   9028 ****       -17.0000 -18.5000  -9.5000 Du        
   9029 ****       -17.0000 -18.5000  -9.2500 Du        
   9030 ****       -17.0000 -18.5000  -9.0000 Du        
   9031 ****       -17.0000 -18.5000  -8.7500 Du        
   9032 ****       -17.0000 -18.5000  -8.5000 Du        
   9033 ****       -17.0000 -18.5000  -8.2500 Du        
   9034 ****       -17.0000 -18.5000  -8.0000 Du        
   9035 ****       -17.0000 -18.5000  -7.7500 Du        
   9036 ****       -17.0000 -18.5000  -7.5000 Du        
   9037 ****       -17.0000 -18.5000  -7.2500 Du        
   9038 ****       -17.0000 -18.5000  -7.0000 Du        
   9039 ****       -17.0000 -18.2500 -22.5000 Du        
   9040 ****       -17.0000 -18.2500 -22.2500 Du        
   9041 ****       -17.0000 -18.2500 -13.2500 Du        
   9042 ****       -17.0000 -18.2500 -13.0000 Du        
   9043 ****       -17.0000 -18.2500 -12.7500 Du        
   9044 ****       -17.0000 -18.2500 -12.5000 Du        
   9045 ****       -17.0000 -18.2500 -12.2500 Du        
   9046 ****       -17.0000 -18.2500 -12.0000 Du        
   9047 ****       -17.0000 -18.2500 -11.7500 Du        
   9048 ****       -17.0000 -18.2500 -11.5000 Du        
   9049 ****       -17.0000 -18.2500 -11.2500 Du        
   9050 ****       -17.0000 -18.2500 -11.0000 Du        
   9051 ****       -17.0000 -18.2500 -10.7500 Du        
   9052 ****       -17.0000 -18.2500 -10.5000 Du        
   9053 ****       -17.0000 -18.2500 -10.2500 Du        
   9054 ****       -17.0000 -18.2500 -10.0000 Du        
   9055 ****       -17.0000 -18.2500  -9.7500 Du        
   9056 ****       -17.0000 -18.2500  -9.5000 Du        
   9057 ****       -17.0000 -18.2500  -9.2500 Du        
   9058 ****       -17.0000 -18.2500  -9.0000 Du        
   9059 ****       -17.0000 -18.2500  -8.7500 Du        
   9060 ****       -17.0000 -18.2500  -8.5000 Du        
   9061 ****       -17.0000 -18.2500  -8.2500 Du        
   9062 ****       -17.0000 -18.2500  -8.0000 Du        
   9063 ****       -17.0000 -18.2500  -7.7500 Du        
   9064 ****       -17.0000 -18.2500  -7.5000 Du        
   9065 ****       -17.0000 -18.2500  -7.2500 Du        
   9066 ****       -17.0000 -18.2500  -7.0000 Du        
   9067 ****       -17.0000 -18.2500  -6.7500 Du        
   9068 ****       -17.0000 -18.0000 -22.5000 Du        
   9069 ****       -17.0000 -18.0000 -13.5000 Du        
   9070 ****       -17.0000 -18.0000 -13.2500 Du        
   9071 ****       -17.0000 -18.0000 -13.0000 Du        
   9072 ****       -17.0000 -18.0000 -12.7500 Du        
   9073 ****       -17.0000 -18.0000 -12.5000 Du        
   9074 ****       -17.0000 -18.0000 -12.2500 Du        
   9075 ****       -17.0000 -18.0000 -12.0000 Du        
   9076 ****       -17.0000 -18.0000 -11.7500 Du        
   9077 ****       -17.0000 -18.0000 -11.5000 Du        
   9078 ****       -17.0000 -18.0000 -11.2500 Du        
   9079 ****       -17.0000 -18.0000 -11.0000 Du        
   9080 ****       -17.0000 -18.0000 -10.7500 Du        
   9081 ****       -17.0000 -18.0000 -10.5000 Du        
   9082 ****       -17.0000 -18.0000 -10.2500 Du        
   9083 ****       -17.0000 -18.0000 -10.0000 Du        
   9084 ****       -17.0000 -18.0000  -9.7500 Du        
   9085 ****       -17.0000 -18.0000  -9.5000 Du        
   9086 ****       -17.0000 -18.0000  -9.2500 Du        
   9087 ****       -17.0000 -18.0000  -9.0000 Du        
   9088 ****       -17.0000 -18.0000  -8.7500 Du        
   9089 ****       -17.0000 -18.0000  -8.5000 Du        
   9090 ****       -17.0000 -18.0000  -8.2500 Du        
   9091 ****       -17.0000 -18.0000  -8.0000 Du        
   9092 ****       -17.0000 -18.0000  -7.7500 Du        
   9093 ****       -17.0000 -18.0000  -7.5000 Du        
   9094 ****       -17.0000 -18.0000  -7.2500 Du        
   9095 ****       -17.0000 -17.7500 -13.5000 Du        
   9096 ****       -17.0000 -17.7500 -13.2500 Du        
   9097 ****       -17.0000 -17.7500 -13.0000 Du        
   9098 ****       -17.0000 -17.7500 -12.7500 Du        
   9099 ****       -17.0000 -17.7500 -12.5000 Du        
   9100 ****       -17.0000 -17.7500 -12.2500 Du        
   9101 ****       -17.0000 -17.7500 -12.0000 Du        
   9102 ****       -17.0000 -17.7500 -11.7500 Du        
   9103 ****       -17.0000 -17.7500 -11.5000 Du        
   9104 ****       -17.0000 -17.7500 -11.2500 Du        
   9105 ****       -17.0000 -17.7500 -11.0000 Du        
   9106 ****       -17.0000 -17.7500 -10.7500 Du        
   9107 ****       -17.0000 -17.7500 -10.2500 Du        
   9108 ****       -17.0000 -17.7500  -9.5000 Du        
   9109 ****       -17.0000 -17.7500  -9.2500 Du        
   9110 ****       -17.0000 -17.7500  -9.0000 Du        
   9111 ****       -17.0000 -17.7500  -8.7500 Du        
   9112 ****       -17.0000 -17.7500  -8.5000 Du        
   9113 ****       -17.0000 -17.7500  -8.2500 Du        
   9114 ****       -17.0000 -17.7500  -8.0000 Du        
   9115 ****       -17.0000 -17.5000 -13.5000 Du        
   9116 ****       -17.0000 -17.5000 -13.2500 Du        
   9117 ****       -17.0000 -17.5000 -13.0000 Du        
   9118 ****       -17.0000 -17.5000 -12.7500 Du        
   9119 ****       -17.0000 -17.5000 -12.5000 Du        
   9120 ****       -17.0000 -17.5000 -12.2500 Du        
   9121 ****       -17.0000 -17.5000 -12.0000 Du        
   9122 ****       -17.0000 -17.5000 -11.7500 Du        
   9123 ****       -17.0000 -17.2500 -13.5000 Du        
   9124 ****       -17.0000 -17.2500 -13.2500 Du        
   9125 ****       -17.0000 -17.2500 -13.0000 Du        
   9126 ****       -17.0000 -17.2500 -12.7500 Du        
   9127 ****       -17.0000 -17.2500 -12.5000 Du        
   9128 ****       -17.0000 -17.2500 -12.2500 Du        
   9129 ****       -17.0000 -17.2500 -12.0000 Du        
   9130 ****       -17.0000 -17.2500 -11.7500 Du        
   9131 ****       -17.0000 -17.0000 -13.2500 Du        
   9132 ****       -17.0000 -17.0000 -13.0000 Du        
   9133 ****       -17.0000 -17.0000 -12.7500 Du        
   9134 ****       -17.0000 -16.7500 -25.2500 Du        
   9135 ****       -17.0000 -16.7500 -24.0000 Du        
   9136 ****       -17.0000 -16.7500 -23.7500 Du        
   9137 ****       -17.0000 -16.7500 -23.5000 Du        
   9138 ****       -17.0000 -16.7500 -13.2500 Du        
   9139 ****       -17.0000 -16.7500 -13.0000 Du        
   9140 ****       -17.0000 -16.7500   4.0000 Du        
   9141 ****       -17.0000 -16.5000 -25.5000 Du        
   9142 ****       -17.0000 -16.5000 -25.2500 Du        
   9143 ****       -17.0000 -16.5000 -25.0000 Du        
   9144 ****       -17.0000 -16.5000 -24.7500 Du        
   9145 ****       -17.0000 -16.5000 -24.2500 Du        
   9146 ****       -17.0000 -16.5000   3.7500 Du        
   9147 ****       -17.0000 -16.5000   4.0000 Du        
   9148 ****       -17.0000 -16.2500 -25.7500 Du        
   9149 ****       -17.0000 -16.2500 -25.5000 Du        
   9150 ****       -17.0000 -16.2500 -25.2500 Du        
   9151 ****       -17.0000 -16.2500 -25.0000 Du        
   9152 ****       -17.0000 -16.2500 -24.7500 Du        
   9153 ****       -17.0000 -16.2500 -24.5000 Du        
   9154 ****       -17.0000 -16.2500 -24.2500 Du        
   9155 ****       -17.0000 -16.2500 -24.0000 Du        
   9156 ****       -17.0000 -16.2500 -23.7500 Du        
   9157 ****       -17.0000 -16.2500   3.7500 Du        
   9158 ****       -17.0000 -16.2500   4.0000 Du        
   9159 ****       -17.0000 -16.0000 -25.7500 Du        
   9160 ****       -17.0000 -16.0000 -25.5000 Du        
   9161 ****       -17.0000 -16.0000 -25.2500 Du        
   9162 ****       -17.0000 -16.0000 -25.0000 Du        
   9163 ****       -17.0000 -16.0000 -24.7500 Du        
   9164 ****       -17.0000 -16.0000 -24.5000 Du        
   9165 ****       -17.0000 -16.0000 -24.2500 Du        
   9166 ****       -17.0000 -16.0000 -24.0000 Du        
   9167 ****       -17.0000 -16.0000   3.7500 Du        
   9168 ****       -17.0000 -16.0000   4.0000 Du        
   9169 ****       -17.0000 -15.7500 -25.5000 Du        
   9170 ****       -17.0000 -15.7500 -25.2500 Du        
   9171 ****       -17.0000 -15.7500 -25.0000 Du        
   9172 ****       -17.0000 -15.7500 -24.7500 Du        
   9173 ****       -17.0000 -15.7500 -24.5000 Du        
   9174 ****       -17.0000 -15.7500 -24.2500 Du        
   9175 ****       -17.0000 -15.7500 -24.0000 Du        
   9176 ****       -17.0000 -15.5000 -25.2500 Du        
   9177 ****       -17.0000 -15.5000 -25.0000 Du        
   9178 ****       -17.0000 -15.5000 -24.7500 Du        
   9179 ****       -17.0000 -15.5000 -24.5000 Du        
   9180 ****       -17.0000 -15.5000 -24.2500 Du        
   9181 ****       -17.0000 -15.5000 -24.0000 Du        
   9182 ****       -17.0000 -15.2500 -25.2500 Du        
   9183 ****       -17.0000 -15.2500 -25.0000 Du        
   9184 ****       -17.0000 -15.2500 -24.7500 Du        
   9185 ****       -17.0000 -15.2500 -24.5000 Du        
   9186 ****       -17.0000 -15.2500 -24.2500 Du        
   9187 ****       -17.0000 -15.2500 -24.0000 Du        
   9188 ****       -17.0000 -15.2500 -23.7500 Du        
   9189 ****       -17.0000 -15.0000 -25.0000 Du        
   9190 ****       -17.0000 -15.0000 -24.7500 Du        
   9191 ****       -17.0000 -15.0000 -24.2500 Du        
   9192 ****       -17.0000 -15.0000 -24.0000 Du        
   9193 ****       -17.0000 -13.0000 -16.2500 Du        
   9194 ****       -17.0000 -11.5000 -12.0000 Du        
   9195 ****       -17.0000 -11.5000 -11.7500 Du        
   9196 ****       -17.0000 -11.5000 -11.5000 Du        
   9197 ****       -17.0000 -11.5000 -11.2500 Du        
   9198 ****       -17.0000 -11.2500 -12.0000 Du        
   9199 ****       -17.0000 -11.2500 -11.7500 Du        
   9200 ****       -17.0000 -11.2500 -11.5000 Du        
   9201 ****       -17.0000 -11.2500 -11.2500 Du        
   9202 ****       -17.0000 -11.2500 -11.0000 Du        
   9203 ****       -17.0000 -11.0000 -12.0000 Du        
   9204 ****       -17.0000 -11.0000 -11.7500 Du        
   9205 ****       -17.0000 -11.0000 -11.5000 Du        
   9206 ****       -17.0000 -11.0000 -11.2500 Du        
   9207 ****       -17.0000 -11.0000 -11.0000 Du        
   9208 ****       -17.0000 -10.7500 -11.5000 Du        
   9209 ****       -17.0000 -10.7500 -11.2500 Du        
   9210 ****       -17.0000 -10.7500 -11.0000 Du        
   9211 ****       -17.0000 -10.5000 -11.5000 Du        
   9212 ****       -17.0000 -10.5000 -11.2500 Du        
   9213 ****       -17.0000 -10.5000 -11.0000 Du        
   9214 ****       -17.0000 -10.2500 -11.0000 Du        
   9215 ****       -17.0000  -6.2500  -7.7500 Du        
   9216 ****       -17.0000  -6.2500  -7.5000 Du        
   9217 ****       -17.0000  -6.0000  -8.0000 Du        
   9218 ****       -17.0000  -6.0000  -7.7500 Du        
   9219 ****       -17.0000  -6.0000  -7.5000 Du        
   9220 ****       -17.0000  -6.0000  -7.2500 Du        
   9221 ****       -17.0000  -5.7500  -7.7500 Du        
   9222 ****       -17.0000  -5.7500  -7.5000 Du        
   9223 ****       -17.0000  -5.7500  -7.2500 Du        
   9224 ****       -17.0000  -5.5000  -7.7500 Du        
   9225 ****       -17.0000  -5.5000  -7.5000 Du        
   9226 ****       -17.0000  -2.7500  -7.2500 Du        
   9227 ****       -17.0000  -2.5000  -7.5000 Du        
   9228 ****       -17.0000  -2.5000  -7.2500 Du        
   9229 ****       -17.0000  -2.5000  -7.0000 Du        
   9230 ****       -17.0000  -2.5000  -6.7500 Du        
   9231 ****       -17.0000  -2.2500  -7.5000 Du        
   9232 ****       -17.0000  -2.2500  -7.2500 Du        
   9233 ****       -17.0000  -2.2500  -7.0000 Du        
   9234 ****       -17.0000  -2.2500  -6.7500 Du        
   9235 ****       -17.0000  -2.2500  -6.5000 Du        
   9236 ****       -17.0000  -2.2500  -6.2500 Du        
   9237 ****       -17.0000  -2.0000  -7.5000 Du        
   9238 ****       -17.0000  -2.0000  -7.2500 Du        
   9239 ****       -17.0000  -2.0000  -7.0000 Du        
   9240 ****       -17.0000  -2.0000  -6.7500 Du        
   9241 ****       -17.0000  -2.0000  -6.5000 Du        
   9242 ****       -17.0000  -2.0000  -6.2500 Du        
   9243 ****       -17.0000  -1.7500  -7.2500 Du        
   9244 ****       -17.0000  -1.7500  -7.0000 Du        
   9245 ****       -17.0000  -1.7500  -6.7500 Du        
   9246 ****       -17.0000  -1.7500  -6.5000 Du        
   9247 ****       -17.0000  -1.5000  -7.2500 Du        
   9248 ****       -17.0000  -1.5000  -7.0000 Du        
   9249 ****       -17.0000  -1.5000  -6.7500 Du        
   9250 ****       -17.0000  -1.2500  -7.0000 Du        
   9251 ****       -17.0000   4.7500 -10.5000 Du        
   9252 ****       -17.0000   4.7500 -10.2500 Du        
   9253 ****       -17.0000   4.7500 -10.0000 Du        
   9254 ****       -17.0000   4.7500  -9.7500 Du        
   9255 ****       -17.0000   4.7500  -9.5000 Du        
   9256 ****       -17.0000   4.7500  -9.2500 Du        
   9257 ****       -17.0000   4.7500  -9.0000 Du        
   9258 ****       -17.0000   5.0000 -10.7500 Du        
   9259 ****       -17.0000   5.0000 -10.5000 Du        
   9260 ****       -17.0000   5.0000 -10.2500 Du        
   9261 ****       -17.0000   5.0000 -10.0000 Du        
   9262 ****       -17.0000   5.0000  -9.7500 Du        
   9263 ****       -17.0000   5.0000  -9.5000 Du        
   9264 ****       -17.0000   5.0000  -9.2500 Du        
   9265 ****       -17.0000   5.0000  -9.0000 Du        
   9266 ****       -17.0000   5.0000  -8.7500 Du        
   9267 ****       -17.0000   5.2500 -17.2500 Du        
   9268 ****       -17.0000   5.2500 -11.0000 Du        
   9269 ****       -17.0000   5.2500 -10.7500 Du        
   9270 ****       -17.0000   5.2500 -10.5000 Du        
   9271 ****       -17.0000   5.2500 -10.2500 Du        
   9272 ****       -17.0000   5.2500 -10.0000 Du        
   9273 ****       -17.0000   5.2500  -9.7500 Du        
   9274 ****       -17.0000   5.2500  -9.5000 Du        
   9275 ****       -17.0000   5.2500  -9.2500 Du        
   9276 ****       -17.0000   5.2500  -9.0000 Du        
   9277 ****       -17.0000   5.2500  -8.7500 Du        
   9278 ****       -17.0000   5.5000 -17.7500 Du        
   9279 ****       -17.0000   5.5000 -17.5000 Du        
   9280 ****       -17.0000   5.5000 -17.2500 Du        
   9281 ****       -17.0000   5.5000 -17.0000 Du        
   9282 ****       -17.0000   5.5000 -11.0000 Du        
   9283 ****       -17.0000   5.5000 -10.7500 Du        
   9284 ****       -17.0000   5.5000 -10.5000 Du        
   9285 ****       -17.0000   5.5000 -10.2500 Du        
   9286 ****       -17.0000   5.5000 -10.0000 Du        
   9287 ****       -17.0000   5.5000  -9.7500 Du        
   9288 ****       -17.0000   5.5000  -9.5000 Du        
   9289 ****       -17.0000   5.5000  -9.2500 Du        
   9290 ****       -17.0000   5.5000  -9.0000 Du        
   9291 ****       -17.0000   5.5000  -8.7500 Du        
   9292 ****       -17.0000   5.7500 -18.0000 Du        
   9293 ****       -17.0000   5.7500 -17.7500 Du        
   9294 ****       -17.0000   5.7500 -17.5000 Du        
   9295 ****       -17.0000   5.7500 -17.2500 Du        
   9296 ****       -17.0000   5.7500 -17.0000 Du        
   9297 ****       -17.0000   5.7500 -16.7500 Du        
   9298 ****       -17.0000   5.7500 -11.0000 Du        
   9299 ****       -17.0000   5.7500 -10.7500 Du        
   9300 ****       -17.0000   5.7500 -10.5000 Du        
   9301 ****       -17.0000   5.7500 -10.2500 Du        
   9302 ****       -17.0000   5.7500 -10.0000 Du        
   9303 ****       -17.0000   5.7500  -9.7500 Du        
   9304 ****       -17.0000   5.7500  -9.5000 Du        
   9305 ****       -17.0000   5.7500  -9.2500 Du        
   9306 ****       -17.0000   5.7500  -9.0000 Du        
   9307 ****       -17.0000   5.7500  -8.7500 Du        
   9308 ****       -17.0000   6.0000 -18.0000 Du        
   9309 ****       -17.0000   6.0000 -17.7500 Du        
   9310 ****       -17.0000   6.0000 -17.5000 Du        
   9311 ****       -17.0000   6.0000 -17.2500 Du        
   9312 ****       -17.0000   6.0000 -17.0000 Du        
   9313 ****       -17.0000   6.0000 -16.7500 Du        
   9314 ****       -17.0000   6.0000 -10.7500 Du        
   9315 ****       -17.0000   6.0000 -10.5000 Du        
   9316 ****       -17.0000   6.0000 -10.2500 Du        
   9317 ****       -17.0000   6.0000 -10.0000 Du        
   9318 ****       -17.0000   6.0000  -9.7500 Du        
   9319 ****       -17.0000   6.0000  -9.5000 Du        
   9320 ****       -17.0000   6.0000  -9.2500 Du        
   9321 ****       -17.0000   6.2500 -17.7500 Du        
   9322 ****       -17.0000   6.2500 -17.5000 Du        
   9323 ****       -17.0000   6.2500 -17.2500 Du        
   9324 ****       -17.0000   6.2500 -17.0000 Du        
   9325 ****       -17.0000   6.2500 -16.7500 Du        
   9326 ****       -17.0000   6.2500 -10.5000 Du        
   9327 ****       -17.0000   6.2500 -10.2500 Du        
   9328 ****       -17.0000   6.2500 -10.0000 Du        
   9329 ****       -17.0000   6.2500  -9.7500 Du        
   9330 ****       -16.7500 -19.0000  -8.0000 Du        
   9331 ****       -16.7500 -19.0000  -7.7500 Du        
   9332 ****       -16.7500 -19.0000  -7.5000 Du        
   9333 ****       -16.7500 -18.7500 -22.0000 Du        
   9334 ****       -16.7500 -18.7500 -12.2500 Du        
   9335 ****       -16.7500 -18.7500 -12.0000 Du        
   9336 ****       -16.7500 -18.7500  -8.7500 Du        
   9337 ****       -16.7500 -18.7500  -8.5000 Du        
   9338 ****       -16.7500 -18.7500  -8.2500 Du        
   9339 ****       -16.7500 -18.7500  -8.0000 Du        
   9340 ****       -16.7500 -18.7500  -7.7500 Du        
   9341 ****       -16.7500 -18.7500  -7.5000 Du        
   9342 ****       -16.7500 -18.7500  -7.2500 Du        
   9343 ****       -16.7500 -18.5000 -22.2500 Du        
   9344 ****       -16.7500 -18.5000 -22.0000 Du        
   9345 ****       -16.7500 -18.5000 -21.7500 Du        
   9346 ****       -16.7500 -18.5000 -12.7500 Du        
   9347 ****       -16.7500 -18.5000 -12.5000 Du        
   9348 ****       -16.7500 -18.5000 -12.2500 Du        
   9349 ****       -16.7500 -18.5000 -12.0000 Du        
   9350 ****       -16.7500 -18.5000 -11.7500 Du        
   9351 ****       -16.7500 -18.5000 -11.5000 Du        
   9352 ****       -16.7500 -18.5000 -11.2500 Du        
   9353 ****       -16.7500 -18.5000  -9.0000 Du        
   9354 ****       -16.7500 -18.5000  -8.7500 Du        
   9355 ****       -16.7500 -18.5000  -8.5000 Du        
   9356 ****       -16.7500 -18.5000  -8.2500 Du        
   9357 ****       -16.7500 -18.5000  -8.0000 Du        
   9358 ****       -16.7500 -18.5000  -7.7500 Du        
   9359 ****       -16.7500 -18.5000  -7.5000 Du        
   9360 ****       -16.7500 -18.5000  -7.2500 Du        
   9361 ****       -16.7500 -18.5000  -7.0000 Du        
   9362 ****       -16.7500 -18.2500 -22.2500 Du        
   9363 ****       -16.7500 -18.2500 -22.0000 Du        
   9364 ****       -16.7500 -18.2500 -13.2500 Du        
   9365 ****       -16.7500 -18.2500 -13.0000 Du        
   9366 ****       -16.7500 -18.2500 -12.7500 Du        
   9367 ****       -16.7500 -18.2500 -12.5000 Du        
   9368 ****       -16.7500 -18.2500 -12.2500 Du        
   9369 ****       -16.7500 -18.2500 -12.0000 Du        
   9370 ****       -16.7500 -18.2500 -11.7500 Du        
   9371 ****       -16.7500 -18.2500 -11.5000 Du        
   9372 ****       -16.7500 -18.2500 -11.2500 Du        
   9373 ****       -16.7500 -18.2500 -11.0000 Du        
   9374 ****       -16.7500 -18.2500  -9.2500 Du        
   9375 ****       -16.7500 -18.2500  -9.0000 Du        
   9376 ****       -16.7500 -18.2500  -8.7500 Du        
   9377 ****       -16.7500 -18.2500  -8.5000 Du        
   9378 ****       -16.7500 -18.2500  -8.2500 Du        
   9379 ****       -16.7500 -18.2500  -8.0000 Du        
   9380 ****       -16.7500 -18.2500  -7.7500 Du        
   9381 ****       -16.7500 -18.2500  -7.5000 Du        
   9382 ****       -16.7500 -18.2500  -7.2500 Du        
   9383 ****       -16.7500 -18.2500  -7.0000 Du        
   9384 ****       -16.7500 -18.0000 -22.5000 Du        
   9385 ****       -16.7500 -18.0000 -22.2500 Du        
   9386 ****       -16.7500 -18.0000 -13.2500 Du        
   9387 ****       -16.7500 -18.0000 -13.0000 Du        
   9388 ****       -16.7500 -18.0000 -12.7500 Du        
   9389 ****       -16.7500 -18.0000 -12.5000 Du        
   9390 ****       -16.7500 -18.0000 -12.2500 Du        
   9391 ****       -16.7500 -18.0000 -12.0000 Du        
   9392 ****       -16.7500 -18.0000 -11.7500 Du        
   9393 ****       -16.7500 -18.0000 -11.5000 Du        
   9394 ****       -16.7500 -18.0000 -11.2500 Du        
   9395 ****       -16.7500 -18.0000 -11.0000 Du        
   9396 ****       -16.7500 -18.0000 -10.7500 Du        
   9397 ****       -16.7500 -18.0000  -9.2500 Du        
   9398 ****       -16.7500 -18.0000  -9.0000 Du        
   9399 ****       -16.7500 -18.0000  -8.7500 Du        
   9400 ****       -16.7500 -18.0000  -8.5000 Du        
   9401 ****       -16.7500 -18.0000  -8.2500 Du        
   9402 ****       -16.7500 -18.0000  -8.0000 Du        
   9403 ****       -16.7500 -18.0000  -7.7500 Du        
   9404 ****       -16.7500 -18.0000  -7.5000 Du        
   9405 ****       -16.7500 -17.7500 -22.5000 Du        
   9406 ****       -16.7500 -17.7500 -13.5000 Du        
   9407 ****       -16.7500 -17.7500 -13.2500 Du        
   9408 ****       -16.7500 -17.7500 -13.0000 Du        
   9409 ****       -16.7500 -17.7500 -12.7500 Du        
   9410 ****       -16.7500 -17.7500 -12.5000 Du        
   9411 ****       -16.7500 -17.7500 -12.2500 Du        
   9412 ****       -16.7500 -17.7500 -12.0000 Du        
   9413 ****       -16.7500 -17.7500 -11.7500 Du        
   9414 ****       -16.7500 -17.7500 -11.5000 Du        
   9415 ****       -16.7500 -17.7500 -11.2500 Du        
   9416 ****       -16.7500 -17.7500  -9.5000 Du        
   9417 ****       -16.7500 -17.7500  -9.2500 Du        
   9418 ****       -16.7500 -17.7500  -9.0000 Du        
   9419 ****       -16.7500 -17.7500  -8.7500 Du        
   9420 ****       -16.7500 -17.7500  -8.5000 Du        
   9421 ****       -16.7500 -17.7500  -8.2500 Du        
   9422 ****       -16.7500 -17.5000 -13.2500 Du        
   9423 ****       -16.7500 -17.5000 -13.0000 Du        
   9424 ****       -16.7500 -17.5000 -12.7500 Du        
   9425 ****       -16.7500 -17.5000 -12.5000 Du        
   9426 ****       -16.7500 -17.5000 -12.2500 Du        
   9427 ****       -16.7500 -17.5000 -12.0000 Du        
   9428 ****       -16.7500 -17.5000 -11.7500 Du        
   9429 ****       -16.7500 -17.2500 -13.2500 Du        
   9430 ****       -16.7500 -17.2500 -13.0000 Du        
   9431 ****       -16.7500 -17.2500 -12.7500 Du        
   9432 ****       -16.7500 -17.2500 -12.5000 Du        
   9433 ****       -16.7500 -17.2500 -12.2500 Du        
   9434 ****       -16.7500 -17.2500 -12.0000 Du        
   9435 ****       -16.7500 -17.0000 -13.2500 Du        
   9436 ****       -16.7500 -17.0000 -13.0000 Du        
   9437 ****       -16.7500 -17.0000 -12.7500 Du        
   9438 ****       -16.7500 -16.7500 -13.2500 Du        
   9439 ****       -16.7500 -16.7500 -13.0000 Du        
   9440 ****       -16.7500 -16.7500 -12.7500 Du        
   9441 ****       -16.7500 -16.7500   4.0000 Du        
   9442 ****       -16.7500 -16.5000 -25.2500 Du        
   9443 ****       -16.7500 -16.5000   4.0000 Du        
   9444 ****       -16.7500 -16.2500 -25.5000 Du        
   9445 ****       -16.7500 -16.2500 -25.2500 Du        
   9446 ****       -16.7500 -16.2500 -25.0000 Du        
   9447 ****       -16.7500 -16.2500 -24.7500 Du        
   9448 ****       -16.7500 -16.2500 -24.5000 Du        
   9449 ****       -16.7500 -16.2500 -24.2500 Du        
   9450 ****       -16.7500 -16.2500 -24.0000 Du        
   9451 ****       -16.7500 -16.2500 -23.7500 Du        
   9452 ****       -16.7500 -16.2500   4.0000 Du        
   9453 ****       -16.7500 -16.0000 -25.5000 Du        
   9454 ****       -16.7500 -16.0000 -25.2500 Du        
   9455 ****       -16.7500 -16.0000 -25.0000 Du        
   9456 ****       -16.7500 -16.0000 -24.7500 Du        
   9457 ****       -16.7500 -16.0000 -24.5000 Du        
   9458 ****       -16.7500 -16.0000 -24.2500 Du        
   9459 ****       -16.7500 -16.0000 -24.0000 Du        
   9460 ****       -16.7500 -16.0000 -23.7500 Du        
   9461 ****       -16.7500 -16.0000   4.0000 Du        
   9462 ****       -16.7500 -15.7500 -25.5000 Du        
   9463 ****       -16.7500 -15.7500 -25.2500 Du        
   9464 ****       -16.7500 -15.7500 -25.0000 Du        
   9465 ****       -16.7500 -15.7500 -24.7500 Du        
   9466 ****       -16.7500 -15.7500 -24.5000 Du        
   9467 ****       -16.7500 -15.7500 -24.2500 Du        
   9468 ****       -16.7500 -15.7500 -24.0000 Du        
   9469 ****       -16.7500 -15.7500 -23.7500 Du        
   9470 ****       -16.7500 -15.5000 -25.2500 Du        
   9471 ****       -16.7500 -15.5000 -25.0000 Du        
   9472 ****       -16.7500 -15.5000 -24.7500 Du        
   9473 ****       -16.7500 -15.5000 -24.5000 Du        
   9474 ****       -16.7500 -15.5000 -24.0000 Du        
   9475 ****       -16.7500 -15.2500 -25.2500 Du        
   9476 ****       -16.7500 -15.2500 -25.0000 Du        
   9477 ****       -16.7500 -15.2500 -24.7500 Du        
   9478 ****       -16.7500 -15.2500 -24.2500 Du        
   9479 ****       -16.7500 -15.2500 -24.0000 Du        
   9480 ****       -16.7500 -15.0000 -25.2500 Du        
   9481 ****       -16.7500 -15.0000 -25.0000 Du        
   9482 ****       -16.7500 -15.0000 -24.7500 Du        
   9483 ****       -16.7500 -15.0000 -24.0000 Du        
   9484 ****       -16.7500 -15.0000 -23.7500 Du        
   9485 ****       -16.7500 -14.7500 -24.7500 Du        
   9486 ****       -16.7500 -11.5000 -12.0000 Du        
   9487 ****       -16.7500 -11.5000 -11.7500 Du        
   9488 ****       -16.7500 -11.5000 -11.5000 Du        
   9489 ****       -16.7500 -11.5000 -11.2500 Du        
   9490 ****       -16.7500 -11.2500 -12.0000 Du        
   9491 ****       -16.7500 -11.2500 -11.7500 Du        
   9492 ****       -16.7500 -11.2500 -11.5000 Du        
   9493 ****       -16.7500 -11.2500 -11.2500 Du        
   9494 ****       -16.7500 -11.0000 -11.7500 Du        
   9495 ****       -16.7500 -11.0000 -11.5000 Du        
   9496 ****       -16.7500 -11.0000 -11.2500 Du        
   9497 ****       -16.7500 -10.7500 -11.5000 Du        
   9498 ****       -16.7500 -10.7500 -11.2500 Du        
   9499 ****       -16.7500 -10.5000 -11.2500 Du        
   9500 ****       -16.7500  -2.2500  -7.2500 Du        
   9501 ****       -16.7500  -2.2500  -7.0000 Du        
   9502 ****       -16.7500  -2.2500  -6.7500 Du        
   9503 ****       -16.7500  -2.0000  -7.2500 Du        
   9504 ****       -16.7500  -2.0000  -7.0000 Du        
   9505 ****       -16.7500  -2.0000  -6.7500 Du        
   9506 ****       -16.7500  -1.7500  -7.2500 Du        
   9507 ****       -16.7500  -1.7500  -7.0000 Du        
   9508 ****       -16.7500  -1.7500  -6.7500 Du        
   9509 ****       -16.7500  -1.5000  -7.0000 Du        
   9510 ****       -16.7500   5.0000 -10.5000 Du        
   9511 ****       -16.7500   5.0000 -10.2500 Du        
   9512 ****       -16.7500   5.0000 -10.0000 Du        
   9513 ****       -16.7500   5.0000  -9.7500 Du        
   9514 ****       -16.7500   5.0000  -9.5000 Du        
   9515 ****       -16.7500   5.0000  -9.2500 Du        
   9516 ****       -16.7500   5.0000  -9.0000 Du        
   9517 ****       -16.7500   5.0000  -8.7500 Du        
   9518 ****       -16.7500   5.0000  -8.2500 Du        
   9519 ****       -16.7500   5.2500 -17.2500 Du        
   9520 ****       -16.7500   5.2500 -10.5000 Du        
   9521 ****       -16.7500   5.2500 -10.2500 Du        
   9522 ****       -16.7500   5.2500 -10.0000 Du        
   9523 ****       -16.7500   5.2500  -9.7500 Du        
   9524 ****       -16.7500   5.2500  -9.5000 Du        
   9525 ****       -16.7500   5.2500  -9.2500 Du        
   9526 ****       -16.7500   5.2500  -9.0000 Du        
   9527 ****       -16.7500   5.2500  -8.7500 Du        
   9528 ****       -16.7500   5.2500  -8.5000 Du        
   9529 ****       -16.7500   5.2500  -8.2500 Du        
   9530 ****       -16.7500   5.2500  -8.0000 Du        
   9531 ****       -16.7500   5.5000 -17.5000 Du        
   9532 ****       -16.7500   5.5000 -17.2500 Du        
   9533 ****       -16.7500   5.5000 -17.0000 Du        
   9534 ****       -16.7500   5.5000 -10.5000 Du        
   9535 ****       -16.7500   5.5000 -10.2500 Du        
   9536 ****       -16.7500   5.5000 -10.0000 Du        
   9537 ****       -16.7500   5.5000  -9.7500 Du        
   9538 ****       -16.7500   5.5000  -9.5000 Du        
   9539 ****       -16.7500   5.5000  -9.2500 Du        
   9540 ****       -16.7500   5.5000  -9.0000 Du        
   9541 ****       -16.7500   5.5000  -8.7500 Du        
   9542 ****       -16.7500   5.5000  -8.5000 Du        
   9543 ****       -16.7500   5.7500 -17.7500 Du        
   9544 ****       -16.7500   5.7500 -17.5000 Du        
   9545 ****       -16.7500   5.7500 -17.2500 Du        
   9546 ****       -16.7500   5.7500 -17.0000 Du        
   9547 ****       -16.7500   5.7500 -16.7500 Du        
   9548 ****       -16.7500   5.7500 -10.2500 Du        
   9549 ****       -16.7500   5.7500 -10.0000 Du        
   9550 ****       -16.7500   5.7500  -9.7500 Du        
   9551 ****       -16.7500   5.7500  -9.5000 Du        
   9552 ****       -16.7500   5.7500  -9.2500 Du        
   9553 ****       -16.7500   5.7500  -9.0000 Du        
   9554 ****       -16.7500   5.7500  -8.7500 Du        
   9555 ****       -16.7500   6.0000 -17.5000 Du        
   9556 ****       -16.7500   6.0000 -17.2500 Du        
   9557 ****       -16.7500   6.0000 -17.0000 Du        
   9558 ****       -16.7500   6.0000 -16.7500 Du        
   9559 ****       -16.7500   6.0000 -10.2500 Du        
   9560 ****       -16.7500   6.0000 -10.0000 Du        
   9561 ****       -16.7500   6.0000  -9.7500 Du        
   9562 ****       -16.7500   6.0000  -9.5000 Du        
   9563 ****       -16.7500   6.0000  -9.2500 Du        
   9564 ****       -16.7500   6.0000  -9.0000 Du        
   9565 ****       -16.7500   6.2500 -10.0000 Du        
   9566 ****       -16.7500   6.2500  -9.7500 Du        
   9567 ****       -16.5000 -18.7500 -22.0000 Du        
   9568 ****       -16.5000 -18.7500 -21.7500 Du        
   9569 ****       -16.5000 -18.5000 -22.2500 Du        
   9570 ****       -16.5000 -18.5000 -22.0000 Du        
   9571 ****       -16.5000 -18.5000 -21.7500 Du        
   9572 ****       -16.5000 -18.5000 -12.7500 Du        
   9573 ****       -16.5000 -18.5000 -12.5000 Du        
   9574 ****       -16.5000 -18.5000 -12.2500 Du        
   9575 ****       -16.5000 -18.5000 -12.0000 Du        
   9576 ****       -16.5000 -18.5000 -11.7500 Du        
   9577 ****       -16.5000 -18.5000  -8.0000 Du        
   9578 ****       -16.5000 -18.5000  -7.7500 Du        
   9579 ****       -16.5000 -18.5000  -7.5000 Du        
   9580 ****       -16.5000 -18.5000  -7.2500 Du        
   9581 ****       -16.5000 -18.5000  -7.0000 Du        
   9582 ****       -16.5000 -18.2500 -22.2500 Du        
   9583 ****       -16.5000 -18.2500 -22.0000 Du        
   9584 ****       -16.5000 -18.2500 -21.7500 Du        
   9585 ****       -16.5000 -18.2500 -13.2500 Du        
   9586 ****       -16.5000 -18.2500 -13.0000 Du        
   9587 ****       -16.5000 -18.2500 -12.7500 Du        
   9588 ****       -16.5000 -18.2500 -12.5000 Du        
   9589 ****       -16.5000 -18.2500 -12.2500 Du        
   9590 ****       -16.5000 -18.2500 -12.0000 Du        
   9591 ****       -16.5000 -18.2500 -11.7500 Du        
   9592 ****       -16.5000 -18.2500  -8.2500 Du        
   9593 ****       -16.5000 -18.2500  -8.0000 Du        
   9594 ****       -16.5000 -18.2500  -7.7500 Du        
   9595 ****       -16.5000 -18.2500  -7.5000 Du        
   9596 ****       -16.5000 -18.2500  -7.2500 Du        
   9597 ****       -16.5000 -18.2500  -7.0000 Du        
   9598 ****       -16.5000 -18.0000 -22.5000 Du        
   9599 ****       -16.5000 -18.0000 -22.2500 Du        
   9600 ****       -16.5000 -18.0000 -22.0000 Du        
   9601 ****       -16.5000 -18.0000 -13.2500 Du        
   9602 ****       -16.5000 -18.0000 -13.0000 Du        
   9603 ****       -16.5000 -18.0000 -12.7500 Du        
   9604 ****       -16.5000 -18.0000 -12.5000 Du        
   9605 ****       -16.5000 -18.0000 -12.2500 Du        
   9606 ****       -16.5000 -18.0000 -12.0000 Du        
   9607 ****       -16.5000 -18.0000 -11.7500 Du        
   9608 ****       -16.5000 -18.0000 -11.5000 Du        
   9609 ****       -16.5000 -18.0000  -9.0000 Du        
   9610 ****       -16.5000 -18.0000  -8.7500 Du        
   9611 ****       -16.5000 -18.0000  -8.5000 Du        
   9612 ****       -16.5000 -18.0000  -8.2500 Du        
   9613 ****       -16.5000 -18.0000  -8.0000 Du        
   9614 ****       -16.5000 -18.0000  -7.7500 Du        
   9615 ****       -16.5000 -17.7500 -22.5000 Du        
   9616 ****       -16.5000 -17.7500 -22.2500 Du        
   9617 ****       -16.5000 -17.7500 -13.2500 Du        
   9618 ****       -16.5000 -17.7500 -13.0000 Du        
   9619 ****       -16.5000 -17.7500 -12.7500 Du        
   9620 ****       -16.5000 -17.7500 -12.5000 Du        
   9621 ****       -16.5000 -17.7500 -12.2500 Du        
   9622 ****       -16.5000 -17.7500 -12.0000 Du        
   9623 ****       -16.5000 -17.7500 -11.7500 Du        
   9624 ****       -16.5000 -17.7500  -9.0000 Du        
   9625 ****       -16.5000 -17.7500  -8.7500 Du        
   9626 ****       -16.5000 -17.5000 -22.5000 Du        
   9627 ****       -16.5000 -17.5000 -13.2500 Du        
   9628 ****       -16.5000 -17.5000 -13.0000 Du        
   9629 ****       -16.5000 -17.5000 -12.7500 Du        
   9630 ****       -16.5000 -17.5000 -12.5000 Du        
   9631 ****       -16.5000 -17.5000 -12.2500 Du        
   9632 ****       -16.5000 -17.5000 -12.0000 Du        
   9633 ****       -16.5000 -17.2500 -22.7500 Du        
   9634 ****       -16.5000 -17.2500 -13.2500 Du        
   9635 ****       -16.5000 -17.2500 -13.0000 Du        
   9636 ****       -16.5000 -17.2500 -12.7500 Du        
   9637 ****       -16.5000 -17.0000 -23.0000 Du        
   9638 ****       -16.5000 -17.0000 -13.0000 Du        
   9639 ****       -16.5000 -17.0000 -12.7500 Du        
   9640 ****       -16.5000 -16.7500 -13.0000 Du        
   9641 ****       -16.5000 -16.7500   4.0000 Du        
   9642 ****       -16.5000 -16.5000   4.0000 Du        
   9643 ****       -16.5000 -16.2500   4.0000 Du        
   9644 ****       -16.5000 -16.0000 -25.5000 Du        
   9645 ****       -16.5000 -16.0000 -25.2500 Du        
   9646 ****       -16.5000 -16.0000 -25.0000 Du        
   9647 ****       -16.5000 -16.0000 -24.7500 Du        
   9648 ****       -16.5000 -16.0000 -24.0000 Du        
   9649 ****       -16.5000 -15.7500 -25.5000 Du        
   9650 ****       -16.5000 -15.7500 -25.2500 Du        
   9651 ****       -16.5000 -15.7500 -25.0000 Du        
   9652 ****       -16.5000 -15.7500 -24.7500 Du        
   9653 ****       -16.5000 -15.5000 -25.5000 Du        
   9654 ****       -16.5000 -15.5000 -25.2500 Du        
   9655 ****       -16.5000 -15.5000 -25.0000 Du        
   9656 ****       -16.5000 -15.5000 -24.7500 Du        
   9657 ****       -16.5000 -15.5000 -24.0000 Du        
   9658 ****       -16.5000 -15.2500 -25.5000 Du        
   9659 ****       -16.5000 -15.2500 -25.2500 Du        
   9660 ****       -16.5000 -15.2500 -25.0000 Du        
   9661 ****       -16.5000 -15.2500 -24.7500 Du        
   9662 ****       -16.5000 -15.0000 -25.5000 Du        
   9663 ****       -16.5000 -15.0000 -25.2500 Du        
   9664 ****       -16.5000 -15.0000 -25.0000 Du        
   9665 ****       -16.5000 -15.0000 -24.7500 Du        
   9666 ****       -16.5000 -14.7500 -25.2500 Du        
   9667 ****       -16.5000 -14.7500 -24.7500 Du        
   9668 ****       -16.5000 -11.5000 -11.7500 Du        
   9669 ****       -16.5000 -11.2500 -11.7500 Du        
   9670 ****       -16.5000 -11.0000 -11.7500 Du        
   9671 ****       -16.5000  -2.0000  -7.2500 Du        
   9672 ****       -16.5000  -2.0000  -7.0000 Du        
   9673 ****       -16.5000  -1.7500  -7.2500 Du        
   9674 ****       -16.5000  -1.7500  -7.0000 Du        
   9675 ****       -16.5000   5.0000 -10.0000 Du        
   9676 ****       -16.5000   5.0000  -9.7500 Du        
   9677 ****       -16.5000   5.0000  -9.5000 Du        
   9678 ****       -16.5000   5.0000  -9.2500 Du        
   9679 ****       -16.5000   5.0000  -9.0000 Du        
   9680 ****       -16.5000   5.0000  -8.7500 Du        
   9681 ****       -16.5000   5.2500 -10.0000 Du        
   9682 ****       -16.5000   5.2500  -9.7500 Du        
   9683 ****       -16.5000   5.2500  -9.5000 Du        
   9684 ****       -16.5000   5.2500  -9.2500 Du        
   9685 ****       -16.5000   5.2500  -9.0000 Du        
   9686 ****       -16.5000   5.2500  -8.7500 Du        
   9687 ****       -16.5000   5.2500  -8.5000 Du        
   9688 ****       -16.5000   5.2500  -8.2500 Du        
   9689 ****       -16.5000   5.2500  -8.0000 Du        
   9690 ****       -16.5000   5.5000  -9.7500 Du        
   9691 ****       -16.5000   5.5000  -9.5000 Du        
   9692 ****       -16.5000   5.5000  -9.2500 Du        
   9693 ****       -16.5000   5.5000  -9.0000 Du        
   9694 ****       -16.5000   5.5000  -8.7500 Du        
   9695 ****       -16.5000   5.5000  -8.5000 Du        
   9696 ****       -16.5000   5.5000  -8.2500 Du        
   9697 ****       -16.5000   5.5000  -8.0000 Du        
   9698 ****       -16.5000   5.7500  -9.7500 Du        
   9699 ****       -16.5000   5.7500  -9.5000 Du        
   9700 ****       -16.5000   5.7500  -9.2500 Du        
   9701 ****       -16.5000   5.7500  -9.0000 Du        
   9702 ****       -16.5000   5.7500  -8.7500 Du        
   9703 ****       -16.5000   5.7500  -8.5000 Du        
   9704 ****       -16.5000   5.7500  -8.2500 Du        
   9705 ****       -16.5000   5.7500  -8.0000 Du        
   9706 ****       -16.5000   5.7500  -7.7500 Du        
   9707 ****       -16.5000   6.0000  -9.7500 Du        
   9708 ****       -16.5000   6.0000  -9.5000 Du        
   9709 ****       -16.5000   6.0000  -9.2500 Du        
   9710 ****       -16.5000   6.0000  -9.0000 Du        
   9711 ****       -16.5000   6.0000  -8.7500 Du        
   9712 ****       -16.5000   6.0000  -8.5000 Du        
   9713 ****       -16.5000   6.0000  -8.2500 Du        
   9714 ****       -16.5000   6.0000  -8.0000 Du        
   9715 ****       -16.5000   6.0000  -7.7500 Du        
   9716 ****       -16.5000   6.2500  -9.2500 Du        
   9717 ****       -16.5000   6.2500  -9.0000 Du        
   9718 ****       -16.5000   6.2500  -8.7500 Du        
   9719 ****       -16.5000   6.2500  -8.5000 Du        
   9720 ****       -16.2500 -18.7500 -12.5000 Du        
   9721 ****       -16.2500 -18.7500 -12.2500 Du        
   9722 ****       -16.2500 -18.5000 -22.2500 Du        
   9723 ****       -16.2500 -18.5000 -22.0000 Du        
   9724 ****       -16.2500 -18.5000 -21.7500 Du        
   9725 ****       -16.2500 -18.5000 -21.5000 Du        
   9726 ****       -16.2500 -18.5000 -13.0000 Du        
   9727 ****       -16.2500 -18.5000 -12.7500 Du        
   9728 ****       -16.2500 -18.5000 -12.5000 Du        
   9729 ****       -16.2500 -18.5000 -12.2500 Du        
   9730 ****       -16.2500 -18.5000 -12.0000 Du        
   9731 ****       -16.2500 -18.5000  -7.2500 Du        
   9732 ****       -16.2500 -18.2500 -22.2500 Du        
   9733 ****       -16.2500 -18.2500 -22.0000 Du        
   9734 ****       -16.2500 -18.2500 -21.7500 Du        
   9735 ****       -16.2500 -18.2500 -21.5000 Du        
   9736 ****       -16.2500 -18.2500 -13.2500 Du        
   9737 ****       -16.2500 -18.2500 -13.0000 Du        
   9738 ****       -16.2500 -18.2500 -12.7500 Du        
   9739 ****       -16.2500 -18.2500 -12.5000 Du        
   9740 ****       -16.2500 -18.2500 -12.2500 Du        
   9741 ****       -16.2500 -18.2500 -12.0000 Du        
   9742 ****       -16.2500 -18.2500 -11.7500 Du        
   9743 ****       -16.2500 -18.2500  -8.0000 Du        
   9744 ****       -16.2500 -18.2500  -7.7500 Du        
   9745 ****       -16.2500 -18.2500  -7.5000 Du        
   9746 ****       -16.2500 -18.2500  -7.2500 Du        
   9747 ****       -16.2500 -18.0000 -22.5000 Du        
   9748 ****       -16.2500 -18.0000 -22.2500 Du        
   9749 ****       -16.2500 -18.0000 -22.0000 Du        
   9750 ****       -16.2500 -18.0000 -21.7500 Du        
   9751 ****       -16.2500 -18.0000 -13.5000 Du        
   9752 ****       -16.2500 -18.0000 -13.2500 Du        
   9753 ****       -16.2500 -18.0000 -13.0000 Du        
   9754 ****       -16.2500 -18.0000 -12.7500 Du        
   9755 ****       -16.2500 -18.0000 -12.5000 Du        
   9756 ****       -16.2500 -18.0000 -12.2500 Du        
   9757 ****       -16.2500 -18.0000 -12.0000 Du        
   9758 ****       -16.2500 -18.0000 -11.7500 Du        
   9759 ****       -16.2500 -18.0000  -8.0000 Du        
   9760 ****       -16.2500 -17.7500 -22.5000 Du        
   9761 ****       -16.2500 -17.7500 -22.2500 Du        
   9762 ****       -16.2500 -17.7500 -22.0000 Du        
   9763 ****       -16.2500 -17.7500 -13.2500 Du        
   9764 ****       -16.2500 -17.7500 -13.0000 Du        
   9765 ****       -16.2500 -17.7500 -12.7500 Du        
   9766 ****       -16.2500 -17.7500 -12.5000 Du        
   9767 ****       -16.2500 -17.7500 -12.2500 Du        
   9768 ****       -16.2500 -17.7500 -12.0000 Du        
   9769 ****       -16.2500 -17.7500 -11.7500 Du        
   9770 ****       -16.2500 -17.5000 -22.7500 Du        
   9771 ****       -16.2500 -17.5000 -22.5000 Du        
   9772 ****       -16.2500 -17.5000 -22.2500 Du        
   9773 ****       -16.2500 -17.5000 -13.2500 Du        
   9774 ****       -16.2500 -17.5000 -13.0000 Du        
   9775 ****       -16.2500 -17.5000 -12.7500 Du        
   9776 ****       -16.2500 -17.5000 -12.5000 Du        
   9777 ****       -16.2500 -17.5000 -12.2500 Du        
   9778 ****       -16.2500 -17.5000 -12.0000 Du        
   9779 ****       -16.2500 -17.2500 -23.0000 Du        
   9780 ****       -16.2500 -17.2500 -22.7500 Du        
   9781 ****       -16.2500 -17.2500 -22.5000 Du        
   9782 ****       -16.2500 -17.2500 -13.2500 Du        
   9783 ****       -16.2500 -17.2500 -13.0000 Du        
   9784 ****       -16.2500 -17.2500 -12.7500 Du        
   9785 ****       -16.2500 -17.2500 -12.2500 Du        
   9786 ****       -16.2500 -17.0000 -23.0000 Du        
   9787 ****       -16.2500 -17.0000 -22.7500 Du        
   9788 ****       -16.2500 -17.0000 -13.2500 Du        
   9789 ****       -16.2500 -17.0000 -13.0000 Du        
   9790 ****       -16.2500 -17.0000 -12.7500 Du        
   9791 ****       -16.2500 -16.7500 -23.2500 Du        
   9792 ****       -16.2500 -16.7500 -23.0000 Du        
   9793 ****       -16.2500 -16.7500 -22.7500 Du        
   9794 ****       -16.2500 -16.7500 -13.0000 Du        
   9795 ****       -16.2500 -16.7500   4.0000 Du        
   9796 ****       -16.2500 -16.5000   4.0000 Du        
   9797 ****       -16.2500 -16.0000 -25.2500 Du        
   9798 ****       -16.2500 -16.0000 -25.0000 Du        
   9799 ****       -16.2500 -16.0000 -24.7500 Du        
   9800 ****       -16.2500 -16.0000 -24.0000 Du        
   9801 ****       -16.2500 -16.0000 -23.7500 Du        
   9802 ****       -16.2500 -15.7500 -25.5000 Du        
   9803 ****       -16.2500 -15.7500 -25.2500 Du        
   9804 ****       -16.2500 -15.7500 -25.0000 Du        
   9805 ****       -16.2500 -15.7500 -24.7500 Du        
   9806 ****       -16.2500 -15.7500 -23.7500 Du        
   9807 ****       -16.2500 -15.5000 -25.5000 Du        
   9808 ****       -16.2500 -15.5000 -25.2500 Du        
   9809 ****       -16.2500 -15.5000 -25.0000 Du        
   9810 ****       -16.2500 -15.5000 -24.7500 Du        
   9811 ****       -16.2500 -15.2500 -25.5000 Du        
   9812 ****       -16.2500 -15.2500 -25.2500 Du        
   9813 ****       -16.2500 -15.2500 -25.0000 Du        
   9814 ****       -16.2500 -15.2500 -24.7500 Du        
   9815 ****       -16.2500 -15.0000 -25.5000 Du        
   9816 ****       -16.2500 -15.0000 -25.2500 Du        
   9817 ****       -16.2500 -15.0000 -25.0000 Du        
   9818 ****       -16.2500 -15.0000 -24.7500 Du        
   9819 ****       -16.2500 -14.7500 -25.2500 Du        
   9820 ****       -16.2500 -11.2500 -11.7500 Du        
   9821 ****       -16.2500 -11.0000 -11.7500 Du        
   9822 ****       -16.2500   5.2500  -9.2500 Du        
   9823 ****       -16.2500   5.2500  -9.0000 Du        
   9824 ****       -16.2500   5.2500  -8.7500 Du        
   9825 ****       -16.2500   5.2500  -8.5000 Du        
   9826 ****       -16.2500   5.2500  -8.2500 Du        
   9827 ****       -16.2500   5.2500  -8.0000 Du        
   9828 ****       -16.2500   5.5000  -9.2500 Du        
   9829 ****       -16.2500   5.5000  -9.0000 Du        
   9830 ****       -16.2500   5.5000  -8.7500 Du        
   9831 ****       -16.2500   5.5000  -8.5000 Du        
   9832 ****       -16.2500   5.5000  -8.2500 Du        
   9833 ****       -16.2500   5.5000  -8.0000 Du        
   9834 ****       -16.2500   5.7500  -9.2500 Du        
   9835 ****       -16.2500   5.7500  -9.0000 Du        
   9836 ****       -16.2500   5.7500  -8.7500 Du        
   9837 ****       -16.2500   5.7500  -8.5000 Du        
   9838 ****       -16.2500   5.7500  -8.2500 Du        
   9839 ****       -16.2500   5.7500  -8.0000 Du        
   9840 ****       -16.2500   5.7500  -7.7500 Du        
   9841 ****       -16.2500   6.0000  -9.2500 Du        
   9842 ****       -16.2500   6.0000  -9.0000 Du        
   9843 ****       -16.2500   6.0000  -8.7500 Du        
   9844 ****       -16.2500   6.0000  -8.5000 Du        
   9845 ****       -16.2500   6.0000  -8.2500 Du        
   9846 ****       -16.2500   6.0000  -8.0000 Du        
   9847 ****       -16.2500   6.0000  -7.7500 Du        
   9848 ****       -16.2500   6.2500  -9.2500 Du        
   9849 ****       -16.2500   6.2500  -9.0000 Du        
   9850 ****       -16.2500   6.2500  -8.7500 Du        
   9851 ****       -16.2500   6.2500  -8.5000 Du        
   9852 ****       -16.2500   6.2500  -8.2500 Du        
   9853 ****       -16.2500   6.2500  -8.0000 Du        
   9854 ****       -16.0000 -29.0000 -14.5000 Du        
   9855 ****       -16.0000 -29.0000 -14.2500 Du        
   9856 ****       -16.0000 -29.0000 -14.0000 Du        
   9857 ****       -16.0000 -18.7500 -13.0000 Du        
   9858 ****       -16.0000 -18.7500 -12.7500 Du        
   9859 ****       -16.0000 -18.7500 -12.5000 Du        
   9860 ****       -16.0000 -18.5000 -22.0000 Du        
   9861 ****       -16.0000 -18.5000 -21.7500 Du        
   9862 ****       -16.0000 -18.5000 -21.5000 Du        
   9863 ****       -16.0000 -18.5000 -13.2500 Du        
   9864 ****       -16.0000 -18.5000 -13.0000 Du        
   9865 ****       -16.0000 -18.5000 -12.7500 Du        
   9866 ****       -16.0000 -18.5000 -12.5000 Du        
   9867 ****       -16.0000 -18.5000 -12.2500 Du        
   9868 ****       -16.0000 -18.2500 -22.2500 Du        
   9869 ****       -16.0000 -18.2500 -22.0000 Du        
   9870 ****       -16.0000 -18.2500 -21.7500 Du        
   9871 ****       -16.0000 -18.2500 -21.5000 Du        
   9872 ****       -16.0000 -18.2500 -13.2500 Du        
   9873 ****       -16.0000 -18.2500 -13.0000 Du        
   9874 ****       -16.0000 -18.2500 -12.7500 Du        
   9875 ****       -16.0000 -18.2500 -12.5000 Du        
   9876 ****       -16.0000 -18.2500 -12.2500 Du        
   9877 ****       -16.0000 -18.2500 -12.0000 Du        
   9878 ****       -16.0000 -18.0000 -22.5000 Du        
   9879 ****       -16.0000 -18.0000 -22.2500 Du        
   9880 ****       -16.0000 -18.0000 -22.0000 Du        
   9881 ****       -16.0000 -18.0000 -21.7500 Du        
   9882 ****       -16.0000 -18.0000 -21.5000 Du        
   9883 ****       -16.0000 -18.0000 -13.5000 Du        
   9884 ****       -16.0000 -18.0000 -13.2500 Du        
   9885 ****       -16.0000 -18.0000 -13.0000 Du        
   9886 ****       -16.0000 -18.0000 -12.7500 Du        
   9887 ****       -16.0000 -18.0000 -12.5000 Du        
   9888 ****       -16.0000 -18.0000 -12.2500 Du        
   9889 ****       -16.0000 -18.0000 -12.0000 Du        
   9890 ****       -16.0000 -17.7500 -22.5000 Du        
   9891 ****       -16.0000 -17.7500 -22.2500 Du        
   9892 ****       -16.0000 -17.7500 -22.0000 Du        
   9893 ****       -16.0000 -17.7500 -21.7500 Du        
   9894 ****       -16.0000 -17.7500 -13.5000 Du        
   9895 ****       -16.0000 -17.7500 -13.2500 Du        
   9896 ****       -16.0000 -17.7500 -13.0000 Du        
   9897 ****       -16.0000 -17.7500 -12.7500 Du        
   9898 ****       -16.0000 -17.7500 -12.5000 Du        
   9899 ****       -16.0000 -17.7500 -12.2500 Du        
   9900 ****       -16.0000 -17.7500 -12.0000 Du        
   9901 ****       -16.0000 -17.5000 -22.7500 Du        
   9902 ****       -16.0000 -17.5000 -22.5000 Du        
   9903 ****       -16.0000 -17.5000 -22.2500 Du        
   9904 ****       -16.0000 -17.5000 -22.0000 Du        
   9905 ****       -16.0000 -17.5000 -13.2500 Du        
   9906 ****       -16.0000 -17.5000 -13.0000 Du        
   9907 ****       -16.0000 -17.5000 -12.7500 Du        
   9908 ****       -16.0000 -17.5000 -12.5000 Du        
   9909 ****       -16.0000 -17.5000 -12.2500 Du        
   9910 ****       -16.0000 -17.2500 -23.0000 Du        
   9911 ****       -16.0000 -17.2500 -22.7500 Du        
   9912 ****       -16.0000 -17.2500 -22.5000 Du        
   9913 ****       -16.0000 -17.2500 -22.2500 Du        
   9914 ****       -16.0000 -17.2500 -13.2500 Du        
   9915 ****       -16.0000 -17.2500 -13.0000 Du        
   9916 ****       -16.0000 -17.2500 -12.7500 Du        
   9917 ****       -16.0000 -17.0000 -23.2500 Du        
   9918 ****       -16.0000 -17.0000 -23.0000 Du        
   9919 ****       -16.0000 -17.0000 -22.7500 Du        
   9920 ****       -16.0000 -17.0000 -22.5000 Du        
   9921 ****       -16.0000 -17.0000 -22.2500 Du        
   9922 ****       -16.0000 -17.0000 -13.2500 Du        
   9923 ****       -16.0000 -17.0000 -13.0000 Du        
   9924 ****       -16.0000 -17.0000 -12.7500 Du        
   9925 ****       -16.0000 -16.7500 -23.2500 Du        
   9926 ****       -16.0000 -16.7500 -23.0000 Du        
   9927 ****       -16.0000 -16.7500 -22.7500 Du        
   9928 ****       -16.0000 -16.7500 -22.5000 Du        
   9929 ****       -16.0000 -16.7500   4.0000 Du        
   9930 ****       -16.0000 -16.5000 -23.5000 Du        
   9931 ****       -16.0000 -16.5000 -23.2500 Du        
   9932 ****       -16.0000 -16.5000 -23.0000 Du        
   9933 ****       -16.0000 -16.2500 -23.7500 Du        
   9934 ****       -16.0000 -16.2500 -23.5000 Du        
   9935 ****       -16.0000 -16.2500 -23.2500 Du        
   9936 ****       -16.0000 -16.2500 -23.0000 Du        
   9937 ****       -16.0000 -16.0000 -25.2500 Du        
   9938 ****       -16.0000 -16.0000 -25.0000 Du        
   9939 ****       -16.0000 -16.0000 -24.0000 Du        
   9940 ****       -16.0000 -16.0000 -23.7500 Du        
   9941 ****       -16.0000 -16.0000 -23.5000 Du        
   9942 ****       -16.0000 -16.0000 -23.2500 Du        
   9943 ****       -16.0000 -15.7500 -25.5000 Du        
   9944 ****       -16.0000 -15.7500 -25.2500 Du        
   9945 ****       -16.0000 -15.7500 -25.0000 Du        
   9946 ****       -16.0000 -15.7500 -24.0000 Du        
   9947 ****       -16.0000 -15.7500 -23.7500 Du        
   9948 ****       -16.0000 -15.5000 -25.5000 Du        
   9949 ****       -16.0000 -15.5000 -25.2500 Du        
   9950 ****       -16.0000 -15.5000 -25.0000 Du        
   9951 ****       -16.0000 -15.5000 -24.7500 Du        
   9952 ****       -16.0000 -15.2500 -25.7500 Du        
   9953 ****       -16.0000 -15.2500 -25.5000 Du        
   9954 ****       -16.0000 -15.2500 -25.2500 Du        
   9955 ****       -16.0000 -15.2500 -25.0000 Du        
   9956 ****       -16.0000 -15.2500 -24.7500 Du        
   9957 ****       -16.0000 -15.0000 -25.5000 Du        
   9958 ****       -16.0000 -15.0000 -25.2500 Du        
   9959 ****       -16.0000 -15.0000 -24.7500 Du        
   9960 ****       -16.0000 -14.7500 -25.2500 Du        
   9961 ****       -16.0000   5.2500  -8.7500 Du        
   9962 ****       -16.0000   5.5000  -9.0000 Du        
   9963 ****       -16.0000   5.5000  -8.7500 Du        
   9964 ****       -16.0000   5.5000  -8.5000 Du        
   9965 ****       -16.0000   5.5000  -8.2500 Du        
   9966 ****       -16.0000   5.5000  -8.0000 Du        
   9967 ****       -16.0000   5.7500  -9.0000 Du        
   9968 ****       -16.0000   5.7500  -8.7500 Du        
   9969 ****       -16.0000   5.7500  -8.5000 Du        
   9970 ****       -16.0000   5.7500  -8.2500 Du        
   9971 ****       -16.0000   5.7500  -8.0000 Du        
   9972 ****       -16.0000   5.7500  -7.7500 Du        
   9973 ****       -16.0000   6.0000  -9.2500 Du        
   9974 ****       -16.0000   6.0000  -9.0000 Du        
   9975 ****       -16.0000   6.0000  -8.7500 Du        
   9976 ****       -16.0000   6.0000  -8.5000 Du        
   9977 ****       -16.0000   6.0000  -8.2500 Du        
   9978 ****       -16.0000   6.0000  -8.0000 Du        
   9979 ****       -16.0000   6.0000  -7.7500 Du        
   9980 ****       -16.0000   6.2500  -9.0000 Du        
   9981 ****       -16.0000   6.2500  -8.7500 Du        
   9982 ****       -16.0000   6.2500  -8.5000 Du        
   9983 ****       -16.0000   6.2500  -8.2500 Du        
   9984 ****       -16.0000   6.2500  -8.0000 Du        
   9985 ****       -16.0000   6.2500  -7.7500 Du        
   9986 ****       -16.0000   6.5000  -8.5000 Du        
   9987 ****       -16.0000   6.5000  -8.2500 Du        
   9988 ****       -15.7500 -29.0000 -14.5000 Du        
   9989 ****       -15.7500 -29.0000 -14.2500 Du        
   9990 ****       -15.7500 -29.0000 -14.0000 Du        
   9991 ****       -15.7500 -29.0000 -13.7500 Du        
   9992 ****       -15.7500 -18.7500 -13.2500 Du        
   9993 ****       -15.7500 -18.7500 -13.0000 Du        
   9994 ****       -15.7500 -18.7500 -12.7500 Du        
   9995 ****       -15.7500 -18.7500 -12.5000 Du        
   9996 ****       -15.7500 -18.5000 -22.0000 Du        
   9997 ****       -15.7500 -18.5000 -21.7500 Du        
   9998 ****       -15.7500 -18.5000 -13.5000 Du        
   9999 ****       -15.7500 -18.5000 -13.2500 Du        
  10000 ****       -15.7500 -18.5000 -13.0000 Du        
  10001 ****       -15.7500 -18.5000 -12.7500 Du        
  10002 ****       -15.7500 -18.5000 -12.5000 Du        
  10003 ****       -15.7500 -18.5000 -12.2500 Du        
  10004 ****       -15.7500 -18.2500 -22.2500 Du        
  10005 ****       -15.7500 -18.2500 -22.0000 Du        
  10006 ****       -15.7500 -18.2500 -21.7500 Du        
  10007 ****       -15.7500 -18.2500 -21.5000 Du        
  10008 ****       -15.7500 -18.2500 -21.2500 Du        
  10009 ****       -15.7500 -18.2500 -13.5000 Du        
  10010 ****       -15.7500 -18.2500 -13.2500 Du        
  10011 ****       -15.7500 -18.2500 -13.0000 Du        
  10012 ****       -15.7500 -18.2500 -12.7500 Du        
  10013 ****       -15.7500 -18.2500 -12.5000 Du        
  10014 ****       -15.7500 -18.2500 -12.2500 Du        
  10015 ****       -15.7500 -18.0000 -22.5000 Du        
  10016 ****       -15.7500 -18.0000 -22.2500 Du        
  10017 ****       -15.7500 -18.0000 -22.0000 Du        
  10018 ****       -15.7500 -18.0000 -21.7500 Du        
  10019 ****       -15.7500 -18.0000 -21.5000 Du        
  10020 ****       -15.7500 -18.0000 -21.2500 Du        
  10021 ****       -15.7500 -18.0000 -13.5000 Du        
  10022 ****       -15.7500 -18.0000 -13.2500 Du        
  10023 ****       -15.7500 -18.0000 -13.0000 Du        
  10024 ****       -15.7500 -18.0000 -12.7500 Du        
  10025 ****       -15.7500 -18.0000 -12.5000 Du        
  10026 ****       -15.7500 -18.0000 -12.2500 Du        
  10027 ****       -15.7500 -18.0000 -12.0000 Du        
  10028 ****       -15.7500 -17.7500 -22.5000 Du        
  10029 ****       -15.7500 -17.7500 -22.2500 Du        
  10030 ****       -15.7500 -17.7500 -22.0000 Du        
  10031 ****       -15.7500 -17.7500 -21.7500 Du        
  10032 ****       -15.7500 -17.7500 -21.5000 Du        
  10033 ****       -15.7500 -17.7500 -13.5000 Du        
  10034 ****       -15.7500 -17.7500 -13.2500 Du        
  10035 ****       -15.7500 -17.7500 -13.0000 Du        
  10036 ****       -15.7500 -17.7500 -12.7500 Du        
  10037 ****       -15.7500 -17.7500 -12.5000 Du        
  10038 ****       -15.7500 -17.7500 -12.2500 Du        
  10039 ****       -15.7500 -17.7500 -12.0000 Du        
  10040 ****       -15.7500 -17.5000 -22.7500 Du        
  10041 ****       -15.7500 -17.5000 -22.5000 Du        
  10042 ****       -15.7500 -17.5000 -22.2500 Du        
  10043 ****       -15.7500 -17.5000 -22.0000 Du        
  10044 ****       -15.7500 -17.5000 -21.7500 Du        
  10045 ****       -15.7500 -17.5000 -13.2500 Du        
  10046 ****       -15.7500 -17.5000 -13.0000 Du        
  10047 ****       -15.7500 -17.5000 -12.7500 Du        
  10048 ****       -15.7500 -17.5000 -12.5000 Du        
  10049 ****       -15.7500 -17.2500 -23.0000 Du        
  10050 ****       -15.7500 -17.2500 -22.7500 Du        
  10051 ****       -15.7500 -17.2500 -22.5000 Du        
  10052 ****       -15.7500 -17.2500 -22.2500 Du        
  10053 ****       -15.7500 -17.2500 -22.0000 Du        
  10054 ****       -15.7500 -17.2500 -13.2500 Du        
  10055 ****       -15.7500 -17.2500 -13.0000 Du        
  10056 ****       -15.7500 -17.2500 -12.7500 Du        
  10057 ****       -15.7500 -17.0000 -23.2500 Du        
  10058 ****       -15.7500 -17.0000 -23.0000 Du        
  10059 ****       -15.7500 -17.0000 -22.7500 Du        
  10060 ****       -15.7500 -17.0000 -22.5000 Du        
  10061 ****       -15.7500 -17.0000 -22.2500 Du        
  10062 ****       -15.7500 -17.0000 -22.0000 Du        
  10063 ****       -15.7500 -17.0000 -13.2500 Du        
  10064 ****       -15.7500 -17.0000 -13.0000 Du        
  10065 ****       -15.7500 -17.0000 -12.7500 Du        
  10066 ****       -15.7500 -16.7500 -23.2500 Du        
  10067 ****       -15.7500 -16.7500 -23.0000 Du        
  10068 ****       -15.7500 -16.7500 -22.7500 Du        
  10069 ****       -15.7500 -16.7500 -22.5000 Du        
  10070 ****       -15.7500 -16.7500 -22.2500 Du        
  10071 ****       -15.7500 -16.7500 -13.0000 Du        
  10072 ****       -15.7500 -16.5000 -23.5000 Du        
  10073 ****       -15.7500 -16.5000 -23.2500 Du        
  10074 ****       -15.7500 -16.5000 -23.0000 Du        
  10075 ****       -15.7500 -16.5000 -22.7500 Du        
  10076 ****       -15.7500 -16.5000 -22.5000 Du        
  10077 ****       -15.7500 -16.2500 -23.5000 Du        
  10078 ****       -15.7500 -16.2500 -23.2500 Du        
  10079 ****       -15.7500 -16.2500 -23.0000 Du        
  10080 ****       -15.7500 -16.2500 -22.7500 Du        
  10081 ****       -15.7500 -16.0000 -23.7500 Du        
  10082 ****       -15.7500 -16.0000 -23.5000 Du        
  10083 ****       -15.7500 -16.0000 -23.2500 Du        
  10084 ****       -15.7500 -16.0000 -23.0000 Du        
  10085 ****       -15.7500 -15.7500 -25.5000 Du        
  10086 ****       -15.7500 -15.7500 -25.2500 Du        
  10087 ****       -15.7500 -15.7500 -25.0000 Du        
  10088 ****       -15.7500 -15.7500 -23.7500 Du        
  10089 ****       -15.7500 -15.7500 -23.5000 Du        
  10090 ****       -15.7500 -15.7500 -23.2500 Du        
  10091 ****       -15.7500 -15.2500 -25.7500 Du        
  10092 ****       -15.7500 -15.2500 -25.5000 Du        
  10093 ****       -15.7500 -15.2500 -25.2500 Du        
  10094 ****       -15.7500 -15.2500 -25.0000 Du        
  10095 ****       -15.7500 -15.0000 -25.7500 Du        
  10096 ****       -15.7500 -15.0000 -25.2500 Du        
  10097 ****       -15.7500   5.7500  -8.7500 Du        
  10098 ****       -15.7500   5.7500  -8.5000 Du        
  10099 ****       -15.7500   5.7500  -8.2500 Du        
  10100 ****       -15.7500   5.7500  -8.0000 Du        
  10101 ****       -15.7500   6.0000  -9.0000 Du        
  10102 ****       -15.7500   6.0000  -8.7500 Du        
  10103 ****       -15.7500   6.0000  -8.5000 Du        
  10104 ****       -15.7500   6.0000  -8.2500 Du        
  10105 ****       -15.7500   6.0000  -8.0000 Du        
  10106 ****       -15.7500   6.2500  -9.0000 Du        
  10107 ****       -15.7500   6.2500  -8.7500 Du        
  10108 ****       -15.7500   6.2500  -8.5000 Du        
  10109 ****       -15.7500   6.2500  -8.2500 Du        
  10110 ****       -15.7500   6.2500  -8.0000 Du        
  10111 ****       -15.7500   6.5000  -8.5000 Du        
  10112 ****       -15.7500   6.5000  -8.2500 Du        
  10113 ****       -15.7500   6.7500  -8.2500 Du        
  10114 ****       -15.5000 -29.0000 -14.5000 Du        
  10115 ****       -15.5000 -29.0000 -14.2500 Du        
  10116 ****       -15.5000 -29.0000 -14.0000 Du        
  10117 ****       -15.5000 -29.0000 -13.7500 Du        
  10118 ****       -15.5000 -28.7500 -14.0000 Du        
  10119 ****       -15.5000 -19.0000 -13.0000 Du        
  10120 ****       -15.5000 -18.7500 -13.2500 Du        
  10121 ****       -15.5000 -18.7500 -13.0000 Du        
  10122 ****       -15.5000 -18.7500 -12.7500 Du        
  10123 ****       -15.5000 -18.5000 -13.5000 Du        
  10124 ****       -15.5000 -18.5000 -13.2500 Du        
  10125 ****       -15.5000 -18.5000 -13.0000 Du        
  10126 ****       -15.5000 -18.5000 -12.7500 Du        
  10127 ****       -15.5000 -18.5000 -12.5000 Du        
  10128 ****       -15.5000 -18.2500 -22.2500 Du        
  10129 ****       -15.5000 -18.2500 -22.0000 Du        
  10130 ****       -15.5000 -18.2500 -21.7500 Du        
  10131 ****       -15.5000 -18.2500 -21.5000 Du        
  10132 ****       -15.5000 -18.2500 -13.5000 Du        
  10133 ****       -15.5000 -18.2500 -13.2500 Du        
  10134 ****       -15.5000 -18.2500 -13.0000 Du        
  10135 ****       -15.5000 -18.2500 -12.7500 Du        
  10136 ****       -15.5000 -18.2500 -12.5000 Du        
  10137 ****       -15.5000 -18.0000 -22.5000 Du        
  10138 ****       -15.5000 -18.0000 -22.2500 Du        
  10139 ****       -15.5000 -18.0000 -22.0000 Du        
  10140 ****       -15.5000 -18.0000 -21.7500 Du        
  10141 ****       -15.5000 -18.0000 -21.5000 Du        
  10142 ****       -15.5000 -18.0000 -21.2500 Du        
  10143 ****       -15.5000 -18.0000 -13.5000 Du        
  10144 ****       -15.5000 -18.0000 -13.2500 Du        
  10145 ****       -15.5000 -18.0000 -13.0000 Du        
  10146 ****       -15.5000 -18.0000 -12.7500 Du        
  10147 ****       -15.5000 -18.0000 -12.5000 Du        
  10148 ****       -15.5000 -18.0000 -12.2500 Du        
  10149 ****       -15.5000 -17.7500 -22.5000 Du        
  10150 ****       -15.5000 -17.7500 -22.2500 Du        
  10151 ****       -15.5000 -17.7500 -22.0000 Du        
  10152 ****       -15.5000 -17.7500 -21.7500 Du        
  10153 ****       -15.5000 -17.7500 -21.5000 Du        
  10154 ****       -15.5000 -17.7500 -13.2500 Du        
  10155 ****       -15.5000 -17.7500 -13.0000 Du        
  10156 ****       -15.5000 -17.7500 -12.7500 Du        
  10157 ****       -15.5000 -17.7500 -12.5000 Du        
  10158 ****       -15.5000 -17.7500 -12.2500 Du        
  10159 ****       -15.5000 -17.5000 -22.7500 Du        
  10160 ****       -15.5000 -17.5000 -22.5000 Du        
  10161 ****       -15.5000 -17.5000 -22.2500 Du        
  10162 ****       -15.5000 -17.5000 -22.0000 Du        
  10163 ****       -15.5000 -17.5000 -21.7500 Du        
  10164 ****       -15.5000 -17.5000 -21.5000 Du        
  10165 ****       -15.5000 -17.5000 -13.2500 Du        
  10166 ****       -15.5000 -17.5000 -13.0000 Du        
  10167 ****       -15.5000 -17.5000 -12.7500 Du        
  10168 ****       -15.5000 -17.5000 -12.5000 Du        
  10169 ****       -15.5000 -17.2500 -23.0000 Du        
  10170 ****       -15.5000 -17.2500 -22.7500 Du        
  10171 ****       -15.5000 -17.2500 -22.5000 Du        
  10172 ****       -15.5000 -17.2500 -22.2500 Du        
  10173 ****       -15.5000 -17.2500 -22.0000 Du        
  10174 ****       -15.5000 -17.2500 -21.7500 Du        
  10175 ****       -15.5000 -17.2500 -13.0000 Du        
  10176 ****       -15.5000 -17.2500 -12.7500 Du        
  10177 ****       -15.5000 -17.0000 -23.2500 Du        
  10178 ****       -15.5000 -17.0000 -23.0000 Du        
  10179 ****       -15.5000 -17.0000 -22.7500 Du        
  10180 ****       -15.5000 -17.0000 -22.5000 Du        
  10181 ****       -15.5000 -17.0000 -22.2500 Du        
  10182 ****       -15.5000 -17.0000 -22.0000 Du        
  10183 ****       -15.5000 -16.7500 -23.2500 Du        
  10184 ****       -15.5000 -16.7500 -23.0000 Du        
  10185 ****       -15.5000 -16.7500 -22.7500 Du        
  10186 ****       -15.5000 -16.7500 -22.5000 Du        
  10187 ****       -15.5000 -16.7500 -22.2500 Du        
  10188 ****       -15.5000 -16.7500 -22.0000 Du        
  10189 ****       -15.5000 -16.5000 -23.7500 Du        
  10190 ****       -15.5000 -16.5000 -23.2500 Du        
  10191 ****       -15.5000 -16.5000 -23.0000 Du        
  10192 ****       -15.5000 -16.5000 -22.7500 Du        
  10193 ****       -15.5000 -16.5000 -22.5000 Du        
  10194 ****       -15.5000 -16.5000 -22.2500 Du        
  10195 ****       -15.5000 -16.2500 -23.7500 Du        
  10196 ****       -15.5000 -16.2500 -23.2500 Du        
  10197 ****       -15.5000 -16.2500 -23.0000 Du        
  10198 ****       -15.5000 -16.2500 -22.7500 Du        
  10199 ****       -15.5000 -16.2500 -22.5000 Du        
  10200 ****       -15.5000 -16.0000 -23.7500 Du        
  10201 ****       -15.5000 -16.0000 -23.2500 Du        
  10202 ****       -15.5000 -16.0000 -23.0000 Du        
  10203 ****       -15.5000 -16.0000 -22.7500 Du        
  10204 ****       -15.5000 -15.7500 -23.7500 Du        
  10205 ****       -15.5000   6.0000  -8.7500 Du        
  10206 ****       -15.5000   6.0000  -8.5000 Du        
  10207 ****       -15.5000   6.0000  -8.2500 Du        
  10208 ****       -15.5000   6.2500  -8.7500 Du        
  10209 ****       -15.5000   6.2500  -8.5000 Du        
  10210 ****       -15.5000   6.2500  -8.2500 Du        
  10211 ****       -15.5000   6.5000  -8.7500 Du        
  10212 ****       -15.5000   6.5000  -8.5000 Du        
  10213 ****       -15.5000   6.5000  -8.2500 Du        
  10214 ****       -15.5000   6.7500  -8.7500 Du        
  10215 ****       -15.2500 -29.0000 -14.5000 Du        
  10216 ****       -15.2500 -29.0000 -14.2500 Du        
  10217 ****       -15.2500 -29.0000 -14.0000 Du        
  10218 ****       -15.2500 -29.0000 -13.7500 Du        
  10219 ****       -15.2500 -28.7500 -14.2500 Du        
  10220 ****       -15.2500 -28.7500 -14.0000 Du        
  10221 ****       -15.2500 -28.7500 -13.7500 Du        
  10222 ****       -15.2500 -19.0000 -13.5000 Du        
  10223 ****       -15.2500 -19.0000 -13.2500 Du        
  10224 ****       -15.2500 -19.0000 -13.0000 Du        
  10225 ****       -15.2500 -18.7500 -13.5000 Du        
  10226 ****       -15.2500 -18.7500 -13.2500 Du        
  10227 ****       -15.2500 -18.7500 -13.0000 Du        
  10228 ****       -15.2500 -18.7500 -12.7500 Du        
  10229 ****       -15.2500 -18.5000 -13.5000 Du        
  10230 ****       -15.2500 -18.5000 -13.2500 Du        
  10231 ****       -15.2500 -18.5000 -13.0000 Du        
  10232 ****       -15.2500 -18.5000 -12.7500 Du        
  10233 ****       -15.2500 -18.2500 -22.2500 Du        
  10234 ****       -15.2500 -18.2500 -22.0000 Du        
  10235 ****       -15.2500 -18.2500 -21.7500 Du        
  10236 ****       -15.2500 -18.2500 -21.5000 Du        
  10237 ****       -15.2500 -18.2500 -13.5000 Du        
  10238 ****       -15.2500 -18.2500 -13.2500 Du        
  10239 ****       -15.2500 -18.2500 -13.0000 Du        
  10240 ****       -15.2500 -18.2500 -12.7500 Du        
  10241 ****       -15.2500 -18.2500 -12.5000 Du        
  10242 ****       -15.2500 -18.0000 -22.5000 Du        
  10243 ****       -15.2500 -18.0000 -22.2500 Du        
  10244 ****       -15.2500 -18.0000 -22.0000 Du        
  10245 ****       -15.2500 -18.0000 -21.7500 Du        
  10246 ****       -15.2500 -18.0000 -21.5000 Du        
  10247 ****       -15.2500 -18.0000 -13.5000 Du        
  10248 ****       -15.2500 -18.0000 -13.2500 Du        
  10249 ****       -15.2500 -18.0000 -13.0000 Du        
  10250 ****       -15.2500 -18.0000 -12.7500 Du        
  10251 ****       -15.2500 -18.0000 -12.5000 Du        
  10252 ****       -15.2500 -17.7500 -22.7500 Du        
  10253 ****       -15.2500 -17.7500 -22.5000 Du        
  10254 ****       -15.2500 -17.7500 -22.2500 Du        
  10255 ****       -15.2500 -17.7500 -22.0000 Du        
  10256 ****       -15.2500 -17.7500 -21.7500 Du        
  10257 ****       -15.2500 -17.7500 -21.5000 Du        
  10258 ****       -15.2500 -17.7500 -13.5000 Du        
  10259 ****       -15.2500 -17.7500 -13.2500 Du        
  10260 ****       -15.2500 -17.7500 -13.0000 Du        
  10261 ****       -15.2500 -17.7500 -12.7500 Du        
  10262 ****       -15.2500 -17.7500 -12.5000 Du        
  10263 ****       -15.2500 -17.5000 -22.7500 Du        
  10264 ****       -15.2500 -17.5000 -22.5000 Du        
  10265 ****       -15.2500 -17.5000 -22.2500 Du        
  10266 ****       -15.2500 -17.5000 -22.0000 Du        
  10267 ****       -15.2500 -17.5000 -21.7500 Du        
  10268 ****       -15.2500 -17.5000 -21.5000 Du        
  10269 ****       -15.2500 -17.5000 -13.2500 Du        
  10270 ****       -15.2500 -17.5000 -13.0000 Du        
  10271 ****       -15.2500 -17.5000 -12.7500 Du        
  10272 ****       -15.2500 -17.5000 -12.5000 Du        
  10273 ****       -15.2500 -17.2500 -23.0000 Du        
  10274 ****       -15.2500 -17.2500 -22.7500 Du        
  10275 ****       -15.2500 -17.2500 -22.5000 Du        
  10276 ****       -15.2500 -17.2500 -22.2500 Du        
  10277 ****       -15.2500 -17.2500 -22.0000 Du        
  10278 ****       -15.2500 -17.2500 -21.7500 Du        
  10279 ****       -15.2500 -17.2500 -21.5000 Du        
  10280 ****       -15.2500 -17.2500 -13.0000 Du        
  10281 ****       -15.2500 -17.2500 -12.7500 Du        
  10282 ****       -15.2500 -17.2500 -12.5000 Du        
  10283 ****       -15.2500 -17.0000 -23.2500 Du        
  10284 ****       -15.2500 -17.0000 -23.0000 Du        
  10285 ****       -15.2500 -17.0000 -22.7500 Du        
  10286 ****       -15.2500 -17.0000 -22.5000 Du        
  10287 ****       -15.2500 -17.0000 -22.2500 Du        
  10288 ****       -15.2500 -17.0000 -22.0000 Du        
  10289 ****       -15.2500 -17.0000 -21.7500 Du        
  10290 ****       -15.2500 -17.0000 -13.0000 Du        
  10291 ****       -15.2500 -17.0000 -12.7500 Du        
  10292 ****       -15.2500 -16.7500 -23.2500 Du        
  10293 ****       -15.2500 -16.7500 -23.0000 Du        
  10294 ****       -15.2500 -16.7500 -22.7500 Du        
  10295 ****       -15.2500 -16.7500 -22.5000 Du        
  10296 ****       -15.2500 -16.7500 -22.2500 Du        
  10297 ****       -15.2500 -16.7500 -22.0000 Du        
  10298 ****       -15.2500 -16.5000 -23.2500 Du        
  10299 ****       -15.2500 -16.5000 -23.0000 Du        
  10300 ****       -15.2500 -16.5000 -22.7500 Du        
  10301 ****       -15.2500 -16.5000 -22.5000 Du        
  10302 ****       -15.2500 -16.5000 -22.2500 Du        
  10303 ****       -15.2500 -16.2500 -24.0000 Du        
  10304 ****       -15.2500 -16.2500 -23.7500 Du        
  10305 ****       -15.2500 -16.2500 -23.5000 Du        
  10306 ****       -15.2500 -16.2500 -23.2500 Du        
  10307 ****       -15.2500 -16.2500 -23.0000 Du        
  10308 ****       -15.2500 -16.2500 -22.7500 Du        
  10309 ****       -15.2500 -16.2500 -22.5000 Du        
  10310 ****       -15.2500 -16.2500 -22.2500 Du        
  10311 ****       -15.2500 -16.0000 -24.0000 Du        
  10312 ****       -15.2500 -16.0000 -23.7500 Du        
  10313 ****       -15.2500 -16.0000 -23.2500 Du        
  10314 ****       -15.2500 -16.0000 -23.0000 Du        
  10315 ****       -15.2500 -16.0000 -22.7500 Du        
  10316 ****       -15.2500 -16.0000 -22.5000 Du        
  10317 ****       -15.2500 -15.7500 -23.7500 Du        
  10318 ****       -15.2500 -15.7500 -23.2500 Du        
  10319 ****       -15.2500 -15.7500 -23.0000 Du        
  10320 ****       -15.2500 -15.7500 -22.7500 Du        
  10321 ****       -15.0000 -29.0000 -14.5000 Du        
  10322 ****       -15.0000 -29.0000 -14.2500 Du        
  10323 ****       -15.0000 -29.0000 -14.0000 Du        
  10324 ****       -15.0000 -29.0000 -13.7500 Du        
  10325 ****       -15.0000 -28.7500 -14.2500 Du        
  10326 ****       -15.0000 -28.7500 -14.0000 Du        
  10327 ****       -15.0000 -28.7500 -13.7500 Du        
  10328 ****       -15.0000 -24.7500 -15.0000 Du        
  10329 ****       -15.0000 -24.7500 -14.7500 Du        
  10330 ****       -15.0000 -24.5000 -15.2500 Du        
  10331 ****       -15.0000 -24.5000 -15.0000 Du        
  10332 ****       -15.0000 -24.5000 -14.7500 Du        
  10333 ****       -15.0000 -24.2500 -15.7500 Du        
  10334 ****       -15.0000 -24.2500 -15.5000 Du        
  10335 ****       -15.0000 -24.2500 -15.2500 Du        
  10336 ****       -15.0000 -24.2500 -15.0000 Du        
  10337 ****       -15.0000 -24.2500 -14.7500 Du        
  10338 ****       -15.0000 -24.0000 -16.0000 Du        
  10339 ****       -15.0000 -24.0000 -15.7500 Du        
  10340 ****       -15.0000 -24.0000 -15.5000 Du        
  10341 ****       -15.0000 -24.0000 -15.2500 Du        
  10342 ****       -15.0000 -23.7500 -16.0000 Du        
  10343 ****       -15.0000 -23.7500 -15.7500 Du        
  10344 ****       -15.0000 -23.7500 -15.5000 Du        
  10345 ****       -15.0000 -23.5000 -16.0000 Du        
  10346 ****       -15.0000 -19.2500 -13.5000 Du        
  10347 ****       -15.0000 -19.0000 -13.5000 Du        
  10348 ****       -15.0000 -19.0000 -13.2500 Du        
  10349 ****       -15.0000 -18.7500 -13.5000 Du        
  10350 ****       -15.0000 -18.7500 -13.2500 Du        
  10351 ****       -15.0000 -18.7500 -13.0000 Du        
  10352 ****       -15.0000 -18.5000 -13.5000 Du        
  10353 ****       -15.0000 -18.5000 -13.2500 Du        
  10354 ****       -15.0000 -18.5000 -13.0000 Du        
  10355 ****       -15.0000 -18.5000 -12.7500 Du        
  10356 ****       -15.0000 -18.2500 -22.2500 Du        
  10357 ****       -15.0000 -18.2500 -22.0000 Du        
  10358 ****       -15.0000 -18.2500 -21.7500 Du        
  10359 ****       -15.0000 -18.2500 -13.5000 Du        
  10360 ****       -15.0000 -18.2500 -13.2500 Du        
  10361 ****       -15.0000 -18.2500 -13.0000 Du        
  10362 ****       -15.0000 -18.2500 -12.7500 Du        
  10363 ****       -15.0000 -18.0000 -22.5000 Du        
  10364 ****       -15.0000 -18.0000 -22.2500 Du        
  10365 ****       -15.0000 -18.0000 -22.0000 Du        
  10366 ****       -15.0000 -18.0000 -21.7500 Du        
  10367 ****       -15.0000 -18.0000 -21.5000 Du        
  10368 ****       -15.0000 -18.0000 -13.5000 Du        
  10369 ****       -15.0000 -18.0000 -13.2500 Du        
  10370 ****       -15.0000 -18.0000 -13.0000 Du        
  10371 ****       -15.0000 -18.0000 -12.7500 Du        
  10372 ****       -15.0000 -17.7500 -22.7500 Du        
  10373 ****       -15.0000 -17.7500 -22.5000 Du        
  10374 ****       -15.0000 -17.7500 -22.2500 Du        
  10375 ****       -15.0000 -17.7500 -22.0000 Du        
  10376 ****       -15.0000 -17.7500 -21.7500 Du        
  10377 ****       -15.0000 -17.7500 -21.5000 Du        
  10378 ****       -15.0000 -17.7500 -13.5000 Du        
  10379 ****       -15.0000 -17.7500 -13.2500 Du        
  10380 ****       -15.0000 -17.7500 -13.0000 Du        
  10381 ****       -15.0000 -17.7500 -12.7500 Du        
  10382 ****       -15.0000 -17.5000 -22.7500 Du        
  10383 ****       -15.0000 -17.5000 -22.5000 Du        
  10384 ****       -15.0000 -17.5000 -22.2500 Du        
  10385 ****       -15.0000 -17.5000 -22.0000 Du        
  10386 ****       -15.0000 -17.5000 -21.7500 Du        
  10387 ****       -15.0000 -17.5000 -21.5000 Du        
  10388 ****       -15.0000 -17.5000 -13.2500 Du        
  10389 ****       -15.0000 -17.5000 -13.0000 Du        
  10390 ****       -15.0000 -17.5000 -12.7500 Du        
  10391 ****       -15.0000 -17.2500 -23.0000 Du        
  10392 ****       -15.0000 -17.2500 -22.7500 Du        
  10393 ****       -15.0000 -17.2500 -22.5000 Du        
  10394 ****       -15.0000 -17.2500 -22.2500 Du        
  10395 ****       -15.0000 -17.2500 -22.0000 Du        
  10396 ****       -15.0000 -17.2500 -21.7500 Du        
  10397 ****       -15.0000 -17.2500 -21.5000 Du        
  10398 ****       -15.0000 -17.2500 -13.0000 Du        
  10399 ****       -15.0000 -17.2500 -12.7500 Du        
  10400 ****       -15.0000 -17.0000 -23.2500 Du        
  10401 ****       -15.0000 -17.0000 -23.0000 Du        
  10402 ****       -15.0000 -17.0000 -22.7500 Du        
  10403 ****       -15.0000 -17.0000 -22.5000 Du        
  10404 ****       -15.0000 -17.0000 -22.2500 Du        
  10405 ****       -15.0000 -17.0000 -22.0000 Du        
  10406 ****       -15.0000 -17.0000 -21.7500 Du        
  10407 ****       -15.0000 -17.0000 -13.0000 Du        
  10408 ****       -15.0000 -17.0000 -12.7500 Du        
  10409 ****       -15.0000 -16.7500 -23.5000 Du        
  10410 ****       -15.0000 -16.7500 -23.2500 Du        
  10411 ****       -15.0000 -16.7500 -23.0000 Du        
  10412 ****       -15.0000 -16.7500 -22.7500 Du        
  10413 ****       -15.0000 -16.7500 -22.5000 Du        
  10414 ****       -15.0000 -16.7500 -22.2500 Du        
  10415 ****       -15.0000 -16.7500 -22.0000 Du        
  10416 ****       -15.0000 -16.7500 -21.7500 Du        
  10417 ****       -15.0000 -16.5000 -23.7500 Du        
  10418 ****       -15.0000 -16.5000 -23.5000 Du        
  10419 ****       -15.0000 -16.5000 -23.2500 Du        
  10420 ****       -15.0000 -16.5000 -23.0000 Du        
  10421 ****       -15.0000 -16.5000 -22.7500 Du        
  10422 ****       -15.0000 -16.5000 -22.5000 Du        
  10423 ****       -15.0000 -16.5000 -22.2500 Du        
  10424 ****       -15.0000 -16.5000 -22.0000 Du        
  10425 ****       -15.0000 -16.2500 -24.0000 Du        
  10426 ****       -15.0000 -16.2500 -23.7500 Du        
  10427 ****       -15.0000 -16.2500 -23.5000 Du        
  10428 ****       -15.0000 -16.2500 -23.2500 Du        
  10429 ****       -15.0000 -16.2500 -23.0000 Du        
  10430 ****       -15.0000 -16.2500 -22.7500 Du        
  10431 ****       -15.0000 -16.2500 -22.5000 Du        
  10432 ****       -15.0000 -16.2500 -22.2500 Du        
  10433 ****       -15.0000 -16.0000 -24.0000 Du        
  10434 ****       -15.0000 -16.0000 -23.7500 Du        
  10435 ****       -15.0000 -16.0000 -23.5000 Du        
  10436 ****       -15.0000 -16.0000 -23.2500 Du        
  10437 ****       -15.0000 -16.0000 -23.0000 Du        
  10438 ****       -15.0000 -16.0000 -22.7500 Du        
  10439 ****       -15.0000 -16.0000 -22.5000 Du        
  10440 ****       -15.0000 -16.0000 -22.2500 Du        
  10441 ****       -15.0000 -15.7500 -23.7500 Du        
  10442 ****       -15.0000 -15.7500 -23.2500 Du        
  10443 ****       -15.0000 -15.7500 -23.0000 Du        
  10444 ****       -15.0000 -15.7500 -22.7500 Du        
  10445 ****       -15.0000 -15.7500 -22.5000 Du        
  10446 ****       -15.0000  -7.2500 -17.5000 Du        
  10447 ****       -15.0000  -7.0000 -17.5000 Du        
  10448 ****       -15.0000  -7.0000 -17.2500 Du        
  10449 ****       -15.0000  -6.7500 -17.5000 Du        
  10450 ****       -14.7500 -29.0000 -14.5000 Du        
  10451 ****       -14.7500 -29.0000 -14.2500 Du        
  10452 ****       -14.7500 -29.0000 -14.0000 Du        
  10453 ****       -14.7500 -29.0000 -13.7500 Du        
  10454 ****       -14.7500 -28.7500 -14.2500 Du        
  10455 ****       -14.7500 -28.7500 -14.0000 Du        
  10456 ****       -14.7500 -28.7500 -13.7500 Du        
  10457 ****       -14.7500 -28.5000 -14.0000 Du        
  10458 ****       -14.7500 -28.5000 -13.7500 Du        
  10459 ****       -14.7500 -25.2500 -14.7500 Du        
  10460 ****       -14.7500 -25.0000 -15.0000 Du        
  10461 ****       -14.7500 -25.0000 -14.7500 Du        
  10462 ****       -14.7500 -25.0000 -14.5000 Du        
  10463 ****       -14.7500 -24.7500 -15.2500 Du        
  10464 ****       -14.7500 -24.7500 -15.0000 Du        
  10465 ****       -14.7500 -24.7500 -14.7500 Du        
  10466 ****       -14.7500 -24.7500 -14.5000 Du        
  10467 ****       -14.7500 -24.7500 -14.2500 Du        
  10468 ****       -14.7500 -24.5000 -15.5000 Du        
  10469 ****       -14.7500 -24.5000 -15.2500 Du        
  10470 ****       -14.7500 -24.5000 -15.0000 Du        
  10471 ****       -14.7500 -24.5000 -14.7500 Du        
  10472 ****       -14.7500 -24.5000 -14.5000 Du        
  10473 ****       -14.7500 -24.5000 -14.2500 Du        
  10474 ****       -14.7500 -24.2500 -16.0000 Du        
  10475 ****       -14.7500 -24.2500 -15.7500 Du        
  10476 ****       -14.7500 -24.2500 -15.5000 Du        
  10477 ****       -14.7500 -24.2500 -15.2500 Du        
  10478 ****       -14.7500 -24.2500 -15.0000 Du        
  10479 ****       -14.7500 -24.2500 -14.7500 Du        
  10480 ****       -14.7500 -24.2500 -14.5000 Du        
  10481 ****       -14.7500 -24.2500 -14.2500 Du        
  10482 ****       -14.7500 -24.0000 -16.2500 Du        
  10483 ****       -14.7500 -24.0000 -16.0000 Du        
  10484 ****       -14.7500 -24.0000 -15.7500 Du        
  10485 ****       -14.7500 -24.0000 -15.5000 Du        
  10486 ****       -14.7500 -24.0000 -15.2500 Du        
  10487 ****       -14.7500 -24.0000 -15.0000 Du        
  10488 ****       -14.7500 -24.0000 -14.7500 Du        
  10489 ****       -14.7500 -23.7500 -16.2500 Du        
  10490 ****       -14.7500 -23.7500 -16.0000 Du        
  10491 ****       -14.7500 -23.7500 -15.7500 Du        
  10492 ****       -14.7500 -23.7500 -15.5000 Du        
  10493 ****       -14.7500 -23.7500 -15.2500 Du        
  10494 ****       -14.7500 -23.7500 -15.0000 Du        
  10495 ****       -14.7500 -23.5000 -16.2500 Du        
  10496 ****       -14.7500 -23.5000 -16.0000 Du        
  10497 ****       -14.7500 -23.5000 -15.7500 Du        
  10498 ****       -14.7500 -23.5000 -15.5000 Du        
  10499 ****       -14.7500 -23.2500 -16.2500 Du        
  10500 ****       -14.7500 -23.2500 -16.0000 Du        
  10501 ****       -14.7500 -23.2500 -15.7500 Du        
  10502 ****       -14.7500 -19.2500 -13.7500 Du        
  10503 ****       -14.7500 -19.2500 -13.5000 Du        
  10504 ****       -14.7500 -19.0000 -13.7500 Du        
  10505 ****       -14.7500 -19.0000 -13.5000 Du        
  10506 ****       -14.7500 -19.0000 -13.2500 Du        
  10507 ****       -14.7500 -18.7500 -13.5000 Du        
  10508 ****       -14.7500 -18.7500 -13.2500 Du        
  10509 ****       -14.7500 -18.5000 -13.5000 Du        
  10510 ****       -14.7500 -18.5000 -13.2500 Du        
  10511 ****       -14.7500 -18.5000 -13.0000 Du        
  10512 ****       -14.7500 -18.2500 -13.5000 Du        
  10513 ****       -14.7500 -18.2500 -13.2500 Du        
  10514 ****       -14.7500 -18.2500 -13.0000 Du        
  10515 ****       -14.7500 -18.0000 -22.5000 Du        
  10516 ****       -14.7500 -18.0000 -22.2500 Du        
  10517 ****       -14.7500 -18.0000 -22.0000 Du        
  10518 ****       -14.7500 -18.0000 -21.7500 Du        
  10519 ****       -14.7500 -18.0000 -13.2500 Du        
  10520 ****       -14.7500 -18.0000 -13.0000 Du        
  10521 ****       -14.7500 -17.7500 -22.7500 Du        
  10522 ****       -14.7500 -17.7500 -22.5000 Du        
  10523 ****       -14.7500 -17.7500 -22.2500 Du        
  10524 ****       -14.7500 -17.7500 -22.0000 Du        
  10525 ****       -14.7500 -17.7500 -21.7500 Du        
  10526 ****       -14.7500 -17.7500 -21.5000 Du        
  10527 ****       -14.7500 -17.7500 -13.2500 Du        
  10528 ****       -14.7500 -17.7500 -13.0000 Du        
  10529 ****       -14.7500 -17.5000 -23.0000 Du        
  10530 ****       -14.7500 -17.5000 -22.7500 Du        
  10531 ****       -14.7500 -17.5000 -22.5000 Du        
  10532 ****       -14.7500 -17.5000 -22.2500 Du        
  10533 ****       -14.7500 -17.5000 -22.0000 Du        
  10534 ****       -14.7500 -17.5000 -21.7500 Du        
  10535 ****       -14.7500 -17.2500 -23.2500 Du        
  10536 ****       -14.7500 -17.2500 -23.0000 Du        
  10537 ****       -14.7500 -17.2500 -22.7500 Du        
  10538 ****       -14.7500 -17.2500 -22.5000 Du        
  10539 ****       -14.7500 -17.2500 -22.2500 Du        
  10540 ****       -14.7500 -17.2500 -22.0000 Du        
  10541 ****       -14.7500 -17.2500 -21.7500 Du        
  10542 ****       -14.7500 -17.0000 -23.5000 Du        
  10543 ****       -14.7500 -17.0000 -23.2500 Du        
  10544 ****       -14.7500 -17.0000 -23.0000 Du        
  10545 ****       -14.7500 -17.0000 -22.7500 Du        
  10546 ****       -14.7500 -17.0000 -22.5000 Du        
  10547 ****       -14.7500 -17.0000 -22.2500 Du        
  10548 ****       -14.7500 -17.0000 -22.0000 Du        
  10549 ****       -14.7500 -17.0000 -21.7500 Du        
  10550 ****       -14.7500 -16.7500 -23.5000 Du        
  10551 ****       -14.7500 -16.7500 -23.2500 Du        
  10552 ****       -14.7500 -16.7500 -23.0000 Du        
  10553 ****       -14.7500 -16.7500 -22.7500 Du        
  10554 ****       -14.7500 -16.7500 -22.5000 Du        
  10555 ****       -14.7500 -16.7500 -22.2500 Du        
  10556 ****       -14.7500 -16.7500 -22.0000 Du        
  10557 ****       -14.7500 -16.5000 -23.7500 Du        
  10558 ****       -14.7500 -16.5000 -23.5000 Du        
  10559 ****       -14.7500 -16.5000 -23.2500 Du        
  10560 ****       -14.7500 -16.5000 -23.0000 Du        
  10561 ****       -14.7500 -16.5000 -22.7500 Du        
  10562 ****       -14.7500 -16.5000 -22.5000 Du        
  10563 ****       -14.7500 -16.5000 -22.2500 Du        
  10564 ****       -14.7500 -16.5000 -22.0000 Du        
  10565 ****       -14.7500 -16.2500 -23.7500 Du        
  10566 ****       -14.7500 -16.2500 -23.5000 Du        
  10567 ****       -14.7500 -16.2500 -23.2500 Du        
  10568 ****       -14.7500 -16.2500 -23.0000 Du        
  10569 ****       -14.7500 -16.2500 -22.7500 Du        
  10570 ****       -14.7500 -16.2500 -22.5000 Du        
  10571 ****       -14.7500 -16.2500 -22.2500 Du        
  10572 ****       -14.7500 -16.0000 -23.7500 Du        
  10573 ****       -14.7500 -16.0000 -23.2500 Du        
  10574 ****       -14.7500 -16.0000 -23.0000 Du        
  10575 ****       -14.7500 -16.0000 -22.7500 Du        
  10576 ****       -14.7500 -16.0000 -22.5000 Du        
  10577 ****       -14.7500 -15.7500 -23.2500 Du        
  10578 ****       -14.7500 -15.7500 -23.0000 Du        
  10579 ****       -14.7500 -15.7500 -22.7500 Du        
  10580 ****       -14.7500 -15.7500 -22.5000 Du        
  10581 ****       -14.7500  -7.2500 -17.5000 Du        
  10582 ****       -14.7500  -7.2500 -17.2500 Du        
  10583 ****       -14.7500  -7.0000 -17.5000 Du        
  10584 ****       -14.7500  -7.0000 -17.2500 Du        
  10585 ****       -14.7500  -7.0000 -17.0000 Du        
  10586 ****       -14.7500  -6.7500 -17.5000 Du        
  10587 ****       -14.7500  -6.7500 -17.2500 Du        
  10588 ****       -14.7500  -6.7500 -17.0000 Du        
  10589 ****       -14.7500  -6.5000 -18.2500 Du        
  10590 ****       -14.7500  -6.5000 -18.0000 Du        
  10591 ****       -14.7500  -6.5000 -17.7500 Du        
  10592 ****       -14.7500  -6.5000 -17.5000 Du        
  10593 ****       -14.7500  -6.5000 -17.2500 Du        
  10594 ****       -14.5000 -29.0000 -14.5000 Du        
  10595 ****       -14.5000 -29.0000 -14.2500 Du        
  10596 ****       -14.5000 -29.0000 -14.0000 Du        
  10597 ****       -14.5000 -29.0000 -13.7500 Du        
  10598 ****       -14.5000 -28.7500 -14.2500 Du        
  10599 ****       -14.5000 -28.7500 -14.0000 Du        
  10600 ****       -14.5000 -28.7500 -13.7500 Du        
  10601 ****       -14.5000 -28.5000 -14.0000 Du        
  10602 ****       -14.5000 -28.5000 -13.7500 Du        
  10603 ****       -14.5000 -28.0000 -14.0000 Du        
  10604 ****       -14.5000 -25.5000 -14.7500 Du        
  10605 ****       -14.5000 -25.5000 -14.5000 Du        
  10606 ****       -14.5000 -25.2500 -15.0000 Du        
  10607 ****       -14.5000 -25.2500 -14.7500 Du        
  10608 ****       -14.5000 -25.2500 -14.5000 Du        
  10609 ****       -14.5000 -25.2500 -14.2500 Du        
  10610 ****       -14.5000 -25.0000 -15.2500 Du        
  10611 ****       -14.5000 -25.0000 -15.0000 Du        
  10612 ****       -14.5000 -25.0000 -14.7500 Du        
  10613 ****       -14.5000 -25.0000 -14.5000 Du        
  10614 ****       -14.5000 -25.0000 -14.2500 Du        
  10615 ****       -14.5000 -25.0000 -14.0000 Du        
  10616 ****       -14.5000 -24.7500 -15.5000 Du        
  10617 ****       -14.5000 -24.7500 -15.2500 Du        
  10618 ****       -14.5000 -24.7500 -15.0000 Du        
  10619 ****       -14.5000 -24.7500 -14.7500 Du        
  10620 ****       -14.5000 -24.7500 -14.5000 Du        
  10621 ****       -14.5000 -24.7500 -14.2500 Du        
  10622 ****       -14.5000 -24.7500 -14.0000 Du        
  10623 ****       -14.5000 -24.5000 -15.7500 Du        
  10624 ****       -14.5000 -24.5000 -15.5000 Du        
  10625 ****       -14.5000 -24.5000 -15.2500 Du        
  10626 ****       -14.5000 -24.5000 -15.0000 Du        
  10627 ****       -14.5000 -24.5000 -14.7500 Du        
  10628 ****       -14.5000 -24.5000 -14.5000 Du        
  10629 ****       -14.5000 -24.5000 -14.2500 Du        
  10630 ****       -14.5000 -24.5000 -14.0000 Du        
  10631 ****       -14.5000 -24.5000 -13.7500 Du        
  10632 ****       -14.5000 -24.2500 -16.0000 Du        
  10633 ****       -14.5000 -24.2500 -15.7500 Du        
  10634 ****       -14.5000 -24.2500 -15.5000 Du        
  10635 ****       -14.5000 -24.2500 -15.2500 Du        
  10636 ****       -14.5000 -24.2500 -15.0000 Du        
  10637 ****       -14.5000 -24.2500 -14.7500 Du        
  10638 ****       -14.5000 -24.2500 -14.5000 Du        
  10639 ****       -14.5000 -24.2500 -14.2500 Du        
  10640 ****       -14.5000 -24.2500 -14.0000 Du        
  10641 ****       -14.5000 -24.2500 -13.7500 Du        
  10642 ****       -14.5000 -24.0000 -16.2500 Du        
  10643 ****       -14.5000 -24.0000 -16.0000 Du        
  10644 ****       -14.5000 -24.0000 -15.7500 Du        
  10645 ****       -14.5000 -24.0000 -15.5000 Du        
  10646 ****       -14.5000 -24.0000 -15.2500 Du        
  10647 ****       -14.5000 -24.0000 -15.0000 Du        
  10648 ****       -14.5000 -24.0000 -14.7500 Du        
  10649 ****       -14.5000 -24.0000 -14.5000 Du        
  10650 ****       -14.5000 -24.0000 -14.2500 Du        
  10651 ****       -14.5000 -24.0000 -14.0000 Du        
  10652 ****       -14.5000 -23.7500 -16.2500 Du        
  10653 ****       -14.5000 -23.7500 -16.0000 Du        
  10654 ****       -14.5000 -23.7500 -15.7500 Du        
  10655 ****       -14.5000 -23.7500 -15.5000 Du        
  10656 ****       -14.5000 -23.7500 -15.2500 Du        
  10657 ****       -14.5000 -23.7500 -15.0000 Du        
  10658 ****       -14.5000 -23.7500 -14.7500 Du        
  10659 ****       -14.5000 -23.7500 -14.5000 Du        
  10660 ****       -14.5000 -23.7500 -14.2500 Du        
  10661 ****       -14.5000 -23.5000 -16.2500 Du        
  10662 ****       -14.5000 -23.5000 -16.0000 Du        
  10663 ****       -14.5000 -23.5000 -15.7500 Du        
  10664 ****       -14.5000 -23.5000 -15.5000 Du        
  10665 ****       -14.5000 -23.5000 -15.2500 Du        
  10666 ****       -14.5000 -23.5000 -15.0000 Du        
  10667 ****       -14.5000 -23.5000 -14.7500 Du        
  10668 ****       -14.5000 -23.2500 -16.2500 Du        
  10669 ****       -14.5000 -23.2500 -16.0000 Du        
  10670 ****       -14.5000 -23.2500 -15.7500 Du        
  10671 ****       -14.5000 -23.2500 -15.5000 Du        
  10672 ****       -14.5000 -23.2500 -15.2500 Du        
  10673 ****       -14.5000 -23.0000 -29.2500 Du        
  10674 ****       -14.5000 -23.0000 -29.0000 Du        
  10675 ****       -14.5000 -23.0000 -28.7500 Du        
  10676 ****       -14.5000 -23.0000 -16.2500 Du        
  10677 ****       -14.5000 -23.0000 -16.0000 Du        
  10678 ****       -14.5000 -23.0000 -15.7500 Du        
  10679 ****       -14.5000 -23.0000 -15.5000 Du        
  10680 ****       -14.5000 -22.7500 -29.2500 Du        
  10681 ****       -14.5000 -22.7500 -29.0000 Du        
  10682 ****       -14.5000 -22.7500 -28.7500 Du        
  10683 ****       -14.5000 -22.7500 -16.0000 Du        
  10684 ****       -14.5000 -22.7500 -15.7500 Du        
  10685 ****       -14.5000 -22.5000 -29.0000 Du        
  10686 ****       -14.5000 -22.5000 -28.7500 Du        
  10687 ****       -14.5000 -19.7500 -13.7500 Du        
  10688 ****       -14.5000 -19.5000 -13.7500 Du        
  10689 ****       -14.5000 -19.2500 -13.7500 Du        
  10690 ****       -14.5000 -18.0000 -22.5000 Du        
  10691 ****       -14.5000 -18.0000 -22.2500 Du        
  10692 ****       -14.5000 -18.0000 -22.0000 Du        
  10693 ****       -14.5000 -17.7500 -23.0000 Du        
  10694 ****       -14.5000 -17.7500 -22.7500 Du        
  10695 ****       -14.5000 -17.7500 -22.5000 Du        
  10696 ****       -14.5000 -17.7500 -22.2500 Du        
  10697 ****       -14.5000 -17.7500 -22.0000 Du        
  10698 ****       -14.5000 -17.7500 -21.7500 Du        
  10699 ****       -14.5000 -17.5000 -23.0000 Du        
  10700 ****       -14.5000 -17.5000 -22.7500 Du        
  10701 ****       -14.5000 -17.5000 -22.5000 Du        
  10702 ****       -14.5000 -17.5000 -22.2500 Du        
  10703 ****       -14.5000 -17.5000 -22.0000 Du        
  10704 ****       -14.5000 -17.5000 -21.7500 Du        
  10705 ****       -14.5000 -17.2500 -23.2500 Du        
  10706 ****       -14.5000 -17.2500 -23.0000 Du        
  10707 ****       -14.5000 -17.2500 -22.7500 Du        
  10708 ****       -14.5000 -17.2500 -22.5000 Du        
  10709 ****       -14.5000 -17.2500 -22.2500 Du        
  10710 ****       -14.5000 -17.2500 -22.0000 Du        
  10711 ****       -14.5000 -17.0000 -23.5000 Du        
  10712 ****       -14.5000 -17.0000 -23.2500 Du        
  10713 ****       -14.5000 -17.0000 -23.0000 Du        
  10714 ****       -14.5000 -17.0000 -22.7500 Du        
  10715 ****       -14.5000 -17.0000 -22.5000 Du        
  10716 ****       -14.5000 -17.0000 -22.2500 Du        
  10717 ****       -14.5000 -17.0000 -22.0000 Du        
  10718 ****       -14.5000 -16.7500 -23.5000 Du        
  10719 ****       -14.5000 -16.7500 -23.2500 Du        
  10720 ****       -14.5000 -16.7500 -23.0000 Du        
  10721 ****       -14.5000 -16.7500 -22.7500 Du        
  10722 ****       -14.5000 -16.7500 -22.5000 Du        
  10723 ****       -14.5000 -16.7500 -22.2500 Du        
  10724 ****       -14.5000 -16.7500 -22.0000 Du        
  10725 ****       -14.5000 -16.5000 -23.5000 Du        
  10726 ****       -14.5000 -16.5000 -23.2500 Du        
  10727 ****       -14.5000 -16.5000 -23.0000 Du        
  10728 ****       -14.5000 -16.5000 -22.7500 Du        
  10729 ****       -14.5000 -16.5000 -22.5000 Du        
  10730 ****       -14.5000 -16.5000 -22.2500 Du        
  10731 ****       -14.5000 -16.2500 -23.5000 Du        
  10732 ****       -14.5000 -16.2500 -23.2500 Du        
  10733 ****       -14.5000 -16.2500 -23.0000 Du        
  10734 ****       -14.5000 -16.2500 -22.7500 Du        
  10735 ****       -14.5000 -16.2500 -22.5000 Du        
  10736 ****       -14.5000 -16.0000 -23.2500 Du        
  10737 ****       -14.5000 -16.0000 -23.0000 Du        
  10738 ****       -14.5000 -16.0000 -22.7500 Du        
  10739 ****       -14.5000 -16.0000 -22.5000 Du        
  10740 ****       -14.5000 -16.0000  -9.5000 Du        
  10741 ****       -14.5000 -16.0000  -9.2500 Du        
  10742 ****       -14.5000 -15.7500 -23.2500 Du        
  10743 ****       -14.5000 -15.7500 -23.0000 Du        
  10744 ****       -14.5000 -15.7500 -22.7500 Du        
  10745 ****       -14.5000 -15.7500  -9.5000 Du        
  10746 ****       -14.5000 -15.7500  -9.2500 Du        
  10747 ****       -14.5000 -15.5000  -9.5000 Du        
  10748 ****       -14.5000 -15.2500  -9.5000 Du        
  10749 ****       -14.5000 -15.0000  -9.5000 Du        
  10750 ****       -14.5000  -7.0000 -17.5000 Du        
  10751 ****       -14.5000  -7.0000 -17.2500 Du        
  10752 ****       -14.5000  -7.0000 -17.0000 Du        
  10753 ****       -14.5000  -6.7500 -17.5000 Du        
  10754 ****       -14.5000  -6.7500 -17.2500 Du        
  10755 ****       -14.5000  -6.7500 -17.0000 Du        
  10756 ****       -14.5000  -6.5000 -18.0000 Du        
  10757 ****       -14.5000  -6.5000 -17.7500 Du        
  10758 ****       -14.5000  -6.5000 -17.5000 Du        
  10759 ****       -14.5000  -6.5000 -17.2500 Du        
  10760 ****       -14.5000  -6.5000 -17.0000 Du        
  10761 ****       -14.5000  -6.2500 -18.0000 Du        
  10762 ****       -14.5000  -6.2500 -17.5000 Du        
  10763 ****       -14.2500 -29.0000 -14.7500 Du        
  10764 ****       -14.2500 -29.0000 -14.5000 Du        
  10765 ****       -14.2500 -29.0000 -14.2500 Du        
  10766 ****       -14.2500 -29.0000 -14.0000 Du        
  10767 ****       -14.2500 -29.0000 -13.7500 Du        
  10768 ****       -14.2500 -28.7500 -14.5000 Du        
  10769 ****       -14.2500 -28.7500 -14.2500 Du        
  10770 ****       -14.2500 -28.7500 -14.0000 Du        
  10771 ****       -14.2500 -28.7500 -13.7500 Du        
  10772 ****       -14.2500 -28.5000 -14.2500 Du        
  10773 ****       -14.2500 -28.5000 -14.0000 Du        
  10774 ****       -14.2500 -28.5000 -13.7500 Du        
  10775 ****       -14.2500 -28.2500 -14.2500 Du        
  10776 ****       -14.2500 -28.2500 -14.0000 Du        
  10777 ****       -14.2500 -28.2500 -13.7500 Du        
  10778 ****       -14.2500 -28.0000 -14.0000 Du        
  10779 ****       -14.2500 -28.0000 -13.7500 Du        
  10780 ****       -14.2500 -27.7500 -14.0000 Du        
  10781 ****       -14.2500 -27.7500 -13.7500 Du        
  10782 ****       -14.2500 -27.2500 -14.0000 Du        
  10783 ****       -14.2500 -27.0000 -14.0000 Du        
  10784 ****       -14.2500 -26.5000 -14.2500 Du        
  10785 ****       -14.2500 -26.5000 -14.0000 Du        
  10786 ****       -14.2500 -26.2500 -14.5000 Du        
  10787 ****       -14.2500 -26.2500 -14.2500 Du        
  10788 ****       -14.2500 -26.2500 -14.0000 Du        
  10789 ****       -14.2500 -26.0000 -14.7500 Du        
  10790 ****       -14.2500 -26.0000 -14.5000 Du        
  10791 ****       -14.2500 -26.0000 -14.2500 Du        
  10792 ****       -14.2500 -26.0000 -14.0000 Du        
  10793 ****       -14.2500 -26.0000 -13.7500 Du        
  10794 ****       -14.2500 -25.7500 -15.0000 Du        
  10795 ****       -14.2500 -25.7500 -14.7500 Du        
  10796 ****       -14.2500 -25.7500 -14.5000 Du        
  10797 ****       -14.2500 -25.7500 -14.2500 Du        
  10798 ****       -14.2500 -25.7500 -14.0000 Du        
  10799 ****       -14.2500 -25.7500 -13.7500 Du        
  10800 ****       -14.2500 -25.7500 -11.7500 Du        
  10801 ****       -14.2500 -25.7500 -11.5000 Du        
  10802 ****       -14.2500 -25.7500 -11.2500 Du        
  10803 ****       -14.2500 -25.5000 -15.0000 Du        
  10804 ****       -14.2500 -25.5000 -14.7500 Du        
  10805 ****       -14.2500 -25.5000 -14.5000 Du        
  10806 ****       -14.2500 -25.5000 -14.2500 Du        
  10807 ****       -14.2500 -25.5000 -14.0000 Du        
  10808 ****       -14.2500 -25.5000 -13.7500 Du        
  10809 ****       -14.2500 -25.5000 -11.7500 Du        
  10810 ****       -14.2500 -25.5000 -11.5000 Du        
  10811 ****       -14.2500 -25.5000 -11.2500 Du        
  10812 ****       -14.2500 -25.2500 -15.2500 Du        
  10813 ****       -14.2500 -25.2500 -15.0000 Du        
  10814 ****       -14.2500 -25.2500 -14.7500 Du        
  10815 ****       -14.2500 -25.2500 -14.5000 Du        
  10816 ****       -14.2500 -25.2500 -14.2500 Du        
  10817 ****       -14.2500 -25.2500 -14.0000 Du        
  10818 ****       -14.2500 -25.2500 -13.7500 Du        
  10819 ****       -14.2500 -25.2500 -13.5000 Du        
  10820 ****       -14.2500 -25.2500 -12.0000 Du        
  10821 ****       -14.2500 -25.2500 -11.7500 Du        
  10822 ****       -14.2500 -25.2500 -11.5000 Du        
  10823 ****       -14.2500 -25.2500 -11.2500 Du        
  10824 ****       -14.2500 -25.0000 -15.5000 Du        
  10825 ****       -14.2500 -25.0000 -15.2500 Du        
  10826 ****       -14.2500 -25.0000 -15.0000 Du        
  10827 ****       -14.2500 -25.0000 -14.7500 Du        
  10828 ****       -14.2500 -25.0000 -14.5000 Du        
  10829 ****       -14.2500 -25.0000 -14.2500 Du        
  10830 ****       -14.2500 -25.0000 -14.0000 Du        
  10831 ****       -14.2500 -25.0000 -13.7500 Du        
  10832 ****       -14.2500 -25.0000 -13.5000 Du        
  10833 ****       -14.2500 -25.0000 -13.2500 Du        
  10834 ****       -14.2500 -25.0000 -13.0000 Du        
  10835 ****       -14.2500 -25.0000 -12.2500 Du        
  10836 ****       -14.2500 -25.0000 -12.0000 Du        
  10837 ****       -14.2500 -25.0000 -11.7500 Du        
  10838 ****       -14.2500 -24.7500 -15.7500 Du        
  10839 ****       -14.2500 -24.7500 -15.5000 Du        
  10840 ****       -14.2500 -24.7500 -15.2500 Du        
  10841 ****       -14.2500 -24.7500 -15.0000 Du        
  10842 ****       -14.2500 -24.7500 -14.7500 Du        
  10843 ****       -14.2500 -24.7500 -14.5000 Du        
  10844 ****       -14.2500 -24.7500 -14.2500 Du        
  10845 ****       -14.2500 -24.7500 -14.0000 Du        
  10846 ****       -14.2500 -24.7500 -13.7500 Du        
  10847 ****       -14.2500 -24.7500 -13.5000 Du        
  10848 ****       -14.2500 -24.7500 -13.2500 Du        
  10849 ****       -14.2500 -24.7500 -13.0000 Du        
  10850 ****       -14.2500 -24.7500 -12.7500 Du        
  10851 ****       -14.2500 -24.5000 -16.0000 Du        
  10852 ****       -14.2500 -24.5000 -15.7500 Du        
  10853 ****       -14.2500 -24.5000 -15.5000 Du        
  10854 ****       -14.2500 -24.5000 -15.2500 Du        
  10855 ****       -14.2500 -24.5000 -15.0000 Du        
  10856 ****       -14.2500 -24.5000 -14.7500 Du        
  10857 ****       -14.2500 -24.5000 -14.5000 Du        
  10858 ****       -14.2500 -24.5000 -14.2500 Du        
  10859 ****       -14.2500 -24.5000 -14.0000 Du        
  10860 ****       -14.2500 -24.5000 -13.7500 Du        
  10861 ****       -14.2500 -24.5000 -13.5000 Du        
  10862 ****       -14.2500 -24.5000 -13.2500 Du        
  10863 ****       -14.2500 -24.5000 -13.0000 Du        
  10864 ****       -14.2500 -24.2500 -16.2500 Du        
  10865 ****       -14.2500 -24.2500 -16.0000 Du        
  10866 ****       -14.2500 -24.2500 -15.7500 Du        
  10867 ****       -14.2500 -24.2500 -15.5000 Du        
  10868 ****       -14.2500 -24.2500 -15.2500 Du        
  10869 ****       -14.2500 -24.2500 -15.0000 Du        
  10870 ****       -14.2500 -24.2500 -14.7500 Du        
  10871 ****       -14.2500 -24.2500 -14.5000 Du        
  10872 ****       -14.2500 -24.2500 -14.2500 Du        
  10873 ****       -14.2500 -24.2500 -14.0000 Du        
  10874 ****       -14.2500 -24.2500 -13.7500 Du        
  10875 ****       -14.2500 -24.2500 -13.5000 Du        
  10876 ****       -14.2500 -24.2500 -13.2500 Du        
  10877 ****       -14.2500 -24.0000 -16.2500 Du        
  10878 ****       -14.2500 -24.0000 -16.0000 Du        
  10879 ****       -14.2500 -24.0000 -15.7500 Du        
  10880 ****       -14.2500 -24.0000 -15.5000 Du        
  10881 ****       -14.2500 -24.0000 -15.2500 Du        
  10882 ****       -14.2500 -24.0000 -15.0000 Du        
  10883 ****       -14.2500 -24.0000 -14.7500 Du        
  10884 ****       -14.2500 -24.0000 -14.5000 Du        
  10885 ****       -14.2500 -24.0000 -14.2500 Du        
  10886 ****       -14.2500 -24.0000 -14.0000 Du        
  10887 ****       -14.2500 -24.0000 -13.7500 Du        
  10888 ****       -14.2500 -24.0000 -13.5000 Du        
  10889 ****       -14.2500 -23.7500 -16.5000 Du        
  10890 ****       -14.2500 -23.7500 -16.2500 Du        
  10891 ****       -14.2500 -23.7500 -16.0000 Du        
  10892 ****       -14.2500 -23.7500 -15.7500 Du        
  10893 ****       -14.2500 -23.7500 -15.5000 Du        
  10894 ****       -14.2500 -23.7500 -15.2500 Du        
  10895 ****       -14.2500 -23.7500 -15.0000 Du        
  10896 ****       -14.2500 -23.7500 -14.7500 Du        
  10897 ****       -14.2500 -23.7500 -14.5000 Du        
  10898 ****       -14.2500 -23.7500 -14.2500 Du        
  10899 ****       -14.2500 -23.7500 -14.0000 Du        
  10900 ****       -14.2500 -23.7500 -13.7500 Du        
  10901 ****       -14.2500 -23.5000 -16.5000 Du        
  10902 ****       -14.2500 -23.5000 -16.2500 Du        
  10903 ****       -14.2500 -23.5000 -16.0000 Du        
  10904 ****       -14.2500 -23.5000 -15.7500 Du        
  10905 ****       -14.2500 -23.5000 -15.5000 Du        
  10906 ****       -14.2500 -23.5000 -15.2500 Du        
  10907 ****       -14.2500 -23.5000 -15.0000 Du        
  10908 ****       -14.2500 -23.5000 -14.7500 Du        
  10909 ****       -14.2500 -23.5000 -14.5000 Du        
  10910 ****       -14.2500 -23.5000 -14.2500 Du        
  10911 ****       -14.2500 -23.5000 -14.0000 Du        
  10912 ****       -14.2500 -23.2500 -29.2500 Du        
  10913 ****       -14.2500 -23.2500 -29.0000 Du        
  10914 ****       -14.2500 -23.2500 -28.7500 Du        
  10915 ****       -14.2500 -23.2500 -16.2500 Du        
  10916 ****       -14.2500 -23.2500 -16.0000 Du        
  10917 ****       -14.2500 -23.2500 -15.7500 Du        
  10918 ****       -14.2500 -23.2500 -15.5000 Du        
  10919 ****       -14.2500 -23.2500 -15.2500 Du        
  10920 ****       -14.2500 -23.2500 -15.0000 Du        
  10921 ****       -14.2500 -23.2500 -14.7500 Du        
  10922 ****       -14.2500 -23.2500 -14.5000 Du        
  10923 ****       -14.2500 -23.0000 -29.2500 Du        
  10924 ****       -14.2500 -23.0000 -29.0000 Du        
  10925 ****       -14.2500 -23.0000 -28.7500 Du        
  10926 ****       -14.2500 -23.0000 -28.5000 Du        
  10927 ****       -14.2500 -23.0000 -16.2500 Du        
  10928 ****       -14.2500 -23.0000 -16.0000 Du        
  10929 ****       -14.2500 -23.0000 -15.7500 Du        
  10930 ****       -14.2500 -23.0000 -15.5000 Du        
  10931 ****       -14.2500 -23.0000 -15.2500 Du        
  10932 ****       -14.2500 -23.0000 -15.0000 Du        
  10933 ****       -14.2500 -23.0000 -14.7500 Du        
  10934 ****       -14.2500 -22.7500 -29.2500 Du        
  10935 ****       -14.2500 -22.7500 -29.0000 Du        
  10936 ****       -14.2500 -22.7500 -28.7500 Du        
  10937 ****       -14.2500 -22.7500 -28.5000 Du        
  10938 ****       -14.2500 -22.7500 -16.2500 Du        
  10939 ****       -14.2500 -22.7500 -16.0000 Du        
  10940 ****       -14.2500 -22.7500 -15.7500 Du        
  10941 ****       -14.2500 -22.7500 -15.5000 Du        
  10942 ****       -14.2500 -22.7500 -15.2500 Du        
  10943 ****       -14.2500 -22.7500 -15.0000 Du        
  10944 ****       -14.2500 -22.5000 -28.7500 Du        
  10945 ****       -14.2500 -22.5000 -28.5000 Du        
  10946 ****       -14.2500 -22.5000 -16.0000 Du        
  10947 ****       -14.2500 -22.5000 -15.7500 Du        
  10948 ****       -14.2500 -22.5000 -15.5000 Du        
  10949 ****       -14.2500 -22.5000 -15.2500 Du        
  10950 ****       -14.2500 -22.2500 -15.7500 Du        
  10951 ****       -14.2500 -22.2500 -15.5000 Du        
  10952 ****       -14.2500 -22.2500 -15.2500 Du        
  10953 ****       -14.2500 -22.0000 -15.5000 Du        
  10954 ****       -14.2500 -22.0000 -15.2500 Du        
  10955 ****       -14.2500 -21.0000 -14.7500 Du        
  10956 ****       -14.2500 -20.7500 -14.7500 Du        
  10957 ****       -14.2500 -20.7500 -14.5000 Du        
  10958 ****       -14.2500 -20.7500 -14.2500 Du        
  10959 ****       -14.2500 -20.5000 -14.2500 Du        
  10960 ****       -14.2500 -20.2500 -14.2500 Du        
  10961 ****       -14.2500 -20.2500 -14.0000 Du        
  10962 ****       -14.2500 -20.0000 -14.0000 Du        
  10963 ****       -14.2500 -19.7500 -14.0000 Du        
  10964 ****       -14.2500 -19.7500 -13.7500 Du        
  10965 ****       -14.2500 -19.5000 -13.7500 Du        
  10966 ****       -14.2500 -18.0000 -22.7500 Du        
  10967 ****       -14.2500 -18.0000 -22.5000 Du        
  10968 ****       -14.2500 -17.7500 -23.0000 Du        
  10969 ****       -14.2500 -17.7500 -22.7500 Du        
  10970 ****       -14.2500 -17.7500 -22.5000 Du        
  10971 ****       -14.2500 -17.7500 -22.2500 Du        
  10972 ****       -14.2500 -17.7500 -22.0000 Du        
  10973 ****       -14.2500 -17.5000 -23.2500 Du        
  10974 ****       -14.2500 -17.5000 -23.0000 Du        
  10975 ****       -14.2500 -17.5000 -22.7500 Du        
  10976 ****       -14.2500 -17.5000 -22.5000 Du        
  10977 ****       -14.2500 -17.5000 -22.2500 Du        
  10978 ****       -14.2500 -17.5000 -22.0000 Du        
  10979 ****       -14.2500 -17.2500 -23.5000 Du        
  10980 ****       -14.2500 -17.2500 -23.2500 Du        
  10981 ****       -14.2500 -17.2500 -23.0000 Du        
  10982 ****       -14.2500 -17.2500 -22.7500 Du        
  10983 ****       -14.2500 -17.2500 -22.5000 Du        
  10984 ****       -14.2500 -17.2500 -22.2500 Du        
  10985 ****       -14.2500 -17.0000 -23.5000 Du        
  10986 ****       -14.2500 -17.0000 -23.2500 Du        
  10987 ****       -14.2500 -17.0000 -23.0000 Du        
  10988 ****       -14.2500 -17.0000 -22.7500 Du        
  10989 ****       -14.2500 -17.0000 -22.5000 Du        
  10990 ****       -14.2500 -17.0000 -22.2500 Du        
  10991 ****       -14.2500 -16.7500 -23.5000 Du        
  10992 ****       -14.2500 -16.7500 -23.2500 Du        
  10993 ****       -14.2500 -16.7500 -23.0000 Du        
  10994 ****       -14.2500 -16.7500 -22.7500 Du        
  10995 ****       -14.2500 -16.7500 -22.5000 Du        
  10996 ****       -14.2500 -16.5000 -23.5000 Du        
  10997 ****       -14.2500 -16.5000 -23.2500 Du        
  10998 ****       -14.2500 -16.5000 -23.0000 Du        
  10999 ****       -14.2500 -16.5000 -22.7500 Du        
  11000 ****       -14.2500 -16.5000 -22.5000 Du        
  11001 ****       -14.2500 -16.2500 -23.5000 Du        
  11002 ****       -14.2500 -16.2500 -23.2500 Du        
  11003 ****       -14.2500 -16.2500 -23.0000 Du        
  11004 ****       -14.2500 -16.2500 -22.7500 Du        
  11005 ****       -14.2500 -16.2500  -9.5000 Du        
  11006 ****       -14.2500 -16.2500  -9.2500 Du        
  11007 ****       -14.2500 -16.2500  -9.0000 Du        
  11008 ****       -14.2500 -16.0000 -23.2500 Du        
  11009 ****       -14.2500 -16.0000 -23.0000 Du        
  11010 ****       -14.2500 -16.0000 -22.7500 Du        
  11011 ****       -14.2500 -16.0000  -9.7500 Du        
  11012 ****       -14.2500 -16.0000  -9.5000 Du        
  11013 ****       -14.2500 -16.0000  -9.2500 Du        
  11014 ****       -14.2500 -16.0000  -9.0000 Du        
  11015 ****       -14.2500 -15.7500 -10.0000 Du        
  11016 ****       -14.2500 -15.7500  -9.7500 Du        
  11017 ****       -14.2500 -15.7500  -9.5000 Du        
  11018 ****       -14.2500 -15.7500  -9.2500 Du        
  11019 ****       -14.2500 -15.7500  -9.0000 Du        
  11020 ****       -14.2500 -15.5000  -9.7500 Du        
  11021 ****       -14.2500 -15.5000  -9.5000 Du        
  11022 ****       -14.2500 -15.5000  -9.2500 Du        
  11023 ****       -14.2500 -15.2500 -10.0000 Du        
  11024 ****       -14.2500 -15.2500  -9.7500 Du        
  11025 ****       -14.2500 -15.2500  -9.5000 Du        
  11026 ****       -14.2500 -15.2500  -9.2500 Du        
  11027 ****       -14.2500 -15.2500  -9.0000 Du        
  11028 ****       -14.2500 -15.0000 -10.0000 Du        
  11029 ****       -14.2500 -15.0000  -9.7500 Du        
  11030 ****       -14.2500 -15.0000  -9.5000 Du        
  11031 ****       -14.2500 -15.0000  -9.2500 Du        
  11032 ****       -14.2500 -14.7500  -9.5000 Du        
  11033 ****       -14.2500  -7.0000 -17.2500 Du        
  11034 ****       -14.2500  -7.0000 -17.0000 Du        
  11035 ****       -14.2500  -7.0000 -16.7500 Du        
  11036 ****       -14.2500  -6.7500 -17.5000 Du        
  11037 ****       -14.2500  -6.7500 -17.2500 Du        
  11038 ****       -14.2500  -6.7500 -17.0000 Du        
  11039 ****       -14.2500  -6.7500 -16.7500 Du        
  11040 ****       -14.2500  -6.7500 -16.5000 Du        
  11041 ****       -14.2500  -6.5000 -18.2500 Du        
  11042 ****       -14.2500  -6.5000 -18.0000 Du        
  11043 ****       -14.2500  -6.5000 -17.7500 Du        
  11044 ****       -14.2500  -6.5000 -17.5000 Du        
  11045 ****       -14.2500  -6.5000 -17.2500 Du        
  11046 ****       -14.2500  -6.5000 -17.0000 Du        
  11047 ****       -14.2500  -6.5000 -16.7500 Du        
  11048 ****       -14.2500  -6.5000 -16.5000 Du        
  11049 ****       -14.2500  -6.2500 -18.2500 Du        
  11050 ****       -14.2500  -6.2500 -18.0000 Du        
  11051 ****       -14.2500  -6.2500 -17.7500 Du        
  11052 ****       -14.2500  -6.2500 -17.5000 Du        
  11053 ****       -14.2500  -6.2500 -17.2500 Du        
  11054 ****       -14.2500  -6.2500 -17.0000 Du        
  11055 ****       -14.2500  -6.0000 -18.5000 Du        
  11056 ****       -14.2500  -6.0000 -18.2500 Du        
  11057 ****       -14.2500  -6.0000 -18.0000 Du        
  11058 ****       -14.2500  -5.7500 -18.5000 Du        
  11059 ****       -14.2500  -5.7500 -18.2500 Du        
  11060 ****       -14.0000 -29.0000 -14.7500 Du        
  11061 ****       -14.0000 -29.0000 -14.5000 Du        
  11062 ****       -14.0000 -29.0000 -14.2500 Du        
  11063 ****       -14.0000 -29.0000 -14.0000 Du        
  11064 ****       -14.0000 -29.0000 -13.7500 Du        
  11065 ****       -14.0000 -28.7500 -14.5000 Du        
  11066 ****       -14.0000 -28.7500 -14.2500 Du        
  11067 ****       -14.0000 -28.7500 -14.0000 Du        
  11068 ****       -14.0000 -28.7500 -13.7500 Du        
  11069 ****       -14.0000 -28.5000 -14.2500 Du        
  11070 ****       -14.0000 -28.5000 -14.0000 Du        
  11071 ****       -14.0000 -28.5000 -13.7500 Du        
  11072 ****       -14.0000 -28.2500 -14.2500 Du        
  11073 ****       -14.0000 -28.2500 -14.0000 Du        
  11074 ****       -14.0000 -28.2500 -13.7500 Du        
  11075 ****       -14.0000 -28.0000 -14.2500 Du        
  11076 ****       -14.0000 -28.0000 -14.0000 Du        
  11077 ****       -14.0000 -28.0000 -13.7500 Du        
  11078 ****       -14.0000 -27.7500 -14.2500 Du        
  11079 ****       -14.0000 -27.7500 -14.0000 Du        
  11080 ****       -14.0000 -27.7500 -13.7500 Du        
  11081 ****       -14.0000 -27.5000 -14.2500 Du        
  11082 ****       -14.0000 -27.5000 -14.0000 Du        
  11083 ****       -14.0000 -27.5000 -13.7500 Du        
  11084 ****       -14.0000 -27.2500 -14.2500 Du        
  11085 ****       -14.0000 -27.2500 -14.0000 Du        
  11086 ****       -14.0000 -27.2500 -13.7500 Du        
  11087 ****       -14.0000 -27.0000 -14.2500 Du        
  11088 ****       -14.0000 -27.0000 -14.0000 Du        
  11089 ****       -14.0000 -27.0000 -13.7500 Du        
  11090 ****       -14.0000 -26.7500 -14.5000 Du        
  11091 ****       -14.0000 -26.7500 -14.2500 Du        
  11092 ****       -14.0000 -26.7500 -14.0000 Du        
  11093 ****       -14.0000 -26.5000 -14.5000 Du        
  11094 ****       -14.0000 -26.5000 -14.2500 Du        
  11095 ****       -14.0000 -26.5000 -14.0000 Du        
  11096 ****       -14.0000 -26.5000 -13.7500 Du        
  11097 ****       -14.0000 -26.5000 -11.7500 Du        
  11098 ****       -14.0000 -26.2500 -14.7500 Du        
  11099 ****       -14.0000 -26.2500 -14.5000 Du        
  11100 ****       -14.0000 -26.2500 -14.2500 Du        
  11101 ****       -14.0000 -26.2500 -14.0000 Du        
  11102 ****       -14.0000 -26.2500 -13.7500 Du        
  11103 ****       -14.0000 -26.2500 -12.2500 Du        
  11104 ****       -14.0000 -26.2500 -12.0000 Du        
  11105 ****       -14.0000 -26.2500 -11.7500 Du        
  11106 ****       -14.0000 -26.2500 -11.5000 Du        
  11107 ****       -14.0000 -26.0000 -15.0000 Du        
  11108 ****       -14.0000 -26.0000 -14.7500 Du        
  11109 ****       -14.0000 -26.0000 -14.5000 Du        
  11110 ****       -14.0000 -26.0000 -14.2500 Du        
  11111 ****       -14.0000 -26.0000 -14.0000 Du        
  11112 ****       -14.0000 -26.0000 -13.7500 Du        
  11113 ****       -14.0000 -26.0000 -13.5000 Du        
  11114 ****       -14.0000 -26.0000 -13.2500 Du        
  11115 ****       -14.0000 -26.0000 -13.0000 Du        
  11116 ****       -14.0000 -26.0000 -12.2500 Du        
  11117 ****       -14.0000 -26.0000 -12.0000 Du        
  11118 ****       -14.0000 -26.0000 -11.7500 Du        
  11119 ****       -14.0000 -26.0000 -11.5000 Du        
  11120 ****       -14.0000 -25.7500 -15.0000 Du        
  11121 ****       -14.0000 -25.7500 -14.7500 Du        
  11122 ****       -14.0000 -25.7500 -14.5000 Du        
  11123 ****       -14.0000 -25.7500 -14.2500 Du        
  11124 ****       -14.0000 -25.7500 -14.0000 Du        
  11125 ****       -14.0000 -25.7500 -13.7500 Du        
  11126 ****       -14.0000 -25.7500 -13.5000 Du        
  11127 ****       -14.0000 -25.7500 -13.2500 Du        
  11128 ****       -14.0000 -25.7500 -13.0000 Du        
  11129 ****       -14.0000 -25.7500 -12.7500 Du        
  11130 ****       -14.0000 -25.7500 -12.5000 Du        
  11131 ****       -14.0000 -25.7500 -12.2500 Du        
  11132 ****       -14.0000 -25.7500 -12.0000 Du        
  11133 ****       -14.0000 -25.7500 -11.7500 Du        
  11134 ****       -14.0000 -25.7500 -11.5000 Du        
  11135 ****       -14.0000 -25.7500 -11.2500 Du        
  11136 ****       -14.0000 -25.5000 -15.2500 Du        
  11137 ****       -14.0000 -25.5000 -15.0000 Du        
  11138 ****       -14.0000 -25.5000 -14.7500 Du        
  11139 ****       -14.0000 -25.5000 -14.5000 Du        
  11140 ****       -14.0000 -25.5000 -14.2500 Du        
  11141 ****       -14.0000 -25.5000 -14.0000 Du        
  11142 ****       -14.0000 -25.5000 -13.7500 Du        
  11143 ****       -14.0000 -25.5000 -13.5000 Du        
  11144 ****       -14.0000 -25.5000 -13.2500 Du        
  11145 ****       -14.0000 -25.5000 -13.0000 Du        
  11146 ****       -14.0000 -25.5000 -12.7500 Du        
  11147 ****       -14.0000 -25.5000 -12.5000 Du        
  11148 ****       -14.0000 -25.5000 -12.2500 Du        
  11149 ****       -14.0000 -25.5000 -12.0000 Du        
  11150 ****       -14.0000 -25.5000 -11.7500 Du        
  11151 ****       -14.0000 -25.5000 -11.5000 Du        
  11152 ****       -14.0000 -25.5000 -11.2500 Du        
  11153 ****       -14.0000 -25.2500 -15.5000 Du        
  11154 ****       -14.0000 -25.2500 -15.2500 Du        
  11155 ****       -14.0000 -25.2500 -15.0000 Du        
  11156 ****       -14.0000 -25.2500 -14.7500 Du        
  11157 ****       -14.0000 -25.2500 -14.5000 Du        
  11158 ****       -14.0000 -25.2500 -14.2500 Du        
  11159 ****       -14.0000 -25.2500 -14.0000 Du        
  11160 ****       -14.0000 -25.2500 -13.7500 Du        
  11161 ****       -14.0000 -25.2500 -13.5000 Du        
  11162 ****       -14.0000 -25.2500 -13.2500 Du        
  11163 ****       -14.0000 -25.2500 -13.0000 Du        
  11164 ****       -14.0000 -25.2500 -12.7500 Du        
  11165 ****       -14.0000 -25.2500 -12.5000 Du        
  11166 ****       -14.0000 -25.2500 -12.2500 Du        
  11167 ****       -14.0000 -25.2500 -12.0000 Du        
  11168 ****       -14.0000 -25.2500 -11.7500 Du        
  11169 ****       -14.0000 -25.2500 -11.5000 Du        
  11170 ****       -14.0000 -25.2500 -11.2500 Du        
  11171 ****       -14.0000 -25.0000 -15.7500 Du        
  11172 ****       -14.0000 -25.0000 -15.5000 Du        
  11173 ****       -14.0000 -25.0000 -15.2500 Du        
  11174 ****       -14.0000 -25.0000 -15.0000 Du        
  11175 ****       -14.0000 -25.0000 -14.7500 Du        
  11176 ****       -14.0000 -25.0000 -14.5000 Du        
  11177 ****       -14.0000 -25.0000 -14.2500 Du        
  11178 ****       -14.0000 -25.0000 -14.0000 Du        
  11179 ****       -14.0000 -25.0000 -13.7500 Du        
  11180 ****       -14.0000 -25.0000 -13.5000 Du        
  11181 ****       -14.0000 -25.0000 -13.2500 Du        
  11182 ****       -14.0000 -25.0000 -13.0000 Du        
  11183 ****       -14.0000 -25.0000 -12.7500 Du        
  11184 ****       -14.0000 -25.0000 -12.5000 Du        
  11185 ****       -14.0000 -25.0000 -12.2500 Du        
  11186 ****       -14.0000 -25.0000 -12.0000 Du        
  11187 ****       -14.0000 -25.0000 -11.7500 Du        
  11188 ****       -14.0000 -25.0000 -11.5000 Du        
  11189 ****       -14.0000 -24.7500 -16.0000 Du        
  11190 ****       -14.0000 -24.7500 -15.7500 Du        
  11191 ****       -14.0000 -24.7500 -15.5000 Du        
  11192 ****       -14.0000 -24.7500 -15.2500 Du        
  11193 ****       -14.0000 -24.7500 -15.0000 Du        
  11194 ****       -14.0000 -24.7500 -14.7500 Du        
  11195 ****       -14.0000 -24.7500 -14.5000 Du        
  11196 ****       -14.0000 -24.7500 -14.2500 Du        
  11197 ****       -14.0000 -24.7500 -14.0000 Du        
  11198 ****       -14.0000 -24.7500 -13.7500 Du        
  11199 ****       -14.0000 -24.7500 -13.5000 Du        
  11200 ****       -14.0000 -24.7500 -13.2500 Du        
  11201 ****       -14.0000 -24.7500 -13.0000 Du        
  11202 ****       -14.0000 -24.7500 -12.7500 Du        
  11203 ****       -14.0000 -24.7500 -12.5000 Du        
  11204 ****       -14.0000 -24.7500 -12.2500 Du        
  11205 ****       -14.0000 -24.7500 -12.0000 Du        
  11206 ****       -14.0000 -24.5000 -16.2500 Du        
  11207 ****       -14.0000 -24.5000 -16.0000 Du        
  11208 ****       -14.0000 -24.5000 -15.7500 Du        
  11209 ****       -14.0000 -24.5000 -15.5000 Du        
  11210 ****       -14.0000 -24.5000 -15.2500 Du        
  11211 ****       -14.0000 -24.5000 -15.0000 Du        
  11212 ****       -14.0000 -24.5000 -14.7500 Du        
  11213 ****       -14.0000 -24.5000 -14.5000 Du        
  11214 ****       -14.0000 -24.5000 -14.2500 Du        
  11215 ****       -14.0000 -24.5000 -14.0000 Du        
  11216 ****       -14.0000 -24.5000 -13.7500 Du        
  11217 ****       -14.0000 -24.5000 -13.5000 Du        
  11218 ****       -14.0000 -24.5000 -13.2500 Du        
  11219 ****       -14.0000 -24.5000 -13.0000 Du        
  11220 ****       -14.0000 -24.5000 -12.7500 Du        
  11221 ****       -14.0000 -24.5000 -12.5000 Du        
  11222 ****       -14.0000 -24.5000 -12.2500 Du        
  11223 ****       -14.0000 -24.2500 -16.2500 Du        
  11224 ****       -14.0000 -24.2500 -16.0000 Du        
  11225 ****       -14.0000 -24.2500 -15.7500 Du        
  11226 ****       -14.0000 -24.2500 -15.5000 Du        
  11227 ****       -14.0000 -24.2500 -15.2500 Du        
  11228 ****       -14.0000 -24.2500 -15.0000 Du        
  11229 ****       -14.0000 -24.2500 -14.7500 Du        
  11230 ****       -14.0000 -24.2500 -14.5000 Du        
  11231 ****       -14.0000 -24.2500 -14.2500 Du        
  11232 ****       -14.0000 -24.2500 -14.0000 Du        
  11233 ****       -14.0000 -24.2500 -13.7500 Du        
  11234 ****       -14.0000 -24.2500 -13.5000 Du        
  11235 ****       -14.0000 -24.2500 -13.2500 Du        
  11236 ****       -14.0000 -24.2500 -13.0000 Du        
  11237 ****       -14.0000 -24.2500 -12.7500 Du        
  11238 ****       -14.0000 -24.0000 -16.5000 Du        
  11239 ****       -14.0000 -24.0000 -16.2500 Du        
  11240 ****       -14.0000 -24.0000 -16.0000 Du        
  11241 ****       -14.0000 -24.0000 -15.7500 Du        
  11242 ****       -14.0000 -24.0000 -15.5000 Du        
  11243 ****       -14.0000 -24.0000 -15.2500 Du        
  11244 ****       -14.0000 -24.0000 -15.0000 Du        
  11245 ****       -14.0000 -24.0000 -14.7500 Du        
  11246 ****       -14.0000 -24.0000 -14.5000 Du        
  11247 ****       -14.0000 -24.0000 -14.2500 Du        
  11248 ****       -14.0000 -24.0000 -14.0000 Du        
  11249 ****       -14.0000 -24.0000 -13.7500 Du        
  11250 ****       -14.0000 -24.0000 -13.5000 Du        
  11251 ****       -14.0000 -24.0000 -13.2500 Du        
  11252 ****       -14.0000 -24.0000 -13.0000 Du        
  11253 ****       -14.0000 -23.7500 -16.5000 Du        
  11254 ****       -14.0000 -23.7500 -16.2500 Du        
  11255 ****       -14.0000 -23.7500 -16.0000 Du        
  11256 ****       -14.0000 -23.7500 -15.7500 Du        
  11257 ****       -14.0000 -23.7500 -15.5000 Du        
  11258 ****       -14.0000 -23.7500 -15.2500 Du        
  11259 ****       -14.0000 -23.7500 -15.0000 Du        
  11260 ****       -14.0000 -23.7500 -14.7500 Du        
  11261 ****       -14.0000 -23.7500 -14.5000 Du        
  11262 ****       -14.0000 -23.7500 -14.2500 Du        
  11263 ****       -14.0000 -23.7500 -14.0000 Du        
  11264 ****       -14.0000 -23.7500 -13.7500 Du        
  11265 ****       -14.0000 -23.7500 -13.5000 Du        
  11266 ****       -14.0000 -23.5000 -29.2500 Du        
  11267 ****       -14.0000 -23.5000 -29.0000 Du        
  11268 ****       -14.0000 -23.5000 -28.7500 Du        
  11269 ****       -14.0000 -23.5000 -28.5000 Du        
  11270 ****       -14.0000 -23.5000 -16.5000 Du        
  11271 ****       -14.0000 -23.5000 -16.2500 Du        
  11272 ****       -14.0000 -23.5000 -16.0000 Du        
  11273 ****       -14.0000 -23.5000 -15.7500 Du        
  11274 ****       -14.0000 -23.5000 -15.5000 Du        
  11275 ****       -14.0000 -23.5000 -15.2500 Du        
  11276 ****       -14.0000 -23.5000 -15.0000 Du        
  11277 ****       -14.0000 -23.5000 -14.7500 Du        
  11278 ****       -14.0000 -23.5000 -14.5000 Du        
  11279 ****       -14.0000 -23.5000 -14.2500 Du        
  11280 ****       -14.0000 -23.5000 -14.0000 Du        
  11281 ****       -14.0000 -23.5000 -13.7500 Du        
  11282 ****       -14.0000 -23.2500 -29.2500 Du        
  11283 ****       -14.0000 -23.2500 -29.0000 Du        
  11284 ****       -14.0000 -23.2500 -28.7500 Du        
  11285 ****       -14.0000 -23.2500 -28.5000 Du        
  11286 ****       -14.0000 -23.2500 -28.2500 Du        
  11287 ****       -14.0000 -23.2500 -16.2500 Du        
  11288 ****       -14.0000 -23.2500 -16.0000 Du        
  11289 ****       -14.0000 -23.2500 -15.7500 Du        
  11290 ****       -14.0000 -23.2500 -15.5000 Du        
  11291 ****       -14.0000 -23.2500 -15.2500 Du        
  11292 ****       -14.0000 -23.2500 -15.0000 Du        
  11293 ****       -14.0000 -23.2500 -14.7500 Du        
  11294 ****       -14.0000 -23.2500 -14.5000 Du        
  11295 ****       -14.0000 -23.2500 -14.2500 Du        
  11296 ****       -14.0000 -23.2500 -14.0000 Du        
  11297 ****       -14.0000 -23.0000 -29.2500 Du        
  11298 ****       -14.0000 -23.0000 -29.0000 Du        
  11299 ****       -14.0000 -23.0000 -28.7500 Du        
  11300 ****       -14.0000 -23.0000 -28.5000 Du        
  11301 ****       -14.0000 -23.0000 -28.2500 Du        
  11302 ****       -14.0000 -23.0000 -16.2500 Du        
  11303 ****       -14.0000 -23.0000 -16.0000 Du        
  11304 ****       -14.0000 -23.0000 -15.7500 Du        
  11305 ****       -14.0000 -23.0000 -15.5000 Du        
  11306 ****       -14.0000 -23.0000 -15.2500 Du        
  11307 ****       -14.0000 -23.0000 -15.0000 Du        
  11308 ****       -14.0000 -23.0000 -14.7500 Du        
  11309 ****       -14.0000 -23.0000 -14.5000 Du        
  11310 ****       -14.0000 -23.0000 -14.2500 Du        
  11311 ****       -14.0000 -23.0000 -14.0000 Du        
  11312 ****       -14.0000 -22.7500 -29.0000 Du        
  11313 ****       -14.0000 -22.7500 -28.7500 Du        
  11314 ****       -14.0000 -22.7500 -28.5000 Du        
  11315 ****       -14.0000 -22.7500 -28.2500 Du        
  11316 ****       -14.0000 -22.7500 -16.2500 Du        
  11317 ****       -14.0000 -22.7500 -16.0000 Du        
  11318 ****       -14.0000 -22.7500 -15.7500 Du        
  11319 ****       -14.0000 -22.7500 -15.5000 Du        
  11320 ****       -14.0000 -22.7500 -15.2500 Du        
  11321 ****       -14.0000 -22.7500 -15.0000 Du        
  11322 ****       -14.0000 -22.7500 -14.7500 Du        
  11323 ****       -14.0000 -22.7500 -14.5000 Du        
  11324 ****       -14.0000 -22.7500 -14.2500 Du        
  11325 ****       -14.0000 -22.5000 -28.7500 Du        
  11326 ****       -14.0000 -22.5000 -28.5000 Du        
  11327 ****       -14.0000 -22.5000 -28.2500 Du        
  11328 ****       -14.0000 -22.5000 -16.0000 Du        
  11329 ****       -14.0000 -22.5000 -15.7500 Du        
  11330 ****       -14.0000 -22.5000 -15.5000 Du        
  11331 ****       -14.0000 -22.5000 -15.2500 Du        
  11332 ****       -14.0000 -22.5000 -15.0000 Du        
  11333 ****       -14.0000 -22.5000 -14.7500 Du        
  11334 ****       -14.0000 -22.5000 -14.5000 Du        
  11335 ****       -14.0000 -22.5000 -14.2500 Du        
  11336 ****       -14.0000 -22.2500 -28.5000 Du        
  11337 ****       -14.0000 -22.2500 -28.2500 Du        
  11338 ****       -14.0000 -22.2500 -16.0000 Du        
  11339 ****       -14.0000 -22.2500 -15.7500 Du        
  11340 ****       -14.0000 -22.2500 -15.5000 Du        
  11341 ****       -14.0000 -22.2500 -15.2500 Du        
  11342 ****       -14.0000 -22.2500 -15.0000 Du        
  11343 ****       -14.0000 -22.2500 -14.7500 Du        
  11344 ****       -14.0000 -22.2500 -14.5000 Du        
  11345 ****       -14.0000 -22.0000 -15.7500 Du        
  11346 ****       -14.0000 -22.0000 -15.5000 Du        
  11347 ****       -14.0000 -22.0000 -15.2500 Du        
  11348 ****       -14.0000 -22.0000 -15.0000 Du        
  11349 ****       -14.0000 -22.0000 -14.7500 Du        
  11350 ****       -14.0000 -22.0000 -14.5000 Du        
  11351 ****       -14.0000 -21.7500 -15.5000 Du        
  11352 ****       -14.0000 -21.7500 -15.2500 Du        
  11353 ****       -14.0000 -21.7500 -15.0000 Du        
  11354 ****       -14.0000 -21.7500 -14.7500 Du        
  11355 ****       -14.0000 -21.7500 -14.5000 Du        
  11356 ****       -14.0000 -21.5000 -15.5000 Du        
  11357 ****       -14.0000 -21.5000 -15.2500 Du        
  11358 ****       -14.0000 -21.5000 -15.0000 Du        
  11359 ****       -14.0000 -21.5000 -14.7500 Du        
  11360 ****       -14.0000 -21.5000 -14.5000 Du        
  11361 ****       -14.0000 -21.5000 -14.2500 Du        
  11362 ****       -14.0000 -21.2500 -15.2500 Du        
  11363 ****       -14.0000 -21.2500 -15.0000 Du        
  11364 ****       -14.0000 -21.2500 -14.7500 Du        
  11365 ****       -14.0000 -21.2500 -14.5000 Du        
  11366 ****       -14.0000 -21.2500 -14.2500 Du        
  11367 ****       -14.0000 -21.0000 -15.0000 Du        
  11368 ****       -14.0000 -21.0000 -14.7500 Du        
  11369 ****       -14.0000 -21.0000 -14.5000 Du        
  11370 ****       -14.0000 -21.0000 -14.2500 Du        
  11371 ****       -14.0000 -20.7500 -15.0000 Du        
  11372 ****       -14.0000 -20.7500 -14.7500 Du        
  11373 ****       -14.0000 -20.7500 -14.5000 Du        
  11374 ****       -14.0000 -20.7500 -14.2500 Du        
  11375 ****       -14.0000 -20.7500 -14.0000 Du        
  11376 ****       -14.0000 -20.5000 -14.7500 Du        
  11377 ****       -14.0000 -20.5000 -14.5000 Du        
  11378 ****       -14.0000 -20.5000 -14.2500 Du        
  11379 ****       -14.0000 -20.5000 -14.0000 Du        
  11380 ****       -14.0000 -20.2500 -14.5000 Du        
  11381 ****       -14.0000 -20.2500 -14.2500 Du        
  11382 ****       -14.0000 -20.2500 -14.0000 Du        
  11383 ****       -14.0000 -20.0000 -14.2500 Du        
  11384 ****       -14.0000 -20.0000 -14.0000 Du        
  11385 ****       -14.0000 -19.7500 -14.0000 Du        
  11386 ****       -14.0000 -17.7500 -23.2500 Du        
  11387 ****       -14.0000 -17.7500 -23.0000 Du        
  11388 ****       -14.0000 -17.7500 -22.7500 Du        
  11389 ****       -14.0000 -17.7500 -22.5000 Du        
  11390 ****       -14.0000 -17.5000 -23.5000 Du        
  11391 ****       -14.0000 -17.5000 -23.2500 Du        
  11392 ****       -14.0000 -17.5000 -23.0000 Du        
  11393 ****       -14.0000 -17.5000 -22.7500 Du        
  11394 ****       -14.0000 -17.5000 -22.5000 Du        
  11395 ****       -14.0000 -17.2500 -23.5000 Du        
  11396 ****       -14.0000 -17.2500 -23.2500 Du        
  11397 ****       -14.0000 -17.2500 -23.0000 Du        
  11398 ****       -14.0000 -17.2500 -22.7500 Du        
  11399 ****       -14.0000 -17.2500 -22.5000 Du        
  11400 ****       -14.0000 -17.0000 -23.5000 Du        
  11401 ****       -14.0000 -17.0000 -23.2500 Du        
  11402 ****       -14.0000 -17.0000 -23.0000 Du        
  11403 ****       -14.0000 -17.0000 -22.7500 Du        
  11404 ****       -14.0000 -16.7500 -23.5000 Du        
  11405 ****       -14.0000 -16.7500 -23.2500 Du        
  11406 ****       -14.0000 -16.7500 -23.0000 Du        
  11407 ****       -14.0000 -16.7500 -22.7500 Du        
  11408 ****       -14.0000 -16.5000 -23.5000 Du        
  11409 ****       -14.0000 -16.5000 -23.2500 Du        
  11410 ****       -14.0000 -16.5000 -23.0000 Du        
  11411 ****       -14.0000 -16.5000  -8.7500 Du        
  11412 ****       -14.0000 -16.5000  -8.5000 Du        
  11413 ****       -14.0000 -16.2500 -23.2500 Du        
  11414 ****       -14.0000 -16.2500 -23.0000 Du        
  11415 ****       -14.0000 -16.2500  -9.5000 Du        
  11416 ****       -14.0000 -16.2500  -9.2500 Du        
  11417 ****       -14.0000 -16.2500  -9.0000 Du        
  11418 ****       -14.0000 -16.2500  -8.7500 Du        
  11419 ****       -14.0000 -16.2500  -8.5000 Du        
  11420 ****       -14.0000 -16.0000 -23.0000 Du        
  11421 ****       -14.0000 -16.0000 -10.0000 Du        
  11422 ****       -14.0000 -16.0000  -9.7500 Du        
  11423 ****       -14.0000 -16.0000  -9.5000 Du        
  11424 ****       -14.0000 -16.0000  -9.2500 Du        
  11425 ****       -14.0000 -16.0000  -9.0000 Du        
  11426 ****       -14.0000 -16.0000  -8.7500 Du        
  11427 ****       -14.0000 -15.7500 -10.2500 Du        
  11428 ****       -14.0000 -15.7500 -10.0000 Du        
  11429 ****       -14.0000 -15.7500  -9.7500 Du        
  11430 ****       -14.0000 -15.7500  -9.5000 Du        
  11431 ****       -14.0000 -15.7500  -9.2500 Du        
  11432 ****       -14.0000 -15.7500  -9.0000 Du        
  11433 ****       -14.0000 -15.7500  -8.7500 Du        
  11434 ****       -14.0000 -15.5000 -10.0000 Du        
  11435 ****       -14.0000 -15.5000  -9.7500 Du        
  11436 ****       -14.0000 -15.5000  -9.5000 Du        
  11437 ****       -14.0000 -15.5000  -9.2500 Du        
  11438 ****       -14.0000 -15.5000  -9.0000 Du        
  11439 ****       -14.0000 -15.2500 -10.0000 Du        
  11440 ****       -14.0000 -15.2500  -9.7500 Du        
  11441 ****       -14.0000 -15.2500  -9.5000 Du        
  11442 ****       -14.0000 -15.2500  -9.2500 Du        
  11443 ****       -14.0000 -15.2500  -9.0000 Du        
  11444 ****       -14.0000 -15.2500  -8.7500 Du        
  11445 ****       -14.0000 -15.0000 -10.0000 Du        
  11446 ****       -14.0000 -15.0000  -9.7500 Du        
  11447 ****       -14.0000 -15.0000  -9.5000 Du        
  11448 ****       -14.0000 -15.0000  -9.2500 Du        
  11449 ****       -14.0000 -15.0000  -9.0000 Du        
  11450 ****       -14.0000 -14.7500 -10.0000 Du        
  11451 ****       -14.0000 -14.7500  -9.7500 Du        
  11452 ****       -14.0000 -14.7500  -9.5000 Du        
  11453 ****       -14.0000 -14.7500  -9.2500 Du        
  11454 ****       -14.0000 -14.5000  -9.7500 Du        
  11455 ****       -14.0000 -14.5000  -9.5000 Du        
  11456 ****       -14.0000  -7.0000 -17.2500 Du        
  11457 ****       -14.0000  -7.0000 -17.0000 Du        
  11458 ****       -14.0000  -7.0000 -16.7500 Du        
  11459 ****       -14.0000  -7.0000 -16.5000 Du        
  11460 ****       -14.0000  -6.7500 -17.2500 Du        
  11461 ****       -14.0000  -6.7500 -17.0000 Du        
  11462 ****       -14.0000  -6.7500 -16.7500 Du        
  11463 ****       -14.0000  -6.7500 -16.5000 Du        
  11464 ****       -14.0000  -6.5000 -17.7500 Du        
  11465 ****       -14.0000  -6.5000 -17.5000 Du        
  11466 ****       -14.0000  -6.5000 -17.2500 Du        
  11467 ****       -14.0000  -6.5000 -17.0000 Du        
  11468 ****       -14.0000  -6.5000 -16.7500 Du        
  11469 ****       -14.0000  -6.5000 -16.5000 Du        
  11470 ****       -14.0000  -6.5000 -16.2500 Du        
  11471 ****       -14.0000  -6.2500 -18.2500 Du        
  11472 ****       -14.0000  -6.2500 -18.0000 Du        
  11473 ****       -14.0000  -6.2500 -17.7500 Du        
  11474 ****       -14.0000  -6.2500 -17.5000 Du        
  11475 ****       -14.0000  -6.2500 -17.2500 Du        
  11476 ****       -14.0000  -6.2500 -17.0000 Du        
  11477 ****       -14.0000  -6.2500 -16.7500 Du        
  11478 ****       -14.0000  -6.2500 -16.5000 Du        
  11479 ****       -14.0000  -6.0000 -18.7500 Du        
  11480 ****       -14.0000  -6.0000 -18.5000 Du        
  11481 ****       -14.0000  -6.0000 -18.2500 Du        
  11482 ****       -14.0000  -6.0000 -18.0000 Du        
  11483 ****       -14.0000  -6.0000 -17.7500 Du        
  11484 ****       -14.0000  -6.0000 -17.5000 Du        
  11485 ****       -14.0000  -6.0000 -17.2500 Du        
  11486 ****       -14.0000  -6.0000 -17.0000 Du        
  11487 ****       -14.0000  -5.7500 -19.0000 Du        
  11488 ****       -14.0000  -5.7500 -18.7500 Du        
  11489 ****       -14.0000  -5.7500 -18.5000 Du        
  11490 ****       -14.0000  -5.7500 -18.2500 Du        
  11491 ****       -14.0000  -5.7500 -18.0000 Du        
  11492 ****       -14.0000  -5.7500 -17.7500 Du        
  11493 ****       -14.0000  -5.5000 -18.7500 Du        
  11494 ****       -14.0000  -5.5000 -18.5000 Du        
  11495 ****       -14.0000  -5.5000 -18.2500 Du        
  11496 ****       -14.0000  -5.5000 -18.0000 Du        
  11497 ****       -14.0000  -5.2500 -18.7500 Du        
  11498 ****       -14.0000  -5.2500 -18.5000 Du        
  11499 ****       -14.0000  -5.2500 -18.2500 Du        
  11500 ****       -14.0000  -5.0000 -18.7500 Du        
  11501 ****       -14.0000  -5.0000 -18.5000 Du        
  11502 ****       -13.7500 -29.0000 -14.5000 Du        
  11503 ****       -13.7500 -29.0000 -14.2500 Du        
  11504 ****       -13.7500 -29.0000 -14.0000 Du        
  11505 ****       -13.7500 -28.7500 -14.7500 Du        
  11506 ****       -13.7500 -28.7500 -14.5000 Du        
  11507 ****       -13.7500 -28.7500 -14.2500 Du        
  11508 ****       -13.7500 -28.7500 -14.0000 Du        
  11509 ****       -13.7500 -28.5000 -14.2500 Du        
  11510 ****       -13.7500 -28.5000 -14.0000 Du        
  11511 ****       -13.7500 -28.2500 -14.2500 Du        
  11512 ****       -13.7500 -28.2500 -14.0000 Du        
  11513 ****       -13.7500 -28.2500 -13.7500 Du        
  11514 ****       -13.7500 -28.0000 -14.2500 Du        
  11515 ****       -13.7500 -28.0000 -14.0000 Du        
  11516 ****       -13.7500 -28.0000 -13.7500 Du        
  11517 ****       -13.7500 -27.7500 -14.2500 Du        
  11518 ****       -13.7500 -27.7500 -14.0000 Du        
  11519 ****       -13.7500 -27.7500 -13.7500 Du        
  11520 ****       -13.7500 -27.5000 -14.2500 Du        
  11521 ****       -13.7500 -27.5000 -14.0000 Du        
  11522 ****       -13.7500 -27.5000 -13.7500 Du        
  11523 ****       -13.7500 -27.2500 -14.5000 Du        
  11524 ****       -13.7500 -27.2500 -14.2500 Du        
  11525 ****       -13.7500 -27.2500 -14.0000 Du        
  11526 ****       -13.7500 -27.2500 -13.7500 Du        
  11527 ****       -13.7500 -27.0000 -14.5000 Du        
  11528 ****       -13.7500 -27.0000 -14.2500 Du        
  11529 ****       -13.7500 -27.0000 -14.0000 Du        
  11530 ****       -13.7500 -27.0000 -13.7500 Du        
  11531 ****       -13.7500 -26.7500 -14.5000 Du        
  11532 ****       -13.7500 -26.7500 -14.2500 Du        
  11533 ****       -13.7500 -26.7500 -14.0000 Du        
  11534 ****       -13.7500 -26.7500 -13.7500 Du        
  11535 ****       -13.7500 -26.5000 -14.7500 Du        
  11536 ****       -13.7500 -26.5000 -14.5000 Du        
  11537 ****       -13.7500 -26.5000 -14.2500 Du        
  11538 ****       -13.7500 -26.5000 -14.0000 Du        
  11539 ****       -13.7500 -26.5000 -13.7500 Du        
  11540 ****       -13.7500 -26.5000 -13.2500 Du        
  11541 ****       -13.7500 -26.5000 -13.0000 Du        
  11542 ****       -13.7500 -26.5000 -12.2500 Du        
  11543 ****       -13.7500 -26.5000 -12.0000 Du        
  11544 ****       -13.7500 -26.5000 -11.7500 Du        
  11545 ****       -13.7500 -26.2500 -15.0000 Du        
  11546 ****       -13.7500 -26.2500 -14.7500 Du        
  11547 ****       -13.7500 -26.2500 -14.5000 Du        
  11548 ****       -13.7500 -26.2500 -14.2500 Du        
  11549 ****       -13.7500 -26.2500 -14.0000 Du        
  11550 ****       -13.7500 -26.2500 -13.7500 Du        
  11551 ****       -13.7500 -26.2500 -13.5000 Du        
  11552 ****       -13.7500 -26.2500 -13.2500 Du        
  11553 ****       -13.7500 -26.2500 -13.0000 Du        
  11554 ****       -13.7500 -26.2500 -12.7500 Du        
  11555 ****       -13.7500 -26.2500 -12.5000 Du        
  11556 ****       -13.7500 -26.2500 -12.2500 Du        
  11557 ****       -13.7500 -26.2500 -12.0000 Du        
  11558 ****       -13.7500 -26.2500 -11.7500 Du        
  11559 ****       -13.7500 -26.2500 -11.5000 Du        
  11560 ****       -13.7500 -26.0000 -15.2500 Du        
  11561 ****       -13.7500 -26.0000 -15.0000 Du        
  11562 ****       -13.7500 -26.0000 -14.7500 Du        
  11563 ****       -13.7500 -26.0000 -14.5000 Du        
  11564 ****       -13.7500 -26.0000 -14.2500 Du        
  11565 ****       -13.7500 -26.0000 -14.0000 Du        
  11566 ****       -13.7500 -26.0000 -13.7500 Du        
  11567 ****       -13.7500 -26.0000 -13.5000 Du        
  11568 ****       -13.7500 -26.0000 -13.2500 Du        
  11569 ****       -13.7500 -26.0000 -13.0000 Du        
  11570 ****       -13.7500 -26.0000 -12.7500 Du        
  11571 ****       -13.7500 -26.0000 -12.5000 Du        
  11572 ****       -13.7500 -26.0000 -12.2500 Du        
  11573 ****       -13.7500 -26.0000 -12.0000 Du        
  11574 ****       -13.7500 -26.0000 -11.7500 Du        
  11575 ****       -13.7500 -26.0000 -11.5000 Du        
  11576 ****       -13.7500 -25.7500 -15.2500 Du        
  11577 ****       -13.7500 -25.7500 -15.0000 Du        
  11578 ****       -13.7500 -25.7500 -14.7500 Du        
  11579 ****       -13.7500 -25.7500 -14.5000 Du        
  11580 ****       -13.7500 -25.7500 -14.2500 Du        
  11581 ****       -13.7500 -25.7500 -14.0000 Du        
  11582 ****       -13.7500 -25.7500 -13.7500 Du        
  11583 ****       -13.7500 -25.7500 -13.5000 Du        
  11584 ****       -13.7500 -25.7500 -13.2500 Du        
  11585 ****       -13.7500 -25.7500 -13.0000 Du        
  11586 ****       -13.7500 -25.7500 -12.7500 Du        
  11587 ****       -13.7500 -25.7500 -12.5000 Du        
  11588 ****       -13.7500 -25.7500 -12.2500 Du        
  11589 ****       -13.7500 -25.7500 -12.0000 Du        
  11590 ****       -13.7500 -25.7500 -11.7500 Du        
  11591 ****       -13.7500 -25.7500 -11.5000 Du        
  11592 ****       -13.7500 -25.5000 -15.5000 Du        
  11593 ****       -13.7500 -25.5000 -15.2500 Du        
  11594 ****       -13.7500 -25.5000 -15.0000 Du        
  11595 ****       -13.7500 -25.5000 -14.7500 Du        
  11596 ****       -13.7500 -25.5000 -14.5000 Du        
  11597 ****       -13.7500 -25.5000 -14.2500 Du        
  11598 ****       -13.7500 -25.5000 -14.0000 Du        
  11599 ****       -13.7500 -25.5000 -13.7500 Du        
  11600 ****       -13.7500 -25.5000 -13.5000 Du        
  11601 ****       -13.7500 -25.5000 -13.2500 Du        
  11602 ****       -13.7500 -25.5000 -13.0000 Du        
  11603 ****       -13.7500 -25.5000 -12.7500 Du        
  11604 ****       -13.7500 -25.5000 -12.5000 Du        
  11605 ****       -13.7500 -25.5000 -12.2500 Du        
  11606 ****       -13.7500 -25.5000 -12.0000 Du        
  11607 ****       -13.7500 -25.5000 -11.7500 Du        
  11608 ****       -13.7500 -25.5000 -11.5000 Du        
  11609 ****       -13.7500 -25.5000 -11.2500 Du        
  11610 ****       -13.7500 -25.2500 -15.7500 Du        
  11611 ****       -13.7500 -25.2500 -15.5000 Du        
  11612 ****       -13.7500 -25.2500 -15.2500 Du        
  11613 ****       -13.7500 -25.2500 -15.0000 Du        
  11614 ****       -13.7500 -25.2500 -14.7500 Du        
  11615 ****       -13.7500 -25.2500 -14.5000 Du        
  11616 ****       -13.7500 -25.2500 -14.2500 Du        
  11617 ****       -13.7500 -25.2500 -14.0000 Du        
  11618 ****       -13.7500 -25.2500 -13.7500 Du        
  11619 ****       -13.7500 -25.2500 -13.5000 Du        
  11620 ****       -13.7500 -25.2500 -13.2500 Du        
  11621 ****       -13.7500 -25.2500 -13.0000 Du        
  11622 ****       -13.7500 -25.2500 -12.7500 Du        
  11623 ****       -13.7500 -25.2500 -12.5000 Du        
  11624 ****       -13.7500 -25.2500 -12.2500 Du        
  11625 ****       -13.7500 -25.2500 -12.0000 Du        
  11626 ****       -13.7500 -25.2500 -11.7500 Du        
  11627 ****       -13.7500 -25.2500 -11.5000 Du        
  11628 ****       -13.7500 -25.2500 -11.2500 Du        
  11629 ****       -13.7500 -25.0000 -16.0000 Du        
  11630 ****       -13.7500 -25.0000 -15.7500 Du        
  11631 ****       -13.7500 -25.0000 -15.5000 Du        
  11632 ****       -13.7500 -25.0000 -15.2500 Du        
  11633 ****       -13.7500 -25.0000 -15.0000 Du        
  11634 ****       -13.7500 -25.0000 -14.7500 Du        
  11635 ****       -13.7500 -25.0000 -14.5000 Du        
  11636 ****       -13.7500 -25.0000 -14.2500 Du        
  11637 ****       -13.7500 -25.0000 -14.0000 Du        
  11638 ****       -13.7500 -25.0000 -13.7500 Du        
  11639 ****       -13.7500 -25.0000 -13.5000 Du        
  11640 ****       -13.7500 -25.0000 -13.2500 Du        
  11641 ****       -13.7500 -25.0000 -13.0000 Du        
  11642 ****       -13.7500 -25.0000 -12.7500 Du        
  11643 ****       -13.7500 -25.0000 -12.5000 Du        
  11644 ****       -13.7500 -25.0000 -12.2500 Du        
  11645 ****       -13.7500 -25.0000 -12.0000 Du        
  11646 ****       -13.7500 -25.0000 -11.7500 Du        
  11647 ****       -13.7500 -25.0000 -11.5000 Du        
  11648 ****       -13.7500 -25.0000 -11.2500 Du        
  11649 ****       -13.7500 -24.7500 -16.0000 Du        
  11650 ****       -13.7500 -24.7500 -15.7500 Du        
  11651 ****       -13.7500 -24.7500 -15.5000 Du        
  11652 ****       -13.7500 -24.7500 -15.2500 Du        
  11653 ****       -13.7500 -24.7500 -15.0000 Du        
  11654 ****       -13.7500 -24.7500 -14.7500 Du        
  11655 ****       -13.7500 -24.7500 -14.5000 Du        
  11656 ****       -13.7500 -24.7500 -14.2500 Du        
  11657 ****       -13.7500 -24.7500 -14.0000 Du        
  11658 ****       -13.7500 -24.7500 -13.7500 Du        
  11659 ****       -13.7500 -24.7500 -13.5000 Du        
  11660 ****       -13.7500 -24.7500 -13.2500 Du        
  11661 ****       -13.7500 -24.7500 -13.0000 Du        
  11662 ****       -13.7500 -24.7500 -12.7500 Du        
  11663 ****       -13.7500 -24.7500 -12.5000 Du        
  11664 ****       -13.7500 -24.7500 -12.2500 Du        
  11665 ****       -13.7500 -24.7500 -12.0000 Du        
  11666 ****       -13.7500 -24.7500 -11.7500 Du        
  11667 ****       -13.7500 -24.7500 -11.5000 Du        
  11668 ****       -13.7500 -24.5000 -16.2500 Du        
  11669 ****       -13.7500 -24.5000 -16.0000 Du        
  11670 ****       -13.7500 -24.5000 -15.7500 Du        
  11671 ****       -13.7500 -24.5000 -15.5000 Du        
  11672 ****       -13.7500 -24.5000 -15.2500 Du        
  11673 ****       -13.7500 -24.5000 -15.0000 Du        
  11674 ****       -13.7500 -24.5000 -14.7500 Du        
  11675 ****       -13.7500 -24.5000 -14.5000 Du        
  11676 ****       -13.7500 -24.5000 -14.2500 Du        
  11677 ****       -13.7500 -24.5000 -14.0000 Du        
  11678 ****       -13.7500 -24.5000 -13.7500 Du        
  11679 ****       -13.7500 -24.5000 -13.5000 Du        
  11680 ****       -13.7500 -24.5000 -13.2500 Du        
  11681 ****       -13.7500 -24.5000 -13.0000 Du        
  11682 ****       -13.7500 -24.5000 -12.7500 Du        
  11683 ****       -13.7500 -24.5000 -12.5000 Du        
  11684 ****       -13.7500 -24.5000 -12.2500 Du        
  11685 ****       -13.7500 -24.5000 -12.0000 Du        
  11686 ****       -13.7500 -24.2500 -16.2500 Du        
  11687 ****       -13.7500 -24.2500 -16.0000 Du        
  11688 ****       -13.7500 -24.2500 -15.7500 Du        
  11689 ****       -13.7500 -24.2500 -15.5000 Du        
  11690 ****       -13.7500 -24.2500 -15.2500 Du        
  11691 ****       -13.7500 -24.2500 -15.0000 Du        
  11692 ****       -13.7500 -24.2500 -14.7500 Du        
  11693 ****       -13.7500 -24.2500 -14.5000 Du        
  11694 ****       -13.7500 -24.2500 -14.2500 Du        
  11695 ****       -13.7500 -24.2500 -14.0000 Du        
  11696 ****       -13.7500 -24.2500 -13.7500 Du        
  11697 ****       -13.7500 -24.2500 -13.5000 Du        
  11698 ****       -13.7500 -24.2500 -13.2500 Du        
  11699 ****       -13.7500 -24.2500 -13.0000 Du        
  11700 ****       -13.7500 -24.2500 -12.7500 Du        
  11701 ****       -13.7500 -24.0000 -16.2500 Du        
  11702 ****       -13.7500 -24.0000 -16.0000 Du        
  11703 ****       -13.7500 -24.0000 -15.7500 Du        
  11704 ****       -13.7500 -24.0000 -15.5000 Du        
  11705 ****       -13.7500 -24.0000 -15.2500 Du        
  11706 ****       -13.7500 -24.0000 -15.0000 Du        
  11707 ****       -13.7500 -24.0000 -14.7500 Du        
  11708 ****       -13.7500 -24.0000 -14.5000 Du        
  11709 ****       -13.7500 -24.0000 -14.2500 Du        
  11710 ****       -13.7500 -24.0000 -14.0000 Du        
  11711 ****       -13.7500 -24.0000 -13.7500 Du        
  11712 ****       -13.7500 -24.0000 -13.5000 Du        
  11713 ****       -13.7500 -24.0000 -13.2500 Du        
  11714 ****       -13.7500 -23.7500 -28.7500 Du        
  11715 ****       -13.7500 -23.7500 -28.5000 Du        
  11716 ****       -13.7500 -23.7500 -28.2500 Du        
  11717 ****       -13.7500 -23.7500 -16.2500 Du        
  11718 ****       -13.7500 -23.7500 -16.0000 Du        
  11719 ****       -13.7500 -23.7500 -15.7500 Du        
  11720 ****       -13.7500 -23.7500 -15.5000 Du        
  11721 ****       -13.7500 -23.7500 -15.2500 Du        
  11722 ****       -13.7500 -23.7500 -15.0000 Du        
  11723 ****       -13.7500 -23.7500 -14.7500 Du        
  11724 ****       -13.7500 -23.7500 -14.5000 Du        
  11725 ****       -13.7500 -23.7500 -14.2500 Du        
  11726 ****       -13.7500 -23.7500 -14.0000 Du        
  11727 ****       -13.7500 -23.7500 -13.7500 Du        
  11728 ****       -13.7500 -23.5000 -29.2500 Du        
  11729 ****       -13.7500 -23.5000 -29.0000 Du        
  11730 ****       -13.7500 -23.5000 -28.7500 Du        
  11731 ****       -13.7500 -23.5000 -28.5000 Du        
  11732 ****       -13.7500 -23.5000 -28.2500 Du        
  11733 ****       -13.7500 -23.5000 -16.2500 Du        
  11734 ****       -13.7500 -23.5000 -16.0000 Du        
  11735 ****       -13.7500 -23.5000 -15.7500 Du        
  11736 ****       -13.7500 -23.5000 -15.5000 Du        
  11737 ****       -13.7500 -23.5000 -15.2500 Du        
  11738 ****       -13.7500 -23.5000 -15.0000 Du        
  11739 ****       -13.7500 -23.5000 -14.7500 Du        
  11740 ****       -13.7500 -23.5000 -14.5000 Du        
  11741 ****       -13.7500 -23.5000 -14.2500 Du        
  11742 ****       -13.7500 -23.5000 -14.0000 Du        
  11743 ****       -13.7500 -23.5000 -13.7500 Du        
  11744 ****       -13.7500 -23.2500 -29.2500 Du        
  11745 ****       -13.7500 -23.2500 -29.0000 Du        
  11746 ****       -13.7500 -23.2500 -28.7500 Du        
  11747 ****       -13.7500 -23.2500 -28.5000 Du        
  11748 ****       -13.7500 -23.2500 -28.2500 Du        
  11749 ****       -13.7500 -23.2500 -16.2500 Du        
  11750 ****       -13.7500 -23.2500 -16.0000 Du        
  11751 ****       -13.7500 -23.2500 -15.7500 Du        
  11752 ****       -13.7500 -23.2500 -15.5000 Du        
  11753 ****       -13.7500 -23.2500 -15.2500 Du        
  11754 ****       -13.7500 -23.2500 -15.0000 Du        
  11755 ****       -13.7500 -23.2500 -14.7500 Du        
  11756 ****       -13.7500 -23.2500 -14.5000 Du        
  11757 ****       -13.7500 -23.2500 -14.2500 Du        
  11758 ****       -13.7500 -23.2500 -14.0000 Du        
  11759 ****       -13.7500 -23.0000 -29.2500 Du        
  11760 ****       -13.7500 -23.0000 -29.0000 Du        
  11761 ****       -13.7500 -23.0000 -28.7500 Du        
  11762 ****       -13.7500 -23.0000 -28.5000 Du        
  11763 ****       -13.7500 -23.0000 -28.2500 Du        
  11764 ****       -13.7500 -23.0000 -16.2500 Du        
  11765 ****       -13.7500 -23.0000 -16.0000 Du        
  11766 ****       -13.7500 -23.0000 -15.7500 Du        
  11767 ****       -13.7500 -23.0000 -15.5000 Du        
  11768 ****       -13.7500 -23.0000 -15.2500 Du        
  11769 ****       -13.7500 -23.0000 -15.0000 Du        
  11770 ****       -13.7500 -23.0000 -14.7500 Du        
  11771 ****       -13.7500 -23.0000 -14.5000 Du        
  11772 ****       -13.7500 -23.0000 -14.2500 Du        
  11773 ****       -13.7500 -23.0000 -14.0000 Du        
  11774 ****       -13.7500 -22.7500 -29.0000 Du        
  11775 ****       -13.7500 -22.7500 -28.7500 Du        
  11776 ****       -13.7500 -22.7500 -28.5000 Du        
  11777 ****       -13.7500 -22.7500 -28.2500 Du        
  11778 ****       -13.7500 -22.7500 -16.2500 Du        
  11779 ****       -13.7500 -22.7500 -16.0000 Du        
  11780 ****       -13.7500 -22.7500 -15.7500 Du        
  11781 ****       -13.7500 -22.7500 -15.5000 Du        
  11782 ****       -13.7500 -22.7500 -15.2500 Du        
  11783 ****       -13.7500 -22.7500 -15.0000 Du        
  11784 ****       -13.7500 -22.7500 -14.7500 Du        
  11785 ****       -13.7500 -22.7500 -14.5000 Du        
  11786 ****       -13.7500 -22.7500 -14.2500 Du        
  11787 ****       -13.7500 -22.7500 -14.0000 Du        
  11788 ****       -13.7500 -22.5000 -28.7500 Du        
  11789 ****       -13.7500 -22.5000 -28.5000 Du        
  11790 ****       -13.7500 -22.5000 -28.2500 Du        
  11791 ****       -13.7500 -22.5000 -16.0000 Du        
  11792 ****       -13.7500 -22.5000 -15.7500 Du        
  11793 ****       -13.7500 -22.5000 -15.5000 Du        
  11794 ****       -13.7500 -22.5000 -15.2500 Du        
  11795 ****       -13.7500 -22.5000 -15.0000 Du        
  11796 ****       -13.7500 -22.5000 -14.7500 Du        
  11797 ****       -13.7500 -22.5000 -14.5000 Du        
  11798 ****       -13.7500 -22.5000 -14.2500 Du        
  11799 ****       -13.7500 -22.5000 -14.0000 Du        
  11800 ****       -13.7500 -22.2500 -28.5000 Du        
  11801 ****       -13.7500 -22.2500 -28.2500 Du        
  11802 ****       -13.7500 -22.2500 -16.0000 Du        
  11803 ****       -13.7500 -22.2500 -15.7500 Du        
  11804 ****       -13.7500 -22.2500 -15.5000 Du        
  11805 ****       -13.7500 -22.2500 -15.2500 Du        
  11806 ****       -13.7500 -22.2500 -15.0000 Du        
  11807 ****       -13.7500 -22.2500 -14.7500 Du        
  11808 ****       -13.7500 -22.2500 -14.5000 Du        
  11809 ****       -13.7500 -22.2500 -14.2500 Du        
  11810 ****       -13.7500 -22.0000 -28.2500 Du        
  11811 ****       -13.7500 -22.0000 -16.0000 Du        
  11812 ****       -13.7500 -22.0000 -15.7500 Du        
  11813 ****       -13.7500 -22.0000 -15.5000 Du        
  11814 ****       -13.7500 -22.0000 -15.2500 Du        
  11815 ****       -13.7500 -22.0000 -15.0000 Du        
  11816 ****       -13.7500 -22.0000 -14.7500 Du        
  11817 ****       -13.7500 -22.0000 -14.5000 Du        
  11818 ****       -13.7500 -22.0000 -14.2500 Du        
  11819 ****       -13.7500 -21.7500 -15.7500 Du        
  11820 ****       -13.7500 -21.7500 -15.5000 Du        
  11821 ****       -13.7500 -21.7500 -15.2500 Du        
  11822 ****       -13.7500 -21.7500 -15.0000 Du        
  11823 ****       -13.7500 -21.7500 -14.7500 Du        
  11824 ****       -13.7500 -21.7500 -14.5000 Du        
  11825 ****       -13.7500 -21.7500 -14.2500 Du        
  11826 ****       -13.7500 -21.5000 -15.5000 Du        
  11827 ****       -13.7500 -21.5000 -15.2500 Du        
  11828 ****       -13.7500 -21.5000 -15.0000 Du        
  11829 ****       -13.7500 -21.5000 -14.7500 Du        
  11830 ****       -13.7500 -21.5000 -14.5000 Du        
  11831 ****       -13.7500 -21.5000 -14.2500 Du        
  11832 ****       -13.7500 -21.2500 -15.5000 Du        
  11833 ****       -13.7500 -21.2500 -15.2500 Du        
  11834 ****       -13.7500 -21.2500 -15.0000 Du        
  11835 ****       -13.7500 -21.2500 -14.7500 Du        
  11836 ****       -13.7500 -21.2500 -14.5000 Du        
  11837 ****       -13.7500 -21.2500 -14.2500 Du        
  11838 ****       -13.7500 -21.2500 -14.0000 Du        
  11839 ****       -13.7500 -21.0000 -15.2500 Du        
  11840 ****       -13.7500 -21.0000 -15.0000 Du        
  11841 ****       -13.7500 -21.0000 -14.7500 Du        
  11842 ****       -13.7500 -21.0000 -14.5000 Du        
  11843 ****       -13.7500 -21.0000 -14.2500 Du        
  11844 ****       -13.7500 -21.0000 -14.0000 Du        
  11845 ****       -13.7500 -20.7500 -15.0000 Du        
  11846 ****       -13.7500 -20.7500 -14.7500 Du        
  11847 ****       -13.7500 -20.7500 -14.5000 Du        
  11848 ****       -13.7500 -20.7500 -14.2500 Du        
  11849 ****       -13.7500 -20.7500 -14.0000 Du        
  11850 ****       -13.7500 -20.5000 -14.7500 Du        
  11851 ****       -13.7500 -20.5000 -14.5000 Du        
  11852 ****       -13.7500 -20.5000 -14.2500 Du        
  11853 ****       -13.7500 -20.5000 -14.0000 Du        
  11854 ****       -13.7500 -20.2500 -14.5000 Du        
  11855 ****       -13.7500 -20.2500 -14.2500 Du        
  11856 ****       -13.7500 -20.2500 -14.0000 Du        
  11857 ****       -13.7500 -20.0000 -14.2500 Du        
  11858 ****       -13.7500 -20.0000 -14.0000 Du        
  11859 ****       -13.7500 -17.7500 -23.5000 Du        
  11860 ****       -13.7500 -17.7500 -23.2500 Du        
  11861 ****       -13.7500 -17.7500 -23.0000 Du        
  11862 ****       -13.7500 -17.5000 -23.5000 Du        
  11863 ****       -13.7500 -17.5000 -23.2500 Du        
  11864 ****       -13.7500 -17.5000 -23.0000 Du        
  11865 ****       -13.7500 -17.2500 -23.5000 Du        
  11866 ****       -13.7500 -17.2500 -23.2500 Du        
  11867 ****       -13.7500 -17.2500 -23.0000 Du        
  11868 ****       -13.7500 -17.0000 -23.5000 Du        
  11869 ****       -13.7500 -17.0000 -23.2500 Du        
  11870 ****       -13.7500 -17.0000 -23.0000 Du        
  11871 ****       -13.7500 -17.0000  -8.2500 Du        
  11872 ****       -13.7500 -17.0000  -8.0000 Du        
  11873 ****       -13.7500 -16.7500 -23.5000 Du        
  11874 ****       -13.7500 -16.7500 -23.2500 Du        
  11875 ****       -13.7500 -16.7500 -23.0000 Du        
  11876 ****       -13.7500 -16.7500  -8.5000 Du        
  11877 ****       -13.7500 -16.7500  -8.2500 Du        
  11878 ****       -13.7500 -16.7500  -8.0000 Du        
  11879 ****       -13.7500 -16.5000 -23.5000 Du        
  11880 ****       -13.7500 -16.5000  -9.0000 Du        
  11881 ****       -13.7500 -16.5000  -8.7500 Du        
  11882 ****       -13.7500 -16.5000  -8.5000 Du        
  11883 ****       -13.7500 -16.5000  -8.2500 Du        
  11884 ****       -13.7500 -16.2500  -9.5000 Du        
  11885 ****       -13.7500 -16.2500  -9.2500 Du        
  11886 ****       -13.7500 -16.2500  -9.0000 Du        
  11887 ****       -13.7500 -16.2500  -8.7500 Du        
  11888 ****       -13.7500 -16.2500  -8.5000 Du        
  11889 ****       -13.7500 -16.2500  -8.2500 Du        
  11890 ****       -13.7500 -16.0000 -10.0000 Du        
  11891 ****       -13.7500 -16.0000  -9.7500 Du        
  11892 ****       -13.7500 -16.0000  -9.5000 Du        
  11893 ****       -13.7500 -16.0000  -9.2500 Du        
  11894 ****       -13.7500 -16.0000  -9.0000 Du        
  11895 ****       -13.7500 -16.0000  -8.7500 Du        
  11896 ****       -13.7500 -16.0000  -8.5000 Du        
  11897 ****       -13.7500 -16.0000  -8.2500 Du        
  11898 ****       -13.7500 -15.7500 -10.2500 Du        
  11899 ****       -13.7500 -15.7500 -10.0000 Du        
  11900 ****       -13.7500 -15.7500  -9.7500 Du        
  11901 ****       -13.7500 -15.7500  -9.5000 Du        
  11902 ****       -13.7500 -15.7500  -9.2500 Du        
  11903 ****       -13.7500 -15.7500  -9.0000 Du        
  11904 ****       -13.7500 -15.7500  -8.7500 Du        
  11905 ****       -13.7500 -15.7500  -8.5000 Du        
  11906 ****       -13.7500 -15.5000 -10.0000 Du        
  11907 ****       -13.7500 -15.5000  -9.7500 Du        
  11908 ****       -13.7500 -15.5000  -9.5000 Du        
  11909 ****       -13.7500 -15.5000  -9.2500 Du        
  11910 ****       -13.7500 -15.5000  -9.0000 Du        
  11911 ****       -13.7500 -15.5000  -8.7500 Du        
  11912 ****       -13.7500 -15.5000  -8.5000 Du        
  11913 ****       -13.7500 -15.2500 -10.0000 Du        
  11914 ****       -13.7500 -15.2500  -9.7500 Du        
  11915 ****       -13.7500 -15.2500  -9.5000 Du        
  11916 ****       -13.7500 -15.2500  -9.2500 Du        
  11917 ****       -13.7500 -15.2500  -9.0000 Du        
  11918 ****       -13.7500 -15.2500  -8.7500 Du        
  11919 ****       -13.7500 -15.2500  -8.5000 Du        
  11920 ****       -13.7500 -15.0000 -10.0000 Du        
  11921 ****       -13.7500 -15.0000  -9.7500 Du        
  11922 ****       -13.7500 -15.0000  -9.5000 Du        
  11923 ****       -13.7500 -15.0000  -9.2500 Du        
  11924 ****       -13.7500 -15.0000  -9.0000 Du        
  11925 ****       -13.7500 -15.0000  -8.7500 Du        
  11926 ****       -13.7500 -14.7500 -10.0000 Du        
  11927 ****       -13.7500 -14.7500  -9.7500 Du        
  11928 ****       -13.7500 -14.7500  -9.5000 Du        
  11929 ****       -13.7500 -14.7500  -9.2500 Du        
  11930 ****       -13.7500 -14.7500  -9.0000 Du        
  11931 ****       -13.7500 -14.5000 -10.0000 Du        
  11932 ****       -13.7500 -14.5000  -9.7500 Du        
  11933 ****       -13.7500 -14.5000  -9.5000 Du        
  11934 ****       -13.7500 -14.5000  -9.2500 Du        
  11935 ****       -13.7500  -7.0000 -16.5000 Du        
  11936 ****       -13.7500  -6.7500 -16.7500 Du        
  11937 ****       -13.7500  -6.7500 -16.5000 Du        
  11938 ****       -13.7500  -6.7500 -16.2500 Du        
  11939 ****       -13.7500  -6.5000 -17.5000 Du        
  11940 ****       -13.7500  -6.5000 -17.2500 Du        
  11941 ****       -13.7500  -6.5000 -17.0000 Du        
  11942 ****       -13.7500  -6.5000 -16.7500 Du        
  11943 ****       -13.7500  -6.5000 -16.5000 Du        
  11944 ****       -13.7500  -6.5000 -16.2500 Du        
  11945 ****       -13.7500  -6.2500 -18.0000 Du        
  11946 ****       -13.7500  -6.2500 -17.7500 Du        
  11947 ****       -13.7500  -6.2500 -17.5000 Du        
  11948 ****       -13.7500  -6.2500 -17.2500 Du        
  11949 ****       -13.7500  -6.2500 -17.0000 Du        
  11950 ****       -13.7500  -6.2500 -16.7500 Du        
  11951 ****       -13.7500  -6.2500 -16.5000 Du        
  11952 ****       -13.7500  -6.2500 -16.2500 Du        
  11953 ****       -13.7500  -6.2500 -16.0000 Du        
  11954 ****       -13.7500  -6.0000 -18.2500 Du        
  11955 ****       -13.7500  -6.0000 -18.0000 Du        
  11956 ****       -13.7500  -6.0000 -17.7500 Du        
  11957 ****       -13.7500  -6.0000 -17.5000 Du        
  11958 ****       -13.7500  -6.0000 -17.2500 Du        
  11959 ****       -13.7500  -6.0000 -17.0000 Du        
  11960 ****       -13.7500  -6.0000 -16.7500 Du        
  11961 ****       -13.7500  -6.0000 -16.5000 Du        
  11962 ****       -13.7500  -5.7500 -18.7500 Du        
  11963 ****       -13.7500  -5.7500 -18.5000 Du        
  11964 ****       -13.7500  -5.7500 -18.2500 Du        
  11965 ****       -13.7500  -5.7500 -18.0000 Du        
  11966 ****       -13.7500  -5.7500 -17.7500 Du        
  11967 ****       -13.7500  -5.7500 -17.5000 Du        
  11968 ****       -13.7500  -5.7500 -17.2500 Du        
  11969 ****       -13.7500  -5.5000 -18.7500 Du        
  11970 ****       -13.7500  -5.5000 -18.5000 Du        
  11971 ****       -13.7500  -5.5000 -18.2500 Du        
  11972 ****       -13.7500  -5.5000 -18.0000 Du        
  11973 ****       -13.7500  -5.5000 -17.7500 Du        
  11974 ****       -13.7500  -5.5000 -17.5000 Du        
  11975 ****       -13.7500  -5.2500 -19.0000 Du        
  11976 ****       -13.7500  -5.2500 -18.7500 Du        
  11977 ****       -13.7500  -5.2500 -18.5000 Du        
  11978 ****       -13.7500  -5.2500 -18.2500 Du        
  11979 ****       -13.7500  -5.2500 -18.0000 Du        
  11980 ****       -13.7500  -5.0000 -19.0000 Du        
  11981 ****       -13.7500  -5.0000 -18.7500 Du        
  11982 ****       -13.7500  -5.0000 -18.5000 Du        
  11983 ****       -13.7500  -5.0000 -18.2500 Du        
  11984 ****       -13.7500  -5.0000 -18.0000 Du        
  11985 ****       -13.7500  -4.7500 -19.2500 Du        
  11986 ****       -13.7500  -4.7500 -19.0000 Du        
  11987 ****       -13.7500  -4.7500 -18.7500 Du        
  11988 ****       -13.7500  -4.7500 -18.5000 Du        
  11989 ****       -13.7500  -4.7500 -18.2500 Du        
  11990 ****       -13.7500  -4.5000 -19.0000 Du        
  11991 ****       -13.7500  -4.5000 -18.7500 Du        
  11992 ****       -13.7500  -4.5000 -18.5000 Du        
  11993 ****       -13.7500  -4.5000 -18.2500 Du        
  11994 ****       -13.5000 -28.0000 -14.2500 Du        
  11995 ****       -13.5000 -28.0000 -14.0000 Du        
  11996 ****       -13.5000 -27.7500 -14.2500 Du        
  11997 ****       -13.5000 -27.7500 -14.0000 Du        
  11998 ****       -13.5000 -27.5000 -14.2500 Du        
  11999 ****       -13.5000 -27.5000 -14.0000 Du        
  12000 ****       -13.5000 -27.2500 -14.5000 Du        
  12001 ****       -13.5000 -27.2500 -14.2500 Du        
  12002 ****       -13.5000 -27.2500 -14.0000 Du        
  12003 ****       -13.5000 -27.2500 -13.7500 Du        
  12004 ****       -13.5000 -27.0000 -14.7500 Du        
  12005 ****       -13.5000 -27.0000 -14.5000 Du        
  12006 ****       -13.5000 -27.0000 -14.2500 Du        
  12007 ****       -13.5000 -27.0000 -14.0000 Du        
  12008 ****       -13.5000 -27.0000 -13.7500 Du        
  12009 ****       -13.5000 -26.7500 -14.7500 Du        
  12010 ****       -13.5000 -26.7500 -14.5000 Du        
  12011 ****       -13.5000 -26.7500 -14.2500 Du        
  12012 ****       -13.5000 -26.7500 -14.0000 Du        
  12013 ****       -13.5000 -26.7500 -13.7500 Du        
  12014 ****       -13.5000 -26.5000 -15.0000 Du        
  12015 ****       -13.5000 -26.5000 -14.7500 Du        
  12016 ****       -13.5000 -26.5000 -14.5000 Du        
  12017 ****       -13.5000 -26.5000 -14.2500 Du        
  12018 ****       -13.5000 -26.5000 -14.0000 Du        
  12019 ****       -13.5000 -26.5000 -13.7500 Du        
  12020 ****       -13.5000 -26.5000 -13.2500 Du        
  12021 ****       -13.5000 -26.5000 -13.0000 Du        
  12022 ****       -13.5000 -26.5000 -12.5000 Du        
  12023 ****       -13.5000 -26.5000 -12.2500 Du        
  12024 ****       -13.5000 -26.5000 -12.0000 Du        
  12025 ****       -13.5000 -26.2500 -15.0000 Du        
  12026 ****       -13.5000 -26.2500 -14.7500 Du        
  12027 ****       -13.5000 -26.2500 -14.5000 Du        
  12028 ****       -13.5000 -26.2500 -14.2500 Du        
  12029 ****       -13.5000 -26.2500 -14.0000 Du        
  12030 ****       -13.5000 -26.2500 -13.7500 Du        
  12031 ****       -13.5000 -26.2500 -13.5000 Du        
  12032 ****       -13.5000 -26.2500 -13.2500 Du        
  12033 ****       -13.5000 -26.2500 -13.0000 Du        
  12034 ****       -13.5000 -26.2500 -12.7500 Du        
  12035 ****       -13.5000 -26.2500 -12.5000 Du        
  12036 ****       -13.5000 -26.2500 -12.2500 Du        
  12037 ****       -13.5000 -26.2500 -12.0000 Du        
  12038 ****       -13.5000 -26.2500 -11.7500 Du        
  12039 ****       -13.5000 -26.0000 -15.2500 Du        
  12040 ****       -13.5000 -26.0000 -15.0000 Du        
  12041 ****       -13.5000 -26.0000 -14.7500 Du        
  12042 ****       -13.5000 -26.0000 -14.5000 Du        
  12043 ****       -13.5000 -26.0000 -14.2500 Du        
  12044 ****       -13.5000 -26.0000 -14.0000 Du        
  12045 ****       -13.5000 -26.0000 -13.7500 Du        
  12046 ****       -13.5000 -26.0000 -13.5000 Du        
  12047 ****       -13.5000 -26.0000 -13.2500 Du        
  12048 ****       -13.5000 -26.0000 -13.0000 Du        
  12049 ****       -13.5000 -26.0000 -12.7500 Du        
  12050 ****       -13.5000 -26.0000 -12.5000 Du        
  12051 ****       -13.5000 -26.0000 -12.2500 Du        
  12052 ****       -13.5000 -26.0000 -12.0000 Du        
  12053 ****       -13.5000 -26.0000 -11.7500 Du        
  12054 ****       -13.5000 -26.0000 -11.5000 Du        
  12055 ****       -13.5000 -25.7500 -15.5000 Du        
  12056 ****       -13.5000 -25.7500 -15.2500 Du        
  12057 ****       -13.5000 -25.7500 -15.0000 Du        
  12058 ****       -13.5000 -25.7500 -14.7500 Du        
  12059 ****       -13.5000 -25.7500 -14.5000 Du        
  12060 ****       -13.5000 -25.7500 -14.2500 Du        
  12061 ****       -13.5000 -25.7500 -14.0000 Du        
  12062 ****       -13.5000 -25.7500 -13.7500 Du        
  12063 ****       -13.5000 -25.7500 -13.5000 Du        
  12064 ****       -13.5000 -25.7500 -13.2500 Du        
  12065 ****       -13.5000 -25.7500 -13.0000 Du        
  12066 ****       -13.5000 -25.7500 -12.7500 Du        
  12067 ****       -13.5000 -25.7500 -12.5000 Du        
  12068 ****       -13.5000 -25.7500 -12.2500 Du        
  12069 ****       -13.5000 -25.7500 -12.0000 Du        
  12070 ****       -13.5000 -25.7500 -11.7500 Du        
  12071 ****       -13.5000 -25.7500 -11.5000 Du        
  12072 ****       -13.5000 -25.5000 -15.7500 Du        
  12073 ****       -13.5000 -25.5000 -15.5000 Du        
  12074 ****       -13.5000 -25.5000 -15.2500 Du        
  12075 ****       -13.5000 -25.5000 -15.0000 Du        
  12076 ****       -13.5000 -25.5000 -14.7500 Du        
  12077 ****       -13.5000 -25.5000 -14.5000 Du        
  12078 ****       -13.5000 -25.5000 -14.2500 Du        
  12079 ****       -13.5000 -25.5000 -14.0000 Du        
  12080 ****       -13.5000 -25.5000 -13.7500 Du        
  12081 ****       -13.5000 -25.5000 -13.5000 Du        
  12082 ****       -13.5000 -25.5000 -13.2500 Du        
  12083 ****       -13.5000 -25.5000 -13.0000 Du        
  12084 ****       -13.5000 -25.5000 -12.7500 Du        
  12085 ****       -13.5000 -25.5000 -12.5000 Du        
  12086 ****       -13.5000 -25.5000 -12.2500 Du        
  12087 ****       -13.5000 -25.5000 -12.0000 Du        
  12088 ****       -13.5000 -25.5000 -11.7500 Du        
  12089 ****       -13.5000 -25.5000 -11.5000 Du        
  12090 ****       -13.5000 -25.5000 -11.2500 Du        
  12091 ****       -13.5000 -25.2500 -15.7500 Du        
  12092 ****       -13.5000 -25.2500 -15.5000 Du        
  12093 ****       -13.5000 -25.2500 -15.2500 Du        
  12094 ****       -13.5000 -25.2500 -15.0000 Du        
  12095 ****       -13.5000 -25.2500 -14.7500 Du        
  12096 ****       -13.5000 -25.2500 -14.5000 Du        
  12097 ****       -13.5000 -25.2500 -14.2500 Du        
  12098 ****       -13.5000 -25.2500 -14.0000 Du        
  12099 ****       -13.5000 -25.2500 -13.7500 Du        
  12100 ****       -13.5000 -25.2500 -13.5000 Du        
  12101 ****       -13.5000 -25.2500 -13.2500 Du        
  12102 ****       -13.5000 -25.2500 -13.0000 Du        
  12103 ****       -13.5000 -25.2500 -12.7500 Du        
  12104 ****       -13.5000 -25.2500 -12.5000 Du        
  12105 ****       -13.5000 -25.2500 -12.2500 Du        
  12106 ****       -13.5000 -25.2500 -12.0000 Du        
  12107 ****       -13.5000 -25.2500 -11.7500 Du        
  12108 ****       -13.5000 -25.2500 -11.5000 Du        
  12109 ****       -13.5000 -25.2500 -11.2500 Du        
  12110 ****       -13.5000 -25.0000 -16.0000 Du        
  12111 ****       -13.5000 -25.0000 -15.7500 Du        
  12112 ****       -13.5000 -25.0000 -15.5000 Du        
  12113 ****       -13.5000 -25.0000 -15.2500 Du        
  12114 ****       -13.5000 -25.0000 -15.0000 Du        
  12115 ****       -13.5000 -25.0000 -14.7500 Du        
  12116 ****       -13.5000 -25.0000 -14.5000 Du        
  12117 ****       -13.5000 -25.0000 -14.2500 Du        
  12118 ****       -13.5000 -25.0000 -14.0000 Du        
  12119 ****       -13.5000 -25.0000 -13.7500 Du        
  12120 ****       -13.5000 -25.0000 -13.5000 Du        
  12121 ****       -13.5000 -25.0000 -13.2500 Du        
  12122 ****       -13.5000 -25.0000 -13.0000 Du        
  12123 ****       -13.5000 -25.0000 -12.7500 Du        
  12124 ****       -13.5000 -25.0000 -12.5000 Du        
  12125 ****       -13.5000 -25.0000 -12.2500 Du        
  12126 ****       -13.5000 -25.0000 -12.0000 Du        
  12127 ****       -13.5000 -25.0000 -11.7500 Du        
  12128 ****       -13.5000 -25.0000 -11.5000 Du        
  12129 ****       -13.5000 -25.0000 -11.2500 Du        
  12130 ****       -13.5000 -24.7500 -16.0000 Du        
  12131 ****       -13.5000 -24.7500 -15.7500 Du        
  12132 ****       -13.5000 -24.7500 -15.5000 Du        
  12133 ****       -13.5000 -24.7500 -15.2500 Du        
  12134 ****       -13.5000 -24.7500 -15.0000 Du        
  12135 ****       -13.5000 -24.7500 -14.7500 Du        
  12136 ****       -13.5000 -24.7500 -14.5000 Du        
  12137 ****       -13.5000 -24.7500 -14.2500 Du        
  12138 ****       -13.5000 -24.7500 -14.0000 Du        
  12139 ****       -13.5000 -24.7500 -13.7500 Du        
  12140 ****       -13.5000 -24.7500 -13.5000 Du        
  12141 ****       -13.5000 -24.7500 -13.2500 Du        
  12142 ****       -13.5000 -24.7500 -13.0000 Du        
  12143 ****       -13.5000 -24.7500 -12.7500 Du        
  12144 ****       -13.5000 -24.7500 -12.5000 Du        
  12145 ****       -13.5000 -24.7500 -12.2500 Du        
  12146 ****       -13.5000 -24.7500 -12.0000 Du        
  12147 ****       -13.5000 -24.7500 -11.7500 Du        
  12148 ****       -13.5000 -24.7500 -11.5000 Du        
  12149 ****       -13.5000 -24.5000 -16.0000 Du        
  12150 ****       -13.5000 -24.5000 -15.7500 Du        
  12151 ****       -13.5000 -24.5000 -15.5000 Du        
  12152 ****       -13.5000 -24.5000 -15.2500 Du        
  12153 ****       -13.5000 -24.5000 -15.0000 Du        
  12154 ****       -13.5000 -24.5000 -14.7500 Du        
  12155 ****       -13.5000 -24.5000 -14.5000 Du        
  12156 ****       -13.5000 -24.5000 -14.2500 Du        
  12157 ****       -13.5000 -24.5000 -14.0000 Du        
  12158 ****       -13.5000 -24.5000 -13.7500 Du        
  12159 ****       -13.5000 -24.5000 -13.5000 Du        
  12160 ****       -13.5000 -24.5000 -13.2500 Du        
  12161 ****       -13.5000 -24.5000 -13.0000 Du        
  12162 ****       -13.5000 -24.5000 -12.7500 Du        
  12163 ****       -13.5000 -24.5000 -12.2500 Du        
  12164 ****       -13.5000 -24.5000 -12.0000 Du        
  12165 ****       -13.5000 -24.2500 -16.0000 Du        
  12166 ****       -13.5000 -24.2500 -15.7500 Du        
  12167 ****       -13.5000 -24.2500 -15.5000 Du        
  12168 ****       -13.5000 -24.2500 -15.2500 Du        
  12169 ****       -13.5000 -24.2500 -15.0000 Du        
  12170 ****       -13.5000 -24.2500 -14.7500 Du        
  12171 ****       -13.5000 -24.2500 -14.5000 Du        
  12172 ****       -13.5000 -24.2500 -14.2500 Du        
  12173 ****       -13.5000 -24.2500 -14.0000 Du        
  12174 ****       -13.5000 -24.2500 -13.7500 Du        
  12175 ****       -13.5000 -24.0000 -29.2500 Du        
  12176 ****       -13.5000 -24.0000 -29.0000 Du        
  12177 ****       -13.5000 -24.0000 -28.7500 Du        
  12178 ****       -13.5000 -24.0000 -28.5000 Du        
  12179 ****       -13.5000 -24.0000 -28.2500 Du        
  12180 ****       -13.5000 -24.0000 -16.0000 Du        
  12181 ****       -13.5000 -24.0000 -15.7500 Du        
  12182 ****       -13.5000 -24.0000 -15.5000 Du        
  12183 ****       -13.5000 -24.0000 -15.2500 Du        
  12184 ****       -13.5000 -24.0000 -15.0000 Du        
  12185 ****       -13.5000 -24.0000 -14.7500 Du        
  12186 ****       -13.5000 -24.0000 -14.5000 Du        
  12187 ****       -13.5000 -24.0000 -14.2500 Du        
  12188 ****       -13.5000 -24.0000 -14.0000 Du        
  12189 ****       -13.5000 -23.7500 -29.2500 Du        
  12190 ****       -13.5000 -23.7500 -29.0000 Du        
  12191 ****       -13.5000 -23.7500 -28.7500 Du        
  12192 ****       -13.5000 -23.7500 -28.5000 Du        
  12193 ****       -13.5000 -23.7500 -28.2500 Du        
  12194 ****       -13.5000 -23.7500 -28.0000 Du        
  12195 ****       -13.5000 -23.7500 -16.2500 Du        
  12196 ****       -13.5000 -23.7500 -16.0000 Du        
  12197 ****       -13.5000 -23.7500 -15.7500 Du        
  12198 ****       -13.5000 -23.7500 -15.5000 Du        
  12199 ****       -13.5000 -23.7500 -15.2500 Du        
  12200 ****       -13.5000 -23.7500 -15.0000 Du        
  12201 ****       -13.5000 -23.7500 -14.7500 Du        
  12202 ****       -13.5000 -23.7500 -14.5000 Du        
  12203 ****       -13.5000 -23.7500 -14.2500 Du        
  12204 ****       -13.5000 -23.7500 -14.0000 Du        
  12205 ****       -13.5000 -23.5000 -29.2500 Du        
  12206 ****       -13.5000 -23.5000 -29.0000 Du        
  12207 ****       -13.5000 -23.5000 -28.7500 Du        
  12208 ****       -13.5000 -23.5000 -28.5000 Du        
  12209 ****       -13.5000 -23.5000 -28.2500 Du        
  12210 ****       -13.5000 -23.5000 -28.0000 Du        
  12211 ****       -13.5000 -23.5000 -16.2500 Du        
  12212 ****       -13.5000 -23.5000 -16.0000 Du        
  12213 ****       -13.5000 -23.5000 -15.7500 Du        
  12214 ****       -13.5000 -23.5000 -15.5000 Du        
  12215 ****       -13.5000 -23.5000 -15.2500 Du        
  12216 ****       -13.5000 -23.5000 -15.0000 Du        
  12217 ****       -13.5000 -23.5000 -14.7500 Du        
  12218 ****       -13.5000 -23.5000 -14.5000 Du        
  12219 ****       -13.5000 -23.5000 -14.2500 Du        
  12220 ****       -13.5000 -23.2500 -29.2500 Du        
  12221 ****       -13.5000 -23.2500 -29.0000 Du        
  12222 ****       -13.5000 -23.2500 -28.7500 Du        
  12223 ****       -13.5000 -23.2500 -28.5000 Du        
  12224 ****       -13.5000 -23.2500 -28.2500 Du        
  12225 ****       -13.5000 -23.2500 -28.0000 Du        
  12226 ****       -13.5000 -23.2500 -16.2500 Du        
  12227 ****       -13.5000 -23.2500 -16.0000 Du        
  12228 ****       -13.5000 -23.2500 -15.7500 Du        
  12229 ****       -13.5000 -23.2500 -15.5000 Du        
  12230 ****       -13.5000 -23.2500 -15.2500 Du        
  12231 ****       -13.5000 -23.2500 -15.0000 Du        
  12232 ****       -13.5000 -23.2500 -14.7500 Du        
  12233 ****       -13.5000 -23.2500 -14.5000 Du        
  12234 ****       -13.5000 -23.2500 -14.2500 Du        
  12235 ****       -13.5000 -23.0000 -29.0000 Du        
  12236 ****       -13.5000 -23.0000 -28.7500 Du        
  12237 ****       -13.5000 -23.0000 -28.5000 Du        
  12238 ****       -13.5000 -23.0000 -28.2500 Du        
  12239 ****       -13.5000 -23.0000 -28.0000 Du        
  12240 ****       -13.5000 -23.0000 -16.2500 Du        
  12241 ****       -13.5000 -23.0000 -16.0000 Du        
  12242 ****       -13.5000 -23.0000 -15.7500 Du        
  12243 ****       -13.5000 -23.0000 -15.5000 Du        
  12244 ****       -13.5000 -23.0000 -15.2500 Du        
  12245 ****       -13.5000 -23.0000 -15.0000 Du        
  12246 ****       -13.5000 -23.0000 -14.7500 Du        
  12247 ****       -13.5000 -23.0000 -14.5000 Du        
  12248 ****       -13.5000 -23.0000 -14.2500 Du        
  12249 ****       -13.5000 -22.7500 -28.7500 Du        
  12250 ****       -13.5000 -22.7500 -28.5000 Du        
  12251 ****       -13.5000 -22.7500 -28.2500 Du        
  12252 ****       -13.5000 -22.7500 -16.2500 Du        
  12253 ****       -13.5000 -22.7500 -16.0000 Du        
  12254 ****       -13.5000 -22.7500 -15.7500 Du        
  12255 ****       -13.5000 -22.7500 -15.5000 Du        
  12256 ****       -13.5000 -22.7500 -15.2500 Du        
  12257 ****       -13.5000 -22.7500 -15.0000 Du        
  12258 ****       -13.5000 -22.7500 -14.7500 Du        
  12259 ****       -13.5000 -22.7500 -14.5000 Du        
  12260 ****       -13.5000 -22.7500 -14.2500 Du        
  12261 ****       -13.5000 -22.5000 -28.7500 Du        
  12262 ****       -13.5000 -22.5000 -28.5000 Du        
  12263 ****       -13.5000 -22.5000 -28.2500 Du        
  12264 ****       -13.5000 -22.5000 -16.0000 Du        
  12265 ****       -13.5000 -22.5000 -15.7500 Du        
  12266 ****       -13.5000 -22.5000 -15.5000 Du        
  12267 ****       -13.5000 -22.5000 -15.2500 Du        
  12268 ****       -13.5000 -22.5000 -15.0000 Du        
  12269 ****       -13.5000 -22.5000 -14.7500 Du        
  12270 ****       -13.5000 -22.5000 -14.5000 Du        
  12271 ****       -13.5000 -22.5000 -14.2500 Du        
  12272 ****       -13.5000 -22.2500 -28.2500 Du        
  12273 ****       -13.5000 -22.2500 -16.0000 Du        
  12274 ****       -13.5000 -22.2500 -15.7500 Du        
  12275 ****       -13.5000 -22.2500 -15.5000 Du        
  12276 ****       -13.5000 -22.2500 -15.2500 Du        
  12277 ****       -13.5000 -22.2500 -15.0000 Du        
  12278 ****       -13.5000 -22.2500 -14.7500 Du        
  12279 ****       -13.5000 -22.2500 -14.5000 Du        
  12280 ****       -13.5000 -22.2500 -14.2500 Du        
  12281 ****       -13.5000 -22.0000 -16.0000 Du        
  12282 ****       -13.5000 -22.0000 -15.7500 Du        
  12283 ****       -13.5000 -22.0000 -15.5000 Du        
  12284 ****       -13.5000 -22.0000 -15.2500 Du        
  12285 ****       -13.5000 -22.0000 -15.0000 Du        
  12286 ****       -13.5000 -22.0000 -14.7500 Du        
  12287 ****       -13.5000 -22.0000 -14.5000 Du        
  12288 ****       -13.5000 -22.0000 -14.2500 Du        
  12289 ****       -13.5000 -21.7500 -15.7500 Du        
  12290 ****       -13.5000 -21.7500 -15.5000 Du        
  12291 ****       -13.5000 -21.7500 -15.2500 Du        
  12292 ****       -13.5000 -21.7500 -15.0000 Du        
  12293 ****       -13.5000 -21.7500 -14.7500 Du        
  12294 ****       -13.5000 -21.7500 -14.5000 Du        
  12295 ****       -13.5000 -21.7500 -14.2500 Du        
  12296 ****       -13.5000 -21.5000 -15.7500 Du        
  12297 ****       -13.5000 -21.5000 -15.5000 Du        
  12298 ****       -13.5000 -21.5000 -15.2500 Du        
  12299 ****       -13.5000 -21.5000 -15.0000 Du        
  12300 ****       -13.5000 -21.5000 -14.7500 Du        
  12301 ****       -13.5000 -21.5000 -14.5000 Du        
  12302 ****       -13.5000 -21.5000 -14.2500 Du        
  12303 ****       -13.5000 -21.5000 -14.0000 Du        
  12304 ****       -13.5000 -21.2500 -15.5000 Du        
  12305 ****       -13.5000 -21.2500 -15.2500 Du        
  12306 ****       -13.5000 -21.2500 -15.0000 Du        
  12307 ****       -13.5000 -21.2500 -14.7500 Du        
  12308 ****       -13.5000 -21.2500 -14.5000 Du        
  12309 ****       -13.5000 -21.2500 -14.2500 Du        
  12310 ****       -13.5000 -21.2500 -14.0000 Du        
  12311 ****       -13.5000 -21.0000 -15.2500 Du        
  12312 ****       -13.5000 -21.0000 -15.0000 Du        
  12313 ****       -13.5000 -21.0000 -14.7500 Du        
  12314 ****       -13.5000 -21.0000 -14.5000 Du        
  12315 ****       -13.5000 -21.0000 -14.2500 Du        
  12316 ****       -13.5000 -21.0000 -14.0000 Du        
  12317 ****       -13.5000 -20.7500 -15.2500 Du        
  12318 ****       -13.5000 -20.7500 -15.0000 Du        
  12319 ****       -13.5000 -20.7500 -14.7500 Du        
  12320 ****       -13.5000 -20.7500 -14.5000 Du        
  12321 ****       -13.5000 -20.7500 -14.2500 Du        
  12322 ****       -13.5000 -20.7500 -14.0000 Du        
  12323 ****       -13.5000 -20.5000 -15.0000 Du        
  12324 ****       -13.5000 -20.5000 -14.7500 Du        
  12325 ****       -13.5000 -20.5000 -14.5000 Du        
  12326 ****       -13.5000 -20.5000 -14.2500 Du        
  12327 ****       -13.5000 -20.5000 -14.0000 Du        
  12328 ****       -13.5000 -20.2500 -14.5000 Du        
  12329 ****       -13.5000 -20.2500 -14.2500 Du        
  12330 ****       -13.5000 -17.2500 -23.5000 Du        
  12331 ****       -13.5000 -17.2500 -23.2500 Du        
  12332 ****       -13.5000 -17.0000 -23.5000 Du        
  12333 ****       -13.5000 -17.0000  -8.2500 Du        
  12334 ****       -13.5000 -17.0000  -8.0000 Du        
  12335 ****       -13.5000 -16.7500 -23.5000 Du        
  12336 ****       -13.5000 -16.7500  -8.7500 Du        
  12337 ****       -13.5000 -16.7500  -8.5000 Du        
  12338 ****       -13.5000 -16.7500  -8.2500 Du        
  12339 ****       -13.5000 -16.7500  -8.0000 Du        
  12340 ****       -13.5000 -16.7500  -7.7500 Du        
  12341 ****       -13.5000 -16.5000  -9.2500 Du        
  12342 ****       -13.5000 -16.5000  -9.0000 Du        
  12343 ****       -13.5000 -16.5000  -8.7500 Du        
  12344 ****       -13.5000 -16.5000  -8.5000 Du        
  12345 ****       -13.5000 -16.5000  -8.2500 Du        
  12346 ****       -13.5000 -16.5000  -8.0000 Du        
  12347 ****       -13.5000 -16.2500 -27.0000 Du        
  12348 ****       -13.5000 -16.2500  -9.5000 Du        
  12349 ****       -13.5000 -16.2500  -9.2500 Du        
  12350 ****       -13.5000 -16.2500  -9.0000 Du        
  12351 ****       -13.5000 -16.2500  -8.7500 Du        
  12352 ****       -13.5000 -16.2500  -8.5000 Du        
  12353 ****       -13.5000 -16.2500  -8.2500 Du        
  12354 ****       -13.5000 -16.2500  -8.0000 Du        
  12355 ****       -13.5000 -16.0000 -27.0000 Du        
  12356 ****       -13.5000 -16.0000 -26.7500 Du        
  12357 ****       -13.5000 -16.0000 -10.0000 Du        
  12358 ****       -13.5000 -16.0000  -9.7500 Du        
  12359 ****       -13.5000 -16.0000  -9.5000 Du        
  12360 ****       -13.5000 -16.0000  -9.2500 Du        
  12361 ****       -13.5000 -16.0000  -9.0000 Du        
  12362 ****       -13.5000 -16.0000  -8.7500 Du        
  12363 ****       -13.5000 -16.0000  -8.5000 Du        
  12364 ****       -13.5000 -16.0000  -8.2500 Du        
  12365 ****       -13.5000 -16.0000  -8.0000 Du        
  12366 ****       -13.5000 -15.7500 -27.0000 Du        
  12367 ****       -13.5000 -15.7500 -26.7500 Du        
  12368 ****       -13.5000 -15.7500 -10.0000 Du        
  12369 ****       -13.5000 -15.7500  -9.7500 Du        
  12370 ****       -13.5000 -15.7500  -9.5000 Du        
  12371 ****       -13.5000 -15.7500  -9.2500 Du        
  12372 ****       -13.5000 -15.7500  -9.0000 Du        
  12373 ****       -13.5000 -15.7500  -8.7500 Du        
  12374 ****       -13.5000 -15.7500  -8.5000 Du        
  12375 ****       -13.5000 -15.7500  -8.2500 Du        
  12376 ****       -13.5000 -15.5000 -10.0000 Du        
  12377 ****       -13.5000 -15.5000  -9.7500 Du        
  12378 ****       -13.5000 -15.5000  -9.5000 Du        
  12379 ****       -13.5000 -15.5000  -9.2500 Du        
  12380 ****       -13.5000 -15.5000  -9.0000 Du        
  12381 ****       -13.5000 -15.5000  -8.7500 Du        
  12382 ****       -13.5000 -15.5000  -8.5000 Du        
  12383 ****       -13.5000 -15.5000  -8.2500 Du        
  12384 ****       -13.5000 -15.2500 -10.2500 Du        
  12385 ****       -13.5000 -15.2500 -10.0000 Du        
  12386 ****       -13.5000 -15.2500  -9.7500 Du        
  12387 ****       -13.5000 -15.2500  -9.5000 Du        
  12388 ****       -13.5000 -15.2500  -9.2500 Du        
  12389 ****       -13.5000 -15.2500  -9.0000 Du        
  12390 ****       -13.5000 -15.2500  -8.7500 Du        
  12391 ****       -13.5000 -15.2500  -8.5000 Du        
  12392 ****       -13.5000 -15.2500  -8.2500 Du        
  12393 ****       -13.5000 -15.0000 -10.2500 Du        
  12394 ****       -13.5000 -15.0000 -10.0000 Du        
  12395 ****       -13.5000 -15.0000  -9.7500 Du        
  12396 ****       -13.5000 -15.0000  -9.5000 Du        
  12397 ****       -13.5000 -15.0000  -9.2500 Du        
  12398 ****       -13.5000 -15.0000  -9.0000 Du        
  12399 ****       -13.5000 -15.0000  -8.7500 Du        
  12400 ****       -13.5000 -15.0000  -8.5000 Du        
  12401 ****       -13.5000 -14.7500 -10.2500 Du        
  12402 ****       -13.5000 -14.7500 -10.0000 Du        
  12403 ****       -13.5000 -14.7500  -9.7500 Du        
  12404 ****       -13.5000 -14.7500  -9.5000 Du        
  12405 ****       -13.5000 -14.7500  -9.2500 Du        
  12406 ****       -13.5000 -14.7500  -9.0000 Du        
  12407 ****       -13.5000 -14.7500  -8.7500 Du        
  12408 ****       -13.5000 -14.7500  -8.5000 Du        
  12409 ****       -13.5000 -14.5000 -10.2500 Du        
  12410 ****       -13.5000 -14.5000 -10.0000 Du        
  12411 ****       -13.5000 -14.5000  -9.7500 Du        
  12412 ****       -13.5000 -14.5000  -9.5000 Du        
  12413 ****       -13.5000 -14.5000  -9.2500 Du        
  12414 ****       -13.5000 -14.5000  -9.0000 Du        
  12415 ****       -13.5000 -14.5000  -8.7500 Du        
  12416 ****       -13.5000 -14.2500 -10.2500 Du        
  12417 ****       -13.5000 -14.2500 -10.0000 Du        
  12418 ****       -13.5000 -14.2500  -9.7500 Du        
  12419 ****       -13.5000 -14.2500  -9.5000 Du        
  12420 ****       -13.5000 -14.2500  -9.2500 Du        
  12421 ****       -13.5000  -6.7500 -16.5000 Du        
  12422 ****       -13.5000  -6.7500 -16.2500 Du        
  12423 ****       -13.5000  -6.5000 -17.2500 Du        
  12424 ****       -13.5000  -6.5000 -17.0000 Du        
  12425 ****       -13.5000  -6.5000 -16.7500 Du        
  12426 ****       -13.5000  -6.5000 -16.5000 Du        
  12427 ****       -13.5000  -6.5000 -16.2500 Du        
  12428 ****       -13.5000  -6.5000 -16.0000 Du        
  12429 ****       -13.5000  -6.2500 -17.5000 Du        
  12430 ****       -13.5000  -6.2500 -17.2500 Du        
  12431 ****       -13.5000  -6.2500 -17.0000 Du        
  12432 ****       -13.5000  -6.2500 -16.7500 Du        
  12433 ****       -13.5000  -6.2500 -16.5000 Du        
  12434 ****       -13.5000  -6.2500 -16.2500 Du        
  12435 ****       -13.5000  -6.2500 -16.0000 Du        
  12436 ****       -13.5000  -6.0000 -18.0000 Du        
  12437 ****       -13.5000  -6.0000 -17.7500 Du        
  12438 ****       -13.5000  -6.0000 -17.5000 Du        
  12439 ****       -13.5000  -6.0000 -17.2500 Du        
  12440 ****       -13.5000  -6.0000 -17.0000 Du        
  12441 ****       -13.5000  -6.0000 -16.7500 Du        
  12442 ****       -13.5000  -6.0000 -16.5000 Du        
  12443 ****       -13.5000  -6.0000 -16.2500 Du        
  12444 ****       -13.5000  -5.7500 -18.2500 Du        
  12445 ****       -13.5000  -5.7500 -18.0000 Du        
  12446 ****       -13.5000  -5.7500 -17.7500 Du        
  12447 ****       -13.5000  -5.7500 -17.5000 Du        
  12448 ****       -13.5000  -5.7500 -17.2500 Du        
  12449 ****       -13.5000  -5.7500 -17.0000 Du        
  12450 ****       -13.5000  -5.7500 -16.7500 Du        
  12451 ****       -13.5000  -5.5000 -18.5000 Du        
  12452 ****       -13.5000  -5.5000 -18.2500 Du        
  12453 ****       -13.5000  -5.5000 -18.0000 Du        
  12454 ****       -13.5000  -5.5000 -17.7500 Du        
  12455 ****       -13.5000  -5.5000 -17.5000 Du        
  12456 ****       -13.5000  -5.5000 -17.2500 Du        
  12457 ****       -13.5000  -5.2500 -19.0000 Du        
  12458 ****       -13.5000  -5.2500 -18.7500 Du        
  12459 ****       -13.5000  -5.2500 -18.5000 Du        
  12460 ****       -13.5000  -5.2500 -18.2500 Du        
  12461 ****       -13.5000  -5.2500 -18.0000 Du        
  12462 ****       -13.5000  -5.2500 -17.7500 Du        
  12463 ****       -13.5000  -5.2500 -17.5000 Du        
  12464 ****       -13.5000  -5.0000 -19.2500 Du        
  12465 ****       -13.5000  -5.0000 -19.0000 Du        
  12466 ****       -13.5000  -5.0000 -18.7500 Du        
  12467 ****       -13.5000  -5.0000 -18.5000 Du        
  12468 ****       -13.5000  -5.0000 -18.2500 Du        
  12469 ****       -13.5000  -5.0000 -18.0000 Du        
  12470 ****       -13.5000  -5.0000 -17.7500 Du        
  12471 ****       -13.5000  -4.7500 -19.2500 Du        
  12472 ****       -13.5000  -4.7500 -19.0000 Du        
  12473 ****       -13.5000  -4.7500 -18.7500 Du        
  12474 ****       -13.5000  -4.7500 -18.5000 Du        
  12475 ****       -13.5000  -4.7500 -18.2500 Du        
  12476 ****       -13.5000  -4.7500 -18.0000 Du        
  12477 ****       -13.5000  -4.5000 -19.0000 Du        
  12478 ****       -13.5000  -4.5000 -18.7500 Du        
  12479 ****       -13.5000  -4.5000 -18.5000 Du        
  12480 ****       -13.5000  -4.5000 -18.2500 Du        
  12481 ****       -13.5000  -4.5000 -18.0000 Du        
  12482 ****       -13.5000  -4.2500 -18.7500 Du        
  12483 ****       -13.5000  -4.2500 -18.5000 Du        
  12484 ****       -13.5000  -4.2500 -18.2500 Du        
  12485 ****       -13.2500 -27.7500 -14.5000 Du        
  12486 ****       -13.2500 -27.7500 -14.2500 Du        
  12487 ****       -13.2500 -27.7500 -14.0000 Du        
  12488 ****       -13.2500 -27.5000 -14.7500 Du        
  12489 ****       -13.2500 -27.5000 -14.5000 Du        
  12490 ****       -13.2500 -27.5000 -14.2500 Du        
  12491 ****       -13.2500 -27.5000 -14.0000 Du        
  12492 ****       -13.2500 -27.5000 -13.7500 Du        
  12493 ****       -13.2500 -27.2500 -15.0000 Du        
  12494 ****       -13.2500 -27.2500 -14.7500 Du        
  12495 ****       -13.2500 -27.2500 -14.5000 Du        
  12496 ****       -13.2500 -27.2500 -14.2500 Du        
  12497 ****       -13.2500 -27.2500 -14.0000 Du        
  12498 ****       -13.2500 -27.2500 -13.7500 Du        
  12499 ****       -13.2500 -27.0000 -15.0000 Du        
  12500 ****       -13.2500 -27.0000 -14.7500 Du        
  12501 ****       -13.2500 -27.0000 -14.5000 Du        
  12502 ****       -13.2500 -27.0000 -14.2500 Du        
  12503 ****       -13.2500 -27.0000 -14.0000 Du        
  12504 ****       -13.2500 -27.0000 -13.7500 Du        
  12505 ****       -13.2500 -26.7500 -15.2500 Du        
  12506 ****       -13.2500 -26.7500 -15.0000 Du        
  12507 ****       -13.2500 -26.7500 -14.7500 Du        
  12508 ****       -13.2500 -26.7500 -14.5000 Du        
  12509 ****       -13.2500 -26.7500 -14.2500 Du        
  12510 ****       -13.2500 -26.7500 -14.0000 Du        
  12511 ****       -13.2500 -26.7500 -13.7500 Du        
  12512 ****       -13.2500 -26.7500 -13.5000 Du        
  12513 ****       -13.2500 -26.7500 -13.2500 Du        
  12514 ****       -13.2500 -26.5000 -15.2500 Du        
  12515 ****       -13.2500 -26.5000 -15.0000 Du        
  12516 ****       -13.2500 -26.5000 -14.7500 Du        
  12517 ****       -13.2500 -26.5000 -14.5000 Du        
  12518 ****       -13.2500 -26.5000 -14.2500 Du        
  12519 ****       -13.2500 -26.5000 -14.0000 Du        
  12520 ****       -13.2500 -26.5000 -13.7500 Du        
  12521 ****       -13.2500 -26.5000 -13.5000 Du        
  12522 ****       -13.2500 -26.5000 -13.2500 Du        
  12523 ****       -13.2500 -26.5000 -13.0000 Du        
  12524 ****       -13.2500 -26.5000 -12.7500 Du        
  12525 ****       -13.2500 -26.5000 -12.5000 Du        
  12526 ****       -13.2500 -26.5000 -12.2500 Du        
  12527 ****       -13.2500 -26.5000 -12.0000 Du        
  12528 ****       -13.2500 -26.2500 -15.5000 Du        
  12529 ****       -13.2500 -26.2500 -15.2500 Du        
  12530 ****       -13.2500 -26.2500 -15.0000 Du        
  12531 ****       -13.2500 -26.2500 -14.7500 Du        
  12532 ****       -13.2500 -26.2500 -14.5000 Du        
  12533 ****       -13.2500 -26.2500 -14.2500 Du        
  12534 ****       -13.2500 -26.2500 -14.0000 Du        
  12535 ****       -13.2500 -26.2500 -13.7500 Du        
  12536 ****       -13.2500 -26.2500 -13.5000 Du        
  12537 ****       -13.2500 -26.2500 -13.2500 Du        
  12538 ****       -13.2500 -26.2500 -13.0000 Du        
  12539 ****       -13.2500 -26.2500 -12.7500 Du        
  12540 ****       -13.2500 -26.2500 -12.5000 Du        
  12541 ****       -13.2500 -26.2500 -12.2500 Du        
  12542 ****       -13.2500 -26.2500 -12.0000 Du        
  12543 ****       -13.2500 -26.2500 -11.7500 Du        
  12544 ****       -13.2500 -26.0000 -15.7500 Du        
  12545 ****       -13.2500 -26.0000 -15.5000 Du        
  12546 ****       -13.2500 -26.0000 -15.2500 Du        
  12547 ****       -13.2500 -26.0000 -15.0000 Du        
  12548 ****       -13.2500 -26.0000 -14.7500 Du        
  12549 ****       -13.2500 -26.0000 -14.5000 Du        
  12550 ****       -13.2500 -26.0000 -14.2500 Du        
  12551 ****       -13.2500 -26.0000 -14.0000 Du        
  12552 ****       -13.2500 -26.0000 -13.7500 Du        
  12553 ****       -13.2500 -26.0000 -13.5000 Du        
  12554 ****       -13.2500 -26.0000 -13.2500 Du        
  12555 ****       -13.2500 -26.0000 -13.0000 Du        
  12556 ****       -13.2500 -26.0000 -12.7500 Du        
  12557 ****       -13.2500 -26.0000 -12.5000 Du        
  12558 ****       -13.2500 -26.0000 -12.2500 Du        
  12559 ****       -13.2500 -26.0000 -12.0000 Du        
  12560 ****       -13.2500 -26.0000 -11.7500 Du        
  12561 ****       -13.2500 -26.0000 -11.5000 Du        
  12562 ****       -13.2500 -25.7500 -15.7500 Du        
  12563 ****       -13.2500 -25.7500 -15.5000 Du        
  12564 ****       -13.2500 -25.7500 -15.2500 Du        
  12565 ****       -13.2500 -25.7500 -15.0000 Du        
  12566 ****       -13.2500 -25.7500 -14.7500 Du        
  12567 ****       -13.2500 -25.7500 -14.5000 Du        
  12568 ****       -13.2500 -25.7500 -14.2500 Du        
  12569 ****       -13.2500 -25.7500 -14.0000 Du        
  12570 ****       -13.2500 -25.7500 -13.7500 Du        
  12571 ****       -13.2500 -25.7500 -13.5000 Du        
  12572 ****       -13.2500 -25.7500 -13.2500 Du        
  12573 ****       -13.2500 -25.7500 -13.0000 Du        
  12574 ****       -13.2500 -25.7500 -12.7500 Du        
  12575 ****       -13.2500 -25.7500 -12.5000 Du        
  12576 ****       -13.2500 -25.7500 -12.2500 Du        
  12577 ****       -13.2500 -25.7500 -12.0000 Du        
  12578 ****       -13.2500 -25.7500 -11.7500 Du        
  12579 ****       -13.2500 -25.7500 -11.5000 Du        
  12580 ****       -13.2500 -25.5000 -15.7500 Du        
  12581 ****       -13.2500 -25.5000 -15.5000 Du        
  12582 ****       -13.2500 -25.5000 -15.2500 Du        
  12583 ****       -13.2500 -25.5000 -15.0000 Du        
  12584 ****       -13.2500 -25.5000 -14.7500 Du        
  12585 ****       -13.2500 -25.5000 -14.5000 Du        
  12586 ****       -13.2500 -25.5000 -14.2500 Du        
  12587 ****       -13.2500 -25.5000 -14.0000 Du        
  12588 ****       -13.2500 -25.5000 -13.7500 Du        
  12589 ****       -13.2500 -25.5000 -13.5000 Du        
  12590 ****       -13.2500 -25.5000 -13.2500 Du        
  12591 ****       -13.2500 -25.5000 -13.0000 Du        
  12592 ****       -13.2500 -25.5000 -12.7500 Du        
  12593 ****       -13.2500 -25.5000 -12.5000 Du        
  12594 ****       -13.2500 -25.5000 -12.2500 Du        
  12595 ****       -13.2500 -25.5000 -12.0000 Du        
  12596 ****       -13.2500 -25.5000 -11.7500 Du        
  12597 ****       -13.2500 -25.5000 -11.5000 Du        
  12598 ****       -13.2500 -25.5000 -11.2500 Du        
  12599 ****       -13.2500 -25.2500 -15.7500 Du        
  12600 ****       -13.2500 -25.2500 -15.5000 Du        
  12601 ****       -13.2500 -25.2500 -15.2500 Du        
  12602 ****       -13.2500 -25.2500 -15.0000 Du        
  12603 ****       -13.2500 -25.2500 -14.7500 Du        
  12604 ****       -13.2500 -25.2500 -14.5000 Du        
  12605 ****       -13.2500 -25.2500 -14.2500 Du        
  12606 ****       -13.2500 -25.2500 -14.0000 Du        
  12607 ****       -13.2500 -25.2500 -13.7500 Du        
  12608 ****       -13.2500 -25.2500 -13.5000 Du        
  12609 ****       -13.2500 -25.2500 -13.2500 Du        
  12610 ****       -13.2500 -25.2500 -13.0000 Du        
  12611 ****       -13.2500 -25.2500 -12.7500 Du        
  12612 ****       -13.2500 -25.2500 -12.5000 Du        
  12613 ****       -13.2500 -25.2500 -12.2500 Du        
  12614 ****       -13.2500 -25.2500 -12.0000 Du        
  12615 ****       -13.2500 -25.2500 -11.7500 Du        
  12616 ****       -13.2500 -25.2500 -11.5000 Du        
  12617 ****       -13.2500 -25.2500 -11.2500 Du        
  12618 ****       -13.2500 -25.0000 -15.7500 Du        
  12619 ****       -13.2500 -25.0000 -15.5000 Du        
  12620 ****       -13.2500 -25.0000 -15.2500 Du        
  12621 ****       -13.2500 -25.0000 -15.0000 Du        
  12622 ****       -13.2500 -25.0000 -14.7500 Du        
  12623 ****       -13.2500 -25.0000 -14.5000 Du        
  12624 ****       -13.2500 -25.0000 -14.2500 Du        
  12625 ****       -13.2500 -25.0000 -14.0000 Du        
  12626 ****       -13.2500 -25.0000 -13.0000 Du        
  12627 ****       -13.2500 -25.0000 -12.7500 Du        
  12628 ****       -13.2500 -25.0000 -12.5000 Du        
  12629 ****       -13.2500 -25.0000 -12.2500 Du        
  12630 ****       -13.2500 -25.0000 -12.0000 Du        
  12631 ****       -13.2500 -25.0000 -11.7500 Du        
  12632 ****       -13.2500 -25.0000 -11.5000 Du        
  12633 ****       -13.2500 -25.0000 -11.2500 Du        
  12634 ****       -13.2500 -24.7500 -15.7500 Du        
  12635 ****       -13.2500 -24.7500 -15.5000 Du        
  12636 ****       -13.2500 -24.7500 -15.2500 Du        
  12637 ****       -13.2500 -24.7500 -15.0000 Du        
  12638 ****       -13.2500 -24.7500 -14.7500 Du        
  12639 ****       -13.2500 -24.7500 -14.5000 Du        
  12640 ****       -13.2500 -24.7500 -14.2500 Du        
  12641 ****       -13.2500 -24.7500 -12.2500 Du        
  12642 ****       -13.2500 -24.7500 -12.0000 Du        
  12643 ****       -13.2500 -24.7500 -11.7500 Du        
  12644 ****       -13.2500 -24.7500 -11.5000 Du        
  12645 ****       -13.2500 -24.7500 -11.2500 Du        
  12646 ****       -13.2500 -24.5000 -15.7500 Du        
  12647 ****       -13.2500 -24.5000 -15.5000 Du        
  12648 ****       -13.2500 -24.5000 -15.2500 Du        
  12649 ****       -13.2500 -24.5000 -15.0000 Du        
  12650 ****       -13.2500 -24.5000 -14.7500 Du        
  12651 ****       -13.2500 -24.5000 -14.5000 Du        
  12652 ****       -13.2500 -24.5000 -14.2500 Du        
  12653 ****       -13.2500 -24.5000 -11.7500 Du        
  12654 ****       -13.2500 -24.2500 -28.7500 Du        
  12655 ****       -13.2500 -24.2500 -28.5000 Du        
  12656 ****       -13.2500 -24.2500 -28.2500 Du        
  12657 ****       -13.2500 -24.2500 -28.0000 Du        
  12658 ****       -13.2500 -24.2500 -15.7500 Du        
  12659 ****       -13.2500 -24.2500 -15.5000 Du        
  12660 ****       -13.2500 -24.2500 -15.2500 Du        
  12661 ****       -13.2500 -24.2500 -15.0000 Du        
  12662 ****       -13.2500 -24.2500 -14.7500 Du        
  12663 ****       -13.2500 -24.2500 -14.5000 Du        
  12664 ****       -13.2500 -24.2500 -14.2500 Du        
  12665 ****       -13.2500 -24.0000 -29.2500 Du        
  12666 ****       -13.2500 -24.0000 -29.0000 Du        
  12667 ****       -13.2500 -24.0000 -28.7500 Du        
  12668 ****       -13.2500 -24.0000 -28.5000 Du        
  12669 ****       -13.2500 -24.0000 -28.2500 Du        
  12670 ****       -13.2500 -24.0000 -28.0000 Du        
  12671 ****       -13.2500 -24.0000 -27.7500 Du        
  12672 ****       -13.2500 -24.0000 -15.7500 Du        
  12673 ****       -13.2500 -24.0000 -15.5000 Du        
  12674 ****       -13.2500 -24.0000 -15.2500 Du        
  12675 ****       -13.2500 -24.0000 -15.0000 Du        
  12676 ****       -13.2500 -24.0000 -14.7500 Du        
  12677 ****       -13.2500 -24.0000 -14.5000 Du        
  12678 ****       -13.2500 -23.7500 -29.2500 Du        
  12679 ****       -13.2500 -23.7500 -29.0000 Du        
  12680 ****       -13.2500 -23.7500 -28.7500 Du        
  12681 ****       -13.2500 -23.7500 -28.5000 Du        
  12682 ****       -13.2500 -23.7500 -28.2500 Du        
  12683 ****       -13.2500 -23.7500 -28.0000 Du        
  12684 ****       -13.2500 -23.7500 -27.7500 Du        
  12685 ****       -13.2500 -23.7500 -16.0000 Du        
  12686 ****       -13.2500 -23.7500 -15.7500 Du        
  12687 ****       -13.2500 -23.7500 -15.5000 Du        
  12688 ****       -13.2500 -23.7500 -15.2500 Du        
  12689 ****       -13.2500 -23.7500 -15.0000 Du        
  12690 ****       -13.2500 -23.7500 -14.7500 Du        
  12691 ****       -13.2500 -23.7500 -14.5000 Du        
  12692 ****       -13.2500 -23.5000 -29.2500 Du        
  12693 ****       -13.2500 -23.5000 -29.0000 Du        
  12694 ****       -13.2500 -23.5000 -28.7500 Du        
  12695 ****       -13.2500 -23.5000 -28.5000 Du        
  12696 ****       -13.2500 -23.5000 -28.2500 Du        
  12697 ****       -13.2500 -23.5000 -28.0000 Du        
  12698 ****       -13.2500 -23.5000 -16.0000 Du        
  12699 ****       -13.2500 -23.5000 -15.7500 Du        
  12700 ****       -13.2500 -23.5000 -15.5000 Du        
  12701 ****       -13.2500 -23.5000 -15.2500 Du        
  12702 ****       -13.2500 -23.5000 -15.0000 Du        
  12703 ****       -13.2500 -23.5000 -14.7500 Du        
  12704 ****       -13.2500 -23.2500 -29.2500 Du        
  12705 ****       -13.2500 -23.2500 -29.0000 Du        
  12706 ****       -13.2500 -23.2500 -28.7500 Du        
  12707 ****       -13.2500 -23.2500 -28.5000 Du        
  12708 ****       -13.2500 -23.2500 -28.2500 Du        
  12709 ****       -13.2500 -23.2500 -28.0000 Du        
  12710 ****       -13.2500 -23.2500 -16.0000 Du        
  12711 ****       -13.2500 -23.2500 -15.7500 Du        
  12712 ****       -13.2500 -23.2500 -15.5000 Du        
  12713 ****       -13.2500 -23.2500 -15.2500 Du        
  12714 ****       -13.2500 -23.2500 -15.0000 Du        
  12715 ****       -13.2500 -23.2500 -14.7500 Du        
  12716 ****       -13.2500 -23.0000 -29.0000 Du        
  12717 ****       -13.2500 -23.0000 -28.7500 Du        
  12718 ****       -13.2500 -23.0000 -28.5000 Du        
  12719 ****       -13.2500 -23.0000 -28.2500 Du        
  12720 ****       -13.2500 -23.0000 -28.0000 Du        
  12721 ****       -13.2500 -23.0000 -16.2500 Du        
  12722 ****       -13.2500 -23.0000 -16.0000 Du        
  12723 ****       -13.2500 -23.0000 -15.7500 Du        
  12724 ****       -13.2500 -23.0000 -15.5000 Du        
  12725 ****       -13.2500 -23.0000 -15.2500 Du        
  12726 ****       -13.2500 -23.0000 -15.0000 Du        
  12727 ****       -13.2500 -23.0000 -14.7500 Du        
  12728 ****       -13.2500 -22.7500 -28.7500 Du        
  12729 ****       -13.2500 -22.7500 -28.5000 Du        
  12730 ****       -13.2500 -22.7500 -28.2500 Du        
  12731 ****       -13.2500 -22.7500 -28.0000 Du        
  12732 ****       -13.2500 -22.7500 -16.2500 Du        
  12733 ****       -13.2500 -22.7500 -16.0000 Du        
  12734 ****       -13.2500 -22.7500 -15.7500 Du        
  12735 ****       -13.2500 -22.7500 -15.5000 Du        
  12736 ****       -13.2500 -22.7500 -15.2500 Du        
  12737 ****       -13.2500 -22.7500 -15.0000 Du        
  12738 ****       -13.2500 -22.7500 -14.7500 Du        
  12739 ****       -13.2500 -22.5000 -28.5000 Du        
  12740 ****       -13.2500 -22.5000 -28.2500 Du        
  12741 ****       -13.2500 -22.5000 -28.0000 Du        
  12742 ****       -13.2500 -22.5000 -16.2500 Du        
  12743 ****       -13.2500 -22.5000 -16.0000 Du        
  12744 ****       -13.2500 -22.5000 -15.7500 Du        
  12745 ****       -13.2500 -22.5000 -15.5000 Du        
  12746 ****       -13.2500 -22.5000 -15.2500 Du        
  12747 ****       -13.2500 -22.5000 -15.0000 Du        
  12748 ****       -13.2500 -22.5000 -14.7500 Du        
  12749 ****       -13.2500 -22.2500 -28.2500 Du        
  12750 ****       -13.2500 -22.2500 -28.0000 Du        
  12751 ****       -13.2500 -22.2500 -16.0000 Du        
  12752 ****       -13.2500 -22.2500 -15.7500 Du        
  12753 ****       -13.2500 -22.2500 -15.5000 Du        
  12754 ****       -13.2500 -22.2500 -15.2500 Du        
  12755 ****       -13.2500 -22.2500 -15.0000 Du        
  12756 ****       -13.2500 -22.2500 -14.7500 Du        
  12757 ****       -13.2500 -22.2500 -14.5000 Du        
  12758 ****       -13.2500 -22.0000 -28.0000 Du        
  12759 ****       -13.2500 -22.0000 -16.0000 Du        
  12760 ****       -13.2500 -22.0000 -15.7500 Du        
  12761 ****       -13.2500 -22.0000 -15.5000 Du        
  12762 ****       -13.2500 -22.0000 -15.2500 Du        
  12763 ****       -13.2500 -22.0000 -15.0000 Du        
  12764 ****       -13.2500 -22.0000 -14.7500 Du        
  12765 ****       -13.2500 -22.0000 -14.5000 Du        
  12766 ****       -13.2500 -21.7500 -16.0000 Du        
  12767 ****       -13.2500 -21.7500 -15.7500 Du        
  12768 ****       -13.2500 -21.7500 -15.5000 Du        
  12769 ****       -13.2500 -21.7500 -15.2500 Du        
  12770 ****       -13.2500 -21.7500 -15.0000 Du        
  12771 ****       -13.2500 -21.7500 -14.7500 Du        
  12772 ****       -13.2500 -21.7500 -14.5000 Du        
  12773 ****       -13.2500 -21.7500 -14.2500 Du        
  12774 ****       -13.2500 -21.5000 -15.7500 Du        
  12775 ****       -13.2500 -21.5000 -15.5000 Du        
  12776 ****       -13.2500 -21.5000 -15.2500 Du        
  12777 ****       -13.2500 -21.5000 -15.0000 Du        
  12778 ****       -13.2500 -21.5000 -14.7500 Du        
  12779 ****       -13.2500 -21.5000 -14.5000 Du        
  12780 ****       -13.2500 -21.5000 -14.2500 Du        
  12781 ****       -13.2500 -21.2500 -15.7500 Du        
  12782 ****       -13.2500 -21.2500 -15.5000 Du        
  12783 ****       -13.2500 -21.2500 -15.2500 Du        
  12784 ****       -13.2500 -21.2500 -15.0000 Du        
  12785 ****       -13.2500 -21.2500 -14.7500 Du        
  12786 ****       -13.2500 -21.2500 -14.5000 Du        
  12787 ****       -13.2500 -21.2500 -14.2500 Du        
  12788 ****       -13.2500 -21.2500 -14.0000 Du        
  12789 ****       -13.2500 -21.0000 -15.5000 Du        
  12790 ****       -13.2500 -21.0000 -15.2500 Du        
  12791 ****       -13.2500 -21.0000 -15.0000 Du        
  12792 ****       -13.2500 -21.0000 -14.7500 Du        
  12793 ****       -13.2500 -21.0000 -14.5000 Du        
  12794 ****       -13.2500 -21.0000 -14.2500 Du        
  12795 ****       -13.2500 -21.0000 -14.0000 Du        
  12796 ****       -13.2500 -20.7500 -15.2500 Du        
  12797 ****       -13.2500 -20.7500 -15.0000 Du        
  12798 ****       -13.2500 -20.7500 -14.7500 Du        
  12799 ****       -13.2500 -20.7500 -14.5000 Du        
  12800 ****       -13.2500 -20.7500 -14.2500 Du        
  12801 ****       -13.2500 -20.5000 -15.0000 Du        
  12802 ****       -13.2500 -20.5000 -14.7500 Du        
  12803 ****       -13.2500 -20.5000 -14.5000 Du        
  12804 ****       -13.2500 -17.0000  -8.2500 Du        
  12805 ****       -13.2500 -17.0000  -8.0000 Du        
  12806 ****       -13.2500 -16.7500 -26.7500 Du        
  12807 ****       -13.2500 -16.7500  -8.7500 Du        
  12808 ****       -13.2500 -16.7500  -8.5000 Du        
  12809 ****       -13.2500 -16.7500  -8.2500 Du        
  12810 ****       -13.2500 -16.7500  -8.0000 Du        
  12811 ****       -13.2500 -16.7500  -7.7500 Du        
  12812 ****       -13.2500 -16.5000 -26.7500 Du        
  12813 ****       -13.2500 -16.5000  -9.2500 Du        
  12814 ****       -13.2500 -16.5000  -9.0000 Du        
  12815 ****       -13.2500 -16.5000  -8.7500 Du        
  12816 ****       -13.2500 -16.5000  -8.5000 Du        
  12817 ****       -13.2500 -16.5000  -8.2500 Du        
  12818 ****       -13.2500 -16.5000  -8.0000 Du        
  12819 ****       -13.2500 -16.5000  -7.7500 Du        
  12820 ****       -13.2500 -16.2500 -27.2500 Du        
  12821 ****       -13.2500 -16.2500 -27.0000 Du        
  12822 ****       -13.2500 -16.2500 -26.7500 Du        
  12823 ****       -13.2500 -16.2500  -9.7500 Du        
  12824 ****       -13.2500 -16.2500  -9.5000 Du        
  12825 ****       -13.2500 -16.2500  -9.2500 Du        
  12826 ****       -13.2500 -16.2500  -9.0000 Du        
  12827 ****       -13.2500 -16.2500  -8.7500 Du        
  12828 ****       -13.2500 -16.2500  -8.5000 Du        
  12829 ****       -13.2500 -16.2500  -8.2500 Du        
  12830 ****       -13.2500 -16.2500  -8.0000 Du        
  12831 ****       -13.2500 -16.2500  -7.7500 Du        
  12832 ****       -13.2500 -16.0000 -27.5000 Du        
  12833 ****       -13.2500 -16.0000 -27.2500 Du        
  12834 ****       -13.2500 -16.0000 -27.0000 Du        
  12835 ****       -13.2500 -16.0000 -26.7500 Du        
  12836 ****       -13.2500 -16.0000  -9.7500 Du        
  12837 ****       -13.2500 -16.0000  -9.5000 Du        
  12838 ****       -13.2500 -16.0000  -9.2500 Du        
  12839 ****       -13.2500 -16.0000  -9.0000 Du        
  12840 ****       -13.2500 -16.0000  -8.7500 Du        
  12841 ****       -13.2500 -16.0000  -8.5000 Du        
  12842 ****       -13.2500 -16.0000  -8.2500 Du        
  12843 ****       -13.2500 -16.0000  -8.0000 Du        
  12844 ****       -13.2500 -16.0000  -7.7500 Du        
  12845 ****       -13.2500 -15.7500 -27.2500 Du        
  12846 ****       -13.2500 -15.7500 -27.0000 Du        
  12847 ****       -13.2500 -15.7500 -26.7500 Du        
  12848 ****       -13.2500 -15.7500 -10.0000 Du        
  12849 ****       -13.2500 -15.7500  -9.7500 Du        
  12850 ****       -13.2500 -15.7500  -9.5000 Du        
  12851 ****       -13.2500 -15.7500  -9.2500 Du        
  12852 ****       -13.2500 -15.7500  -9.0000 Du        
  12853 ****       -13.2500 -15.7500  -8.7500 Du        
  12854 ****       -13.2500 -15.7500  -8.5000 Du        
  12855 ****       -13.2500 -15.7500  -8.2500 Du        
  12856 ****       -13.2500 -15.7500  -8.0000 Du        
  12857 ****       -13.2500 -15.5000 -10.0000 Du        
  12858 ****       -13.2500 -15.5000  -9.7500 Du        
  12859 ****       -13.2500 -15.5000  -9.5000 Du        
  12860 ****       -13.2500 -15.5000  -9.2500 Du        
  12861 ****       -13.2500 -15.5000  -9.0000 Du        
  12862 ****       -13.2500 -15.5000  -8.7500 Du        
  12863 ****       -13.2500 -15.5000  -8.5000 Du        
  12864 ****       -13.2500 -15.5000  -8.2500 Du        
  12865 ****       -13.2500 -15.5000  -8.0000 Du        
  12866 ****       -13.2500 -15.2500 -10.0000 Du        
  12867 ****       -13.2500 -15.2500  -9.7500 Du        
  12868 ****       -13.2500 -15.2500  -9.5000 Du        
  12869 ****       -13.2500 -15.2500  -9.2500 Du        
  12870 ****       -13.2500 -15.2500  -9.0000 Du        
  12871 ****       -13.2500 -15.2500  -8.7500 Du        
  12872 ****       -13.2500 -15.2500  -8.5000 Du        
  12873 ****       -13.2500 -15.2500  -8.2500 Du        
  12874 ****       -13.2500 -15.0000 -10.2500 Du        
  12875 ****       -13.2500 -15.0000 -10.0000 Du        
  12876 ****       -13.2500 -15.0000  -9.7500 Du        
  12877 ****       -13.2500 -15.0000  -9.5000 Du        
  12878 ****       -13.2500 -15.0000  -9.2500 Du        
  12879 ****       -13.2500 -15.0000  -9.0000 Du        
  12880 ****       -13.2500 -15.0000  -8.7500 Du        
  12881 ****       -13.2500 -15.0000  -8.5000 Du        
  12882 ****       -13.2500 -15.0000  -8.2500 Du        
  12883 ****       -13.2500 -14.7500 -10.2500 Du        
  12884 ****       -13.2500 -14.7500 -10.0000 Du        
  12885 ****       -13.2500 -14.7500  -9.7500 Du        
  12886 ****       -13.2500 -14.7500  -9.5000 Du        
  12887 ****       -13.2500 -14.7500  -9.2500 Du        
  12888 ****       -13.2500 -14.7500  -9.0000 Du        
  12889 ****       -13.2500 -14.7500  -8.7500 Du        
  12890 ****       -13.2500 -14.7500  -8.5000 Du        
  12891 ****       -13.2500 -14.7500  -8.2500 Du        
  12892 ****       -13.2500 -14.5000 -10.2500 Du        
  12893 ****       -13.2500 -14.5000 -10.0000 Du        
  12894 ****       -13.2500 -14.5000  -9.7500 Du        
  12895 ****       -13.2500 -14.5000  -9.5000 Du        
  12896 ****       -13.2500 -14.5000  -9.2500 Du        
  12897 ****       -13.2500 -14.5000  -9.0000 Du        
  12898 ****       -13.2500 -14.5000  -8.7500 Du        
  12899 ****       -13.2500 -14.5000  -8.5000 Du        
  12900 ****       -13.2500 -14.2500 -10.5000 Du        
  12901 ****       -13.2500 -14.2500 -10.2500 Du        
  12902 ****       -13.2500 -14.2500 -10.0000 Du        
  12903 ****       -13.2500 -14.2500  -9.7500 Du        
  12904 ****       -13.2500 -14.2500  -9.5000 Du        
  12905 ****       -13.2500 -14.2500  -9.2500 Du        
  12906 ****       -13.2500 -14.2500  -9.0000 Du        
  12907 ****       -13.2500 -14.2500  -8.7500 Du        
  12908 ****       -13.2500 -14.0000 -10.2500 Du        
  12909 ****       -13.2500 -14.0000 -10.0000 Du        
  12910 ****       -13.2500 -14.0000  -9.7500 Du        
  12911 ****       -13.2500 -14.0000  -9.5000 Du        
  12912 ****       -13.2500  -6.7500 -16.5000 Du        
  12913 ****       -13.2500  -6.7500 -16.2500 Du        
  12914 ****       -13.2500  -6.7500 -16.0000 Du        
  12915 ****       -13.2500  -6.5000 -17.2500 Du        
  12916 ****       -13.2500  -6.5000 -17.0000 Du        
  12917 ****       -13.2500  -6.5000 -16.7500 Du        
  12918 ****       -13.2500  -6.5000 -16.5000 Du        
  12919 ****       -13.2500  -6.5000 -16.2500 Du        
  12920 ****       -13.2500  -6.5000 -16.0000 Du        
  12921 ****       -13.2500  -6.5000 -15.7500 Du        
  12922 ****       -13.2500  -6.5000 -15.5000 Du        
  12923 ****       -13.2500  -6.2500 -17.5000 Du        
  12924 ****       -13.2500  -6.2500 -17.2500 Du        
  12925 ****       -13.2500  -6.2500 -17.0000 Du        
  12926 ****       -13.2500  -6.2500 -16.7500 Du        
  12927 ****       -13.2500  -6.2500 -16.5000 Du        
  12928 ****       -13.2500  -6.2500 -16.2500 Du        
  12929 ****       -13.2500  -6.2500 -16.0000 Du        
  12930 ****       -13.2500  -6.2500 -15.7500 Du        
  12931 ****       -13.2500  -6.0000 -18.0000 Du        
  12932 ****       -13.2500  -6.0000 -17.7500 Du        
  12933 ****       -13.2500  -6.0000 -17.5000 Du        
  12934 ****       -13.2500  -6.0000 -17.2500 Du        
  12935 ****       -13.2500  -6.0000 -17.0000 Du        
  12936 ****       -13.2500  -6.0000 -16.7500 Du        
  12937 ****       -13.2500  -6.0000 -16.5000 Du        
  12938 ****       -13.2500  -6.0000 -16.2500 Du        
  12939 ****       -13.2500  -6.0000 -16.0000 Du        
  12940 ****       -13.2500  -5.7500 -18.5000 Du        
  12941 ****       -13.2500  -5.7500 -18.2500 Du        
  12942 ****       -13.2500  -5.7500 -18.0000 Du        
  12943 ****       -13.2500  -5.7500 -17.7500 Du        
  12944 ****       -13.2500  -5.7500 -17.5000 Du        
  12945 ****       -13.2500  -5.7500 -17.2500 Du        
  12946 ****       -13.2500  -5.7500 -17.0000 Du        
  12947 ****       -13.2500  -5.7500 -16.7500 Du        
  12948 ****       -13.2500  -5.7500 -16.5000 Du        
  12949 ****       -13.2500  -5.5000 -18.7500 Du        
  12950 ****       -13.2500  -5.5000 -18.5000 Du        
  12951 ****       -13.2500  -5.5000 -18.2500 Du        
  12952 ****       -13.2500  -5.5000 -18.0000 Du        
  12953 ****       -13.2500  -5.5000 -17.7500 Du        
  12954 ****       -13.2500  -5.5000 -17.5000 Du        
  12955 ****       -13.2500  -5.5000 -17.2500 Du        
  12956 ****       -13.2500  -5.5000 -17.0000 Du        
  12957 ****       -13.2500  -5.5000 -16.7500 Du        
  12958 ****       -13.2500  -5.2500 -19.0000 Du        
  12959 ****       -13.2500  -5.2500 -18.7500 Du        
  12960 ****       -13.2500  -5.2500 -18.5000 Du        
  12961 ****       -13.2500  -5.2500 -18.2500 Du        
  12962 ****       -13.2500  -5.2500 -18.0000 Du        
  12963 ****       -13.2500  -5.2500 -17.7500 Du        
  12964 ****       -13.2500  -5.2500 -17.5000 Du        
  12965 ****       -13.2500  -5.2500 -17.2500 Du        
  12966 ****       -13.2500  -5.2500 -17.0000 Du        
  12967 ****       -13.2500  -5.0000 -19.2500 Du        
  12968 ****       -13.2500  -5.0000 -19.0000 Du        
  12969 ****       -13.2500  -5.0000 -18.7500 Du        
  12970 ****       -13.2500  -5.0000 -18.5000 Du        
  12971 ****       -13.2500  -5.0000 -18.2500 Du        
  12972 ****       -13.2500  -5.0000 -18.0000 Du        
  12973 ****       -13.2500  -5.0000 -17.7500 Du        
  12974 ****       -13.2500  -5.0000 -17.5000 Du        
  12975 ****       -13.2500  -5.0000 -17.2500 Du        
  12976 ****       -13.2500  -4.7500 -19.2500 Du        
  12977 ****       -13.2500  -4.7500 -19.0000 Du        
  12978 ****       -13.2500  -4.7500 -18.7500 Du        
  12979 ****       -13.2500  -4.7500 -18.5000 Du        
  12980 ****       -13.2500  -4.7500 -18.2500 Du        
  12981 ****       -13.2500  -4.7500 -18.0000 Du        
  12982 ****       -13.2500  -4.7500 -17.7500 Du        
  12983 ****       -13.2500  -4.7500 -17.5000 Du        
  12984 ****       -13.2500  -4.7500 -17.2500 Du        
  12985 ****       -13.2500  -4.5000 -19.0000 Du        
  12986 ****       -13.2500  -4.5000 -18.7500 Du        
  12987 ****       -13.2500  -4.5000 -18.5000 Du        
  12988 ****       -13.2500  -4.5000 -18.2500 Du        
  12989 ****       -13.2500  -4.5000 -18.0000 Du        
  12990 ****       -13.2500  -4.5000 -17.7500 Du        
  12991 ****       -13.2500  -4.5000 -17.5000 Du        
  12992 ****       -13.2500  -4.2500 -18.5000 Du        
  12993 ****       -13.2500  -4.2500 -18.2500 Du        
  12994 ****       -13.2500  -4.2500 -18.0000 Du        
  12995 ****       -13.2500  -4.2500 -17.7500 Du        
  12996 ****       -13.0000 -27.5000 -14.7500 Du        
  12997 ****       -13.0000 -27.5000 -14.2500 Du        
  12998 ****       -13.0000 -27.5000 -14.0000 Du        
  12999 ****       -13.0000 -27.5000 -13.7500 Du        
  13000 ****       -13.0000 -27.2500 -15.2500 Du        
  13001 ****       -13.0000 -27.2500 -15.0000 Du        
  13002 ****       -13.0000 -27.2500 -14.7500 Du        
  13003 ****       -13.0000 -27.2500 -14.5000 Du        
  13004 ****       -13.0000 -27.2500 -14.2500 Du        
  13005 ****       -13.0000 -27.2500 -14.0000 Du        
  13006 ****       -13.0000 -27.2500 -13.7500 Du        
  13007 ****       -13.0000 -27.0000 -15.2500 Du        
  13008 ****       -13.0000 -27.0000 -15.0000 Du        
  13009 ****       -13.0000 -27.0000 -14.7500 Du        
  13010 ****       -13.0000 -27.0000 -14.5000 Du        
  13011 ****       -13.0000 -27.0000 -14.2500 Du        
  13012 ****       -13.0000 -27.0000 -14.0000 Du        
  13013 ****       -13.0000 -27.0000 -13.7500 Du        
  13014 ****       -13.0000 -27.0000 -13.2500 Du        
  13015 ****       -13.0000 -26.7500 -15.5000 Du        
  13016 ****       -13.0000 -26.7500 -15.2500 Du        
  13017 ****       -13.0000 -26.7500 -15.0000 Du        
  13018 ****       -13.0000 -26.7500 -14.7500 Du        
  13019 ****       -13.0000 -26.7500 -14.5000 Du        
  13020 ****       -13.0000 -26.7500 -14.2500 Du        
  13021 ****       -13.0000 -26.7500 -14.0000 Du        
  13022 ****       -13.0000 -26.7500 -13.7500 Du        
  13023 ****       -13.0000 -26.7500 -13.5000 Du        
  13024 ****       -13.0000 -26.7500 -13.2500 Du        
  13025 ****       -13.0000 -26.5000 -15.7500 Du        
  13026 ****       -13.0000 -26.5000 -15.5000 Du        
  13027 ****       -13.0000 -26.5000 -15.2500 Du        
  13028 ****       -13.0000 -26.5000 -15.0000 Du        
  13029 ****       -13.0000 -26.5000 -14.7500 Du        
  13030 ****       -13.0000 -26.5000 -14.5000 Du        
  13031 ****       -13.0000 -26.5000 -14.2500 Du        
  13032 ****       -13.0000 -26.5000 -14.0000 Du        
  13033 ****       -13.0000 -26.5000 -13.7500 Du        
  13034 ****       -13.0000 -26.5000 -13.2500 Du        
  13035 ****       -13.0000 -26.5000 -13.0000 Du        
  13036 ****       -13.0000 -26.5000 -12.7500 Du        
  13037 ****       -13.0000 -26.5000 -12.5000 Du        
  13038 ****       -13.0000 -26.5000 -12.2500 Du        
  13039 ****       -13.0000 -26.5000 -12.0000 Du        
  13040 ****       -13.0000 -26.2500 -15.7500 Du        
  13041 ****       -13.0000 -26.2500 -15.5000 Du        
  13042 ****       -13.0000 -26.2500 -15.2500 Du        
  13043 ****       -13.0000 -26.2500 -15.0000 Du        
  13044 ****       -13.0000 -26.2500 -14.7500 Du        
  13045 ****       -13.0000 -26.2500 -14.5000 Du        
  13046 ****       -13.0000 -26.2500 -14.2500 Du        
  13047 ****       -13.0000 -26.2500 -14.0000 Du        
  13048 ****       -13.0000 -26.2500 -13.7500 Du        
  13049 ****       -13.0000 -26.2500 -13.2500 Du        
  13050 ****       -13.0000 -26.2500 -13.0000 Du        
  13051 ****       -13.0000 -26.2500 -12.7500 Du        
  13052 ****       -13.0000 -26.2500 -12.5000 Du        
  13053 ****       -13.0000 -26.2500 -12.2500 Du        
  13054 ****       -13.0000 -26.2500 -12.0000 Du        
  13055 ****       -13.0000 -26.2500 -11.7500 Du        
  13056 ****       -13.0000 -26.0000 -15.7500 Du        
  13057 ****       -13.0000 -26.0000 -15.5000 Du        
  13058 ****       -13.0000 -26.0000 -15.2500 Du        
  13059 ****       -13.0000 -26.0000 -15.0000 Du        
  13060 ****       -13.0000 -26.0000 -14.7500 Du        
  13061 ****       -13.0000 -26.0000 -14.5000 Du        
  13062 ****       -13.0000 -26.0000 -14.2500 Du        
  13063 ****       -13.0000 -26.0000 -14.0000 Du        
  13064 ****       -13.0000 -26.0000 -13.7500 Du        
  13065 ****       -13.0000 -26.0000 -13.5000 Du        
  13066 ****       -13.0000 -26.0000 -13.2500 Du        
  13067 ****       -13.0000 -26.0000 -13.0000 Du        
  13068 ****       -13.0000 -26.0000 -12.7500 Du        
  13069 ****       -13.0000 -26.0000 -12.5000 Du        
  13070 ****       -13.0000 -26.0000 -12.2500 Du        
  13071 ****       -13.0000 -26.0000 -12.0000 Du        
  13072 ****       -13.0000 -26.0000 -11.7500 Du        
  13073 ****       -13.0000 -26.0000 -11.5000 Du        
  13074 ****       -13.0000 -25.7500 -15.7500 Du        
  13075 ****       -13.0000 -25.7500 -15.5000 Du        
  13076 ****       -13.0000 -25.7500 -15.2500 Du        
  13077 ****       -13.0000 -25.7500 -15.0000 Du        
  13078 ****       -13.0000 -25.7500 -14.7500 Du        
  13079 ****       -13.0000 -25.7500 -14.5000 Du        
  13080 ****       -13.0000 -25.7500 -14.2500 Du        
  13081 ****       -13.0000 -25.7500 -14.0000 Du        
  13082 ****       -13.0000 -25.7500 -13.2500 Du        
  13083 ****       -13.0000 -25.7500 -13.0000 Du        
  13084 ****       -13.0000 -25.7500 -12.7500 Du        
  13085 ****       -13.0000 -25.7500 -12.5000 Du        
  13086 ****       -13.0000 -25.7500 -12.2500 Du        
  13087 ****       -13.0000 -25.7500 -12.0000 Du        
  13088 ****       -13.0000 -25.7500 -11.7500 Du        
  13089 ****       -13.0000 -25.7500 -11.5000 Du        
  13090 ****       -13.0000 -25.5000 -15.5000 Du        
  13091 ****       -13.0000 -25.5000 -15.2500 Du        
  13092 ****       -13.0000 -25.5000 -15.0000 Du        
  13093 ****       -13.0000 -25.5000 -14.7500 Du        
  13094 ****       -13.0000 -25.5000 -14.5000 Du        
  13095 ****       -13.0000 -25.5000 -14.2500 Du        
  13096 ****       -13.0000 -25.5000 -13.0000 Du        
  13097 ****       -13.0000 -25.5000 -12.7500 Du        
  13098 ****       -13.0000 -25.5000 -12.5000 Du        
  13099 ****       -13.0000 -25.5000 -12.2500 Du        
  13100 ****       -13.0000 -25.5000 -12.0000 Du        
  13101 ****       -13.0000 -25.5000 -11.7500 Du        
  13102 ****       -13.0000 -25.5000 -11.5000 Du        
  13103 ****       -13.0000 -25.5000 -11.2500 Du        
  13104 ****       -13.0000 -25.2500 -15.5000 Du        
  13105 ****       -13.0000 -25.2500 -15.2500 Du        
  13106 ****       -13.0000 -25.2500 -15.0000 Du        
  13107 ****       -13.0000 -25.2500 -14.7500 Du        
  13108 ****       -13.0000 -25.2500 -14.5000 Du        
  13109 ****       -13.0000 -25.2500 -12.7500 Du        
  13110 ****       -13.0000 -25.2500 -12.5000 Du        
  13111 ****       -13.0000 -25.2500 -12.2500 Du        
  13112 ****       -13.0000 -25.2500 -12.0000 Du        
  13113 ****       -13.0000 -25.2500 -11.7500 Du        
  13114 ****       -13.0000 -25.2500 -11.5000 Du        
  13115 ****       -13.0000 -25.2500 -11.2500 Du        
  13116 ****       -13.0000 -25.0000 -15.5000 Du        
  13117 ****       -13.0000 -25.0000 -15.2500 Du        
  13118 ****       -13.0000 -25.0000 -15.0000 Du        
  13119 ****       -13.0000 -25.0000 -14.7500 Du        
  13120 ****       -13.0000 -25.0000 -14.5000 Du        
  13121 ****       -13.0000 -25.0000 -12.2500 Du        
  13122 ****       -13.0000 -25.0000 -12.0000 Du        
  13123 ****       -13.0000 -25.0000 -11.7500 Du        
  13124 ****       -13.0000 -25.0000 -11.5000 Du        
  13125 ****       -13.0000 -25.0000 -11.2500 Du        
  13126 ****       -13.0000 -24.7500 -28.2500 Du        
  13127 ****       -13.0000 -24.7500 -28.0000 Du        
  13128 ****       -13.0000 -24.7500 -27.7500 Du        
  13129 ****       -13.0000 -24.7500 -15.5000 Du        
  13130 ****       -13.0000 -24.7500 -15.2500 Du        
  13131 ****       -13.0000 -24.7500 -15.0000 Du        
  13132 ****       -13.0000 -24.7500 -14.7500 Du        
  13133 ****       -13.0000 -24.7500 -11.7500 Du        
  13134 ****       -13.0000 -24.7500 -11.5000 Du        
  13135 ****       -13.0000 -24.7500 -11.2500 Du        
  13136 ****       -13.0000 -24.5000 -28.7500 Du        
  13137 ****       -13.0000 -24.5000 -28.5000 Du        
  13138 ****       -13.0000 -24.5000 -28.2500 Du        
  13139 ****       -13.0000 -24.5000 -28.0000 Du        
  13140 ****       -13.0000 -24.5000 -27.7500 Du        
  13141 ****       -13.0000 -24.5000 -15.5000 Du        
  13142 ****       -13.0000 -24.5000 -15.2500 Du        
  13143 ****       -13.0000 -24.5000 -15.0000 Du        
  13144 ****       -13.0000 -24.5000 -14.7500 Du        
  13145 ****       -13.0000 -24.5000 -11.5000 Du        
  13146 ****       -13.0000 -24.2500 -28.7500 Du        
  13147 ****       -13.0000 -24.2500 -28.5000 Du        
  13148 ****       -13.0000 -24.2500 -28.2500 Du        
  13149 ****       -13.0000 -24.2500 -28.0000 Du        
  13150 ****       -13.0000 -24.2500 -27.7500 Du        
  13151 ****       -13.0000 -24.2500 -27.5000 Du        
  13152 ****       -13.0000 -24.2500 -15.5000 Du        
  13153 ****       -13.0000 -24.2500 -15.2500 Du        
  13154 ****       -13.0000 -24.2500 -15.0000 Du        
  13155 ****       -13.0000 -24.2500 -14.7500 Du        
  13156 ****       -13.0000 -24.0000 -29.2500 Du        
  13157 ****       -13.0000 -24.0000 -29.0000 Du        
  13158 ****       -13.0000 -24.0000 -28.7500 Du        
  13159 ****       -13.0000 -24.0000 -28.5000 Du        
  13160 ****       -13.0000 -24.0000 -28.2500 Du        
  13161 ****       -13.0000 -24.0000 -28.0000 Du        
  13162 ****       -13.0000 -24.0000 -27.7500 Du        
  13163 ****       -13.0000 -24.0000 -27.5000 Du        
  13164 ****       -13.0000 -24.0000 -15.5000 Du        
  13165 ****       -13.0000 -24.0000 -15.2500 Du        
  13166 ****       -13.0000 -24.0000 -15.0000 Du        
  13167 ****       -13.0000 -23.7500 -29.2500 Du        
  13168 ****       -13.0000 -23.7500 -29.0000 Du        
  13169 ****       -13.0000 -23.7500 -28.7500 Du        
  13170 ****       -13.0000 -23.7500 -28.5000 Du        
  13171 ****       -13.0000 -23.7500 -28.2500 Du        
  13172 ****       -13.0000 -23.7500 -28.0000 Du        
  13173 ****       -13.0000 -23.7500 -27.7500 Du        
  13174 ****       -13.0000 -23.7500 -27.5000 Du        
  13175 ****       -13.0000 -23.7500 -15.7500 Du        
  13176 ****       -13.0000 -23.7500 -15.5000 Du        
  13177 ****       -13.0000 -23.7500 -15.2500 Du        
  13178 ****       -13.0000 -23.7500 -15.0000 Du        
  13179 ****       -13.0000 -23.5000 -29.7500 Du        
  13180 ****       -13.0000 -23.5000 -29.5000 Du        
  13181 ****       -13.0000 -23.5000 -29.2500 Du        
  13182 ****       -13.0000 -23.5000 -29.0000 Du        
  13183 ****       -13.0000 -23.5000 -28.7500 Du        
  13184 ****       -13.0000 -23.5000 -28.5000 Du        
  13185 ****       -13.0000 -23.5000 -28.2500 Du        
  13186 ****       -13.0000 -23.5000 -28.0000 Du        
  13187 ****       -13.0000 -23.5000 -27.7500 Du        
  13188 ****       -13.0000 -23.5000 -15.7500 Du        
  13189 ****       -13.0000 -23.5000 -15.5000 Du        
  13190 ****       -13.0000 -23.5000 -15.2500 Du        
  13191 ****       -13.0000 -23.5000 -15.0000 Du        
  13192 ****       -13.0000 -23.2500 -29.2500 Du        
  13193 ****       -13.0000 -23.2500 -29.0000 Du        
  13194 ****       -13.0000 -23.2500 -28.7500 Du        
  13195 ****       -13.0000 -23.2500 -28.5000 Du        
  13196 ****       -13.0000 -23.2500 -28.2500 Du        
  13197 ****       -13.0000 -23.2500 -28.0000 Du        
  13198 ****       -13.0000 -23.2500 -27.7500 Du        
  13199 ****       -13.0000 -23.2500 -16.0000 Du        
  13200 ****       -13.0000 -23.2500 -15.7500 Du        
  13201 ****       -13.0000 -23.2500 -15.5000 Du        
  13202 ****       -13.0000 -23.2500 -15.2500 Du        
  13203 ****       -13.0000 -23.2500 -15.0000 Du        
  13204 ****       -13.0000 -23.0000 -29.0000 Du        
  13205 ****       -13.0000 -23.0000 -28.7500 Du        
  13206 ****       -13.0000 -23.0000 -28.5000 Du        
  13207 ****       -13.0000 -23.0000 -28.2500 Du        
  13208 ****       -13.0000 -23.0000 -28.0000 Du        
  13209 ****       -13.0000 -23.0000 -27.7500 Du        
  13210 ****       -13.0000 -23.0000 -16.0000 Du        
  13211 ****       -13.0000 -23.0000 -15.7500 Du        
  13212 ****       -13.0000 -23.0000 -15.5000 Du        
  13213 ****       -13.0000 -23.0000 -15.2500 Du        
  13214 ****       -13.0000 -23.0000 -15.0000 Du        
  13215 ****       -13.0000 -22.7500 -28.7500 Du        
  13216 ****       -13.0000 -22.7500 -28.5000 Du        
  13217 ****       -13.0000 -22.7500 -28.2500 Du        
  13218 ****       -13.0000 -22.7500 -28.0000 Du        
  13219 ****       -13.0000 -22.7500 -27.7500 Du        
  13220 ****       -13.0000 -22.7500 -16.0000 Du        
  13221 ****       -13.0000 -22.7500 -15.7500 Du        
  13222 ****       -13.0000 -22.7500 -15.5000 Du        
  13223 ****       -13.0000 -22.7500 -15.2500 Du        
  13224 ****       -13.0000 -22.7500 -15.0000 Du        
  13225 ****       -13.0000 -22.5000 -28.5000 Du        
  13226 ****       -13.0000 -22.5000 -28.2500 Du        
  13227 ****       -13.0000 -22.5000 -28.0000 Du        
  13228 ****       -13.0000 -22.5000 -27.7500 Du        
  13229 ****       -13.0000 -22.5000 -16.0000 Du        
  13230 ****       -13.0000 -22.5000 -15.7500 Du        
  13231 ****       -13.0000 -22.5000 -15.5000 Du        
  13232 ****       -13.0000 -22.5000 -15.2500 Du        
  13233 ****       -13.0000 -22.5000 -15.0000 Du        
  13234 ****       -13.0000 -22.5000 -14.7500 Du        
  13235 ****       -13.0000 -22.2500 -28.2500 Du        
  13236 ****       -13.0000 -22.2500 -28.0000 Du        
  13237 ****       -13.0000 -22.2500 -27.7500 Du        
  13238 ****       -13.0000 -22.2500 -16.0000 Du        
  13239 ****       -13.0000 -22.2500 -15.7500 Du        
  13240 ****       -13.0000 -22.2500 -15.5000 Du        
  13241 ****       -13.0000 -22.2500 -15.2500 Du        
  13242 ****       -13.0000 -22.2500 -15.0000 Du        
  13243 ****       -13.0000 -22.2500 -14.7500 Du        
  13244 ****       -13.0000 -22.0000 -28.0000 Du        
  13245 ****       -13.0000 -22.0000 -27.7500 Du        
  13246 ****       -13.0000 -22.0000 -16.0000 Du        
  13247 ****       -13.0000 -22.0000 -15.7500 Du        
  13248 ****       -13.0000 -22.0000 -15.5000 Du        
  13249 ****       -13.0000 -22.0000 -15.2500 Du        
  13250 ****       -13.0000 -22.0000 -15.0000 Du        
  13251 ****       -13.0000 -22.0000 -14.7500 Du        
  13252 ****       -13.0000 -21.7500 -27.7500 Du        
  13253 ****       -13.0000 -21.7500 -16.0000 Du        
  13254 ****       -13.0000 -21.7500 -15.7500 Du        
  13255 ****       -13.0000 -21.7500 -15.5000 Du        
  13256 ****       -13.0000 -21.7500 -15.2500 Du        
  13257 ****       -13.0000 -21.7500 -15.0000 Du        
  13258 ****       -13.0000 -21.7500 -14.7500 Du        
  13259 ****       -13.0000 -21.7500 -14.5000 Du        
  13260 ****       -13.0000 -21.5000 -15.7500 Du        
  13261 ****       -13.0000 -21.5000 -15.5000 Du        
  13262 ****       -13.0000 -21.5000 -15.2500 Du        
  13263 ****       -13.0000 -21.5000 -15.0000 Du        
  13264 ****       -13.0000 -21.5000 -14.7500 Du        
  13265 ****       -13.0000 -21.5000 -14.5000 Du        
  13266 ****       -13.0000 -21.2500 -15.7500 Du        
  13267 ****       -13.0000 -21.2500 -15.5000 Du        
  13268 ****       -13.0000 -21.2500 -15.2500 Du        
  13269 ****       -13.0000 -21.2500 -15.0000 Du        
  13270 ****       -13.0000 -21.2500 -14.7500 Du        
  13271 ****       -13.0000 -21.2500 -14.5000 Du        
  13272 ****       -13.0000 -21.2500 -14.2500 Du        
  13273 ****       -13.0000 -21.0000 -15.7500 Du        
  13274 ****       -13.0000 -21.0000 -15.5000 Du        
  13275 ****       -13.0000 -21.0000 -15.2500 Du        
  13276 ****       -13.0000 -21.0000 -15.0000 Du        
  13277 ****       -13.0000 -21.0000 -14.7500 Du        
  13278 ****       -13.0000 -21.0000 -14.5000 Du        
  13279 ****       -13.0000 -21.0000 -14.2500 Du        
  13280 ****       -13.0000 -20.7500 -15.5000 Du        
  13281 ****       -13.0000 -20.7500 -15.2500 Du        
  13282 ****       -13.0000 -20.7500 -15.0000 Du        
  13283 ****       -13.0000 -20.7500 -14.7500 Du        
  13284 ****       -13.0000 -20.7500 -14.5000 Du        
  13285 ****       -13.0000 -20.5000 -15.2500 Du        
  13286 ****       -13.0000 -20.5000 -15.0000 Du        
  13287 ****       -13.0000 -20.5000 -14.7500 Du        
  13288 ****       -13.0000 -17.0000  -8.5000 Du        
  13289 ****       -13.0000 -17.0000  -8.2500 Du        
  13290 ****       -13.0000 -17.0000  -8.0000 Du        
  13291 ****       -13.0000 -16.7500  -9.0000 Du        
  13292 ****       -13.0000 -16.7500  -8.7500 Du        
  13293 ****       -13.0000 -16.7500  -8.5000 Du        
  13294 ****       -13.0000 -16.7500  -8.2500 Du        
  13295 ****       -13.0000 -16.7500  -8.0000 Du        
  13296 ****       -13.0000 -16.7500  -7.7500 Du        
  13297 ****       -13.0000 -16.5000 -27.0000 Du        
  13298 ****       -13.0000 -16.5000 -26.7500 Du        
  13299 ****       -13.0000 -16.5000  -9.2500 Du        
  13300 ****       -13.0000 -16.5000  -9.0000 Du        
  13301 ****       -13.0000 -16.5000  -8.7500 Du        
  13302 ****       -13.0000 -16.5000  -8.5000 Du        
  13303 ****       -13.0000 -16.5000  -8.2500 Du        
  13304 ****       -13.0000 -16.5000  -8.0000 Du        
  13305 ****       -13.0000 -16.5000  -7.7500 Du        
  13306 ****       -13.0000 -16.2500 -27.5000 Du        
  13307 ****       -13.0000 -16.2500 -27.2500 Du        
  13308 ****       -13.0000 -16.2500 -27.0000 Du        
  13309 ****       -13.0000 -16.2500 -26.7500 Du        
  13310 ****       -13.0000 -16.2500  -9.7500 Du        
  13311 ****       -13.0000 -16.2500  -9.5000 Du        
  13312 ****       -13.0000 -16.2500  -9.2500 Du        
  13313 ****       -13.0000 -16.2500  -9.0000 Du        
  13314 ****       -13.0000 -16.2500  -8.7500 Du        
  13315 ****       -13.0000 -16.2500  -8.5000 Du        
  13316 ****       -13.0000 -16.2500  -8.2500 Du        
  13317 ****       -13.0000 -16.2500  -8.0000 Du        
  13318 ****       -13.0000 -16.2500  -7.7500 Du        
  13319 ****       -13.0000 -16.0000 -27.7500 Du        
  13320 ****       -13.0000 -16.0000 -27.5000 Du        
  13321 ****       -13.0000 -16.0000 -27.2500 Du        
  13322 ****       -13.0000 -16.0000 -27.0000 Du        
  13323 ****       -13.0000 -16.0000  -9.7500 Du        
  13324 ****       -13.0000 -16.0000  -9.5000 Du        
  13325 ****       -13.0000 -16.0000  -9.2500 Du        
  13326 ****       -13.0000 -16.0000  -9.0000 Du        
  13327 ****       -13.0000 -16.0000  -8.7500 Du        
  13328 ****       -13.0000 -16.0000  -8.5000 Du        
  13329 ****       -13.0000 -16.0000  -8.2500 Du        
  13330 ****       -13.0000 -16.0000  -8.0000 Du        
  13331 ****       -13.0000 -16.0000  -7.7500 Du        
  13332 ****       -13.0000 -15.7500 -27.7500 Du        
  13333 ****       -13.0000 -15.7500 -27.5000 Du        
  13334 ****       -13.0000 -15.7500 -27.2500 Du        
  13335 ****       -13.0000 -15.7500 -27.0000 Du        
  13336 ****       -13.0000 -15.7500  -9.7500 Du        
  13337 ****       -13.0000 -15.7500  -9.5000 Du        
  13338 ****       -13.0000 -15.7500  -9.2500 Du        
  13339 ****       -13.0000 -15.7500  -9.0000 Du        
  13340 ****       -13.0000 -15.7500  -8.7500 Du        
  13341 ****       -13.0000 -15.7500  -8.5000 Du        
  13342 ****       -13.0000 -15.7500  -8.2500 Du        
  13343 ****       -13.0000 -15.7500  -8.0000 Du        
  13344 ****       -13.0000 -15.5000  -9.7500 Du        
  13345 ****       -13.0000 -15.5000  -9.5000 Du        
  13346 ****       -13.0000 -15.5000  -9.2500 Du        
  13347 ****       -13.0000 -15.5000  -9.0000 Du        
  13348 ****       -13.0000 -15.5000  -8.7500 Du        
  13349 ****       -13.0000 -15.5000  -8.5000 Du        
  13350 ****       -13.0000 -15.5000  -8.2500 Du        
  13351 ****       -13.0000 -15.5000  -8.0000 Du        
  13352 ****       -13.0000 -15.2500 -10.0000 Du        
  13353 ****       -13.0000 -15.2500  -9.7500 Du        
  13354 ****       -13.0000 -15.2500  -9.5000 Du        
  13355 ****       -13.0000 -15.2500  -9.2500 Du        
  13356 ****       -13.0000 -15.2500  -9.0000 Du        
  13357 ****       -13.0000 -15.2500  -8.7500 Du        
  13358 ****       -13.0000 -15.2500  -8.5000 Du        
  13359 ****       -13.0000 -15.2500  -8.2500 Du        
  13360 ****       -13.0000 -15.0000 -10.0000 Du        
  13361 ****       -13.0000 -15.0000  -9.7500 Du        
  13362 ****       -13.0000 -15.0000  -9.5000 Du        
  13363 ****       -13.0000 -15.0000  -9.2500 Du        
  13364 ****       -13.0000 -15.0000  -9.0000 Du        
  13365 ****       -13.0000 -15.0000  -8.7500 Du        
  13366 ****       -13.0000 -15.0000  -8.5000 Du        
  13367 ****       -13.0000 -15.0000  -8.2500 Du        
  13368 ****       -13.0000 -14.7500 -10.0000 Du        
  13369 ****       -13.0000 -14.7500  -9.7500 Du        
  13370 ****       -13.0000 -14.7500  -9.5000 Du        
  13371 ****       -13.0000 -14.7500  -9.2500 Du        
  13372 ****       -13.0000 -14.7500  -9.0000 Du        
  13373 ****       -13.0000 -14.7500  -8.7500 Du        
  13374 ****       -13.0000 -14.7500  -8.5000 Du        
  13375 ****       -13.0000 -14.7500  -8.2500 Du        
  13376 ****       -13.0000 -14.5000 -10.2500 Du        
  13377 ****       -13.0000 -14.5000 -10.0000 Du        
  13378 ****       -13.0000 -14.5000  -9.7500 Du        
  13379 ****       -13.0000 -14.5000  -9.5000 Du        
  13380 ****       -13.0000 -14.5000  -9.2500 Du        
  13381 ****       -13.0000 -14.5000  -9.0000 Du        
  13382 ****       -13.0000 -14.5000  -8.7500 Du        
  13383 ****       -13.0000 -14.5000  -8.5000 Du        
  13384 ****       -13.0000 -14.2500 -10.2500 Du        
  13385 ****       -13.0000 -14.2500 -10.0000 Du        
  13386 ****       -13.0000 -14.2500  -9.7500 Du        
  13387 ****       -13.0000 -14.2500  -9.5000 Du        
  13388 ****       -13.0000 -14.2500  -9.2500 Du        
  13389 ****       -13.0000 -14.2500  -9.0000 Du        
  13390 ****       -13.0000 -14.2500  -8.7500 Du        
  13391 ****       -13.0000 -14.2500  -8.5000 Du        
  13392 ****       -13.0000 -14.0000 -10.5000 Du        
  13393 ****       -13.0000 -14.0000 -10.2500 Du        
  13394 ****       -13.0000 -14.0000 -10.0000 Du        
  13395 ****       -13.0000 -14.0000  -9.7500 Du        
  13396 ****       -13.0000 -14.0000  -9.5000 Du        
  13397 ****       -13.0000 -14.0000  -9.2500 Du        
  13398 ****       -13.0000 -14.0000  -9.0000 Du        
  13399 ****       -13.0000 -14.0000  -8.7500 Du        
  13400 ****       -13.0000 -13.7500 -10.5000 Du        
  13401 ****       -13.0000 -13.7500 -10.2500 Du        
  13402 ****       -13.0000 -13.7500 -10.0000 Du        
  13403 ****       -13.0000  -7.0000 -16.2500 Du        
  13404 ****       -13.0000  -7.0000 -15.7500 Du        
  13405 ****       -13.0000  -6.7500 -16.5000 Du        
  13406 ****       -13.0000  -6.7500 -16.2500 Du        
  13407 ****       -13.0000  -6.7500 -16.0000 Du        
  13408 ****       -13.0000  -6.7500 -15.7500 Du        
  13409 ****       -13.0000  -6.7500 -15.5000 Du        
  13410 ****       -13.0000  -6.5000 -17.0000 Du        
  13411 ****       -13.0000  -6.5000 -16.7500 Du        
  13412 ****       -13.0000  -6.5000 -16.5000 Du        
  13413 ****       -13.0000  -6.5000 -16.2500 Du        
  13414 ****       -13.0000  -6.5000 -16.0000 Du        
  13415 ****       -13.0000  -6.5000 -15.7500 Du        
  13416 ****       -13.0000  -6.5000 -15.5000 Du        
  13417 ****       -13.0000  -6.5000 -15.2500 Du        
  13418 ****       -13.0000  -6.2500 -17.5000 Du        
  13419 ****       -13.0000  -6.2500 -17.2500 Du        
  13420 ****       -13.0000  -6.2500 -17.0000 Du        
  13421 ****       -13.0000  -6.2500 -16.7500 Du        
  13422 ****       -13.0000  -6.2500 -16.5000 Du        
  13423 ****       -13.0000  -6.2500 -16.2500 Du        
  13424 ****       -13.0000  -6.2500 -16.0000 Du        
  13425 ****       -13.0000  -6.2500 -15.7500 Du        
  13426 ****       -13.0000  -6.0000 -18.0000 Du        
  13427 ****       -13.0000  -6.0000 -17.7500 Du        
  13428 ****       -13.0000  -6.0000 -17.5000 Du        
  13429 ****       -13.0000  -6.0000 -17.2500 Du        
  13430 ****       -13.0000  -6.0000 -17.0000 Du        
  13431 ****       -13.0000  -6.0000 -16.7500 Du        
  13432 ****       -13.0000  -6.0000 -16.5000 Du        
  13433 ****       -13.0000  -6.0000 -16.2500 Du        
  13434 ****       -13.0000  -5.7500 -18.2500 Du        
  13435 ****       -13.0000  -5.7500 -18.0000 Du        
  13436 ****       -13.0000  -5.7500 -17.7500 Du        
  13437 ****       -13.0000  -5.7500 -17.5000 Du        
  13438 ****       -13.0000  -5.7500 -17.2500 Du        
  13439 ****       -13.0000  -5.7500 -17.0000 Du        
  13440 ****       -13.0000  -5.7500 -16.7500 Du        
  13441 ****       -13.0000  -5.7500 -16.5000 Du        
  13442 ****       -13.0000  -5.5000 -18.7500 Du        
  13443 ****       -13.0000  -5.5000 -18.5000 Du        
  13444 ****       -13.0000  -5.5000 -18.2500 Du        
  13445 ****       -13.0000  -5.5000 -18.0000 Du        
  13446 ****       -13.0000  -5.5000 -17.7500 Du        
  13447 ****       -13.0000  -5.5000 -17.5000 Du        
  13448 ****       -13.0000  -5.5000 -17.2500 Du        
  13449 ****       -13.0000  -5.5000 -17.0000 Du        
  13450 ****       -13.0000  -5.5000 -16.7500 Du        
  13451 ****       -13.0000  -5.2500 -19.0000 Du        
  13452 ****       -13.0000  -5.2500 -18.7500 Du        
  13453 ****       -13.0000  -5.2500 -18.5000 Du        
  13454 ****       -13.0000  -5.2500 -18.2500 Du        
  13455 ****       -13.0000  -5.2500 -18.0000 Du        
  13456 ****       -13.0000  -5.2500 -17.7500 Du        
  13457 ****       -13.0000  -5.2500 -17.5000 Du        
  13458 ****       -13.0000  -5.2500 -17.2500 Du        
  13459 ****       -13.0000  -5.2500 -17.0000 Du        
  13460 ****       -13.0000  -5.0000 -19.2500 Du        
  13461 ****       -13.0000  -5.0000 -19.0000 Du        
  13462 ****       -13.0000  -5.0000 -18.7500 Du        
  13463 ****       -13.0000  -5.0000 -18.5000 Du        
  13464 ****       -13.0000  -5.0000 -18.2500 Du        
  13465 ****       -13.0000  -5.0000 -18.0000 Du        
  13466 ****       -13.0000  -5.0000 -17.7500 Du        
  13467 ****       -13.0000  -5.0000 -17.5000 Du        
  13468 ****       -13.0000  -5.0000 -17.2500 Du        
  13469 ****       -13.0000  -5.0000 -17.0000 Du        
  13470 ****       -13.0000  -4.7500 -19.2500 Du        
  13471 ****       -13.0000  -4.7500 -19.0000 Du        
  13472 ****       -13.0000  -4.7500 -18.7500 Du        
  13473 ****       -13.0000  -4.7500 -18.5000 Du        
  13474 ****       -13.0000  -4.7500 -18.2500 Du        
  13475 ****       -13.0000  -4.7500 -18.0000 Du        
  13476 ****       -13.0000  -4.7500 -17.7500 Du        
  13477 ****       -13.0000  -4.7500 -17.5000 Du        
  13478 ****       -13.0000  -4.7500 -17.2500 Du        
  13479 ****       -13.0000  -4.5000 -19.0000 Du        
  13480 ****       -13.0000  -4.5000 -18.7500 Du        
  13481 ****       -13.0000  -4.5000 -18.5000 Du        
  13482 ****       -13.0000  -4.5000 -18.2500 Du        
  13483 ****       -13.0000  -4.5000 -18.0000 Du        
  13484 ****       -13.0000  -4.5000 -17.7500 Du        
  13485 ****       -13.0000  -4.5000 -17.5000 Du        
  13486 ****       -13.0000  -4.5000 -17.2500 Du        
  13487 ****       -13.0000  -4.2500 -18.5000 Du        
  13488 ****       -13.0000  -4.2500 -18.2500 Du        
  13489 ****       -13.0000  -4.2500 -18.0000 Du        
  13490 ****       -13.0000  -4.2500 -17.7500 Du        
  13491 ****       -13.0000  -4.2500 -17.5000 Du        
  13492 ****       -12.7500 -27.2500 -15.2500 Du        
  13493 ****       -12.7500 -27.2500 -15.0000 Du        
  13494 ****       -12.7500 -27.2500 -14.7500 Du        
  13495 ****       -12.7500 -27.2500 -14.5000 Du        
  13496 ****       -12.7500 -27.2500 -14.2500 Du        
  13497 ****       -12.7500 -27.2500 -14.0000 Du        
  13498 ****       -12.7500 -27.2500 -13.7500 Du        
  13499 ****       -12.7500 -27.0000 -15.5000 Du        
  13500 ****       -12.7500 -27.0000 -15.2500 Du        
  13501 ****       -12.7500 -27.0000 -15.0000 Du        
  13502 ****       -12.7500 -27.0000 -14.7500 Du        
  13503 ****       -12.7500 -27.0000 -14.5000 Du        
  13504 ****       -12.7500 -27.0000 -14.2500 Du        
  13505 ****       -12.7500 -27.0000 -14.0000 Du        
  13506 ****       -12.7500 -27.0000 -13.7500 Du        
  13507 ****       -12.7500 -27.0000 -13.0000 Du        
  13508 ****       -12.7500 -26.7500 -15.7500 Du        
  13509 ****       -12.7500 -26.7500 -15.5000 Du        
  13510 ****       -12.7500 -26.7500 -15.2500 Du        
  13511 ****       -12.7500 -26.7500 -15.0000 Du        
  13512 ****       -12.7500 -26.7500 -14.7500 Du        
  13513 ****       -12.7500 -26.7500 -14.5000 Du        
  13514 ****       -12.7500 -26.7500 -14.2500 Du        
  13515 ****       -12.7500 -26.7500 -14.0000 Du        
  13516 ****       -12.7500 -26.7500 -13.5000 Du        
  13517 ****       -12.7500 -26.7500 -13.2500 Du        
  13518 ****       -12.7500 -26.7500 -13.0000 Du        
  13519 ****       -12.7500 -26.5000 -15.7500 Du        
  13520 ****       -12.7500 -26.5000 -15.5000 Du        
  13521 ****       -12.7500 -26.5000 -15.2500 Du        
  13522 ****       -12.7500 -26.5000 -15.0000 Du        
  13523 ****       -12.7500 -26.5000 -14.7500 Du        
  13524 ****       -12.7500 -26.5000 -14.5000 Du        
  13525 ****       -12.7500 -26.5000 -14.2500 Du        
  13526 ****       -12.7500 -26.5000 -14.0000 Du        
  13527 ****       -12.7500 -26.5000 -13.7500 Du        
  13528 ****       -12.7500 -26.5000 -12.7500 Du        
  13529 ****       -12.7500 -26.5000 -12.2500 Du        
  13530 ****       -12.7500 -26.5000 -12.0000 Du        
  13531 ****       -12.7500 -26.2500 -15.7500 Du        
  13532 ****       -12.7500 -26.2500 -15.5000 Du        
  13533 ****       -12.7500 -26.2500 -15.2500 Du        
  13534 ****       -12.7500 -26.2500 -15.0000 Du        
  13535 ****       -12.7500 -26.2500 -14.7500 Du        
  13536 ****       -12.7500 -26.2500 -14.5000 Du        
  13537 ****       -12.7500 -26.2500 -14.2500 Du        
  13538 ****       -12.7500 -26.2500 -14.0000 Du        
  13539 ****       -12.7500 -26.2500 -13.0000 Du        
  13540 ****       -12.7500 -26.2500 -12.7500 Du        
  13541 ****       -12.7500 -26.2500 -12.5000 Du        
  13542 ****       -12.7500 -26.2500 -12.2500 Du        
  13543 ****       -12.7500 -26.2500 -12.0000 Du        
  13544 ****       -12.7500 -26.2500 -11.7500 Du        
  13545 ****       -12.7500 -26.0000 -15.5000 Du        
  13546 ****       -12.7500 -26.0000 -15.2500 Du        
  13547 ****       -12.7500 -26.0000 -15.0000 Du        
  13548 ****       -12.7500 -26.0000 -14.7500 Du        
  13549 ****       -12.7500 -26.0000 -14.5000 Du        
  13550 ****       -12.7500 -26.0000 -14.2500 Du        
  13551 ****       -12.7500 -26.0000 -12.7500 Du        
  13552 ****       -12.7500 -26.0000 -12.5000 Du        
  13553 ****       -12.7500 -26.0000 -12.2500 Du        
  13554 ****       -12.7500 -26.0000 -12.0000 Du        
  13555 ****       -12.7500 -26.0000 -11.7500 Du        
  13556 ****       -12.7500 -26.0000 -11.5000 Du        
  13557 ****       -12.7500 -25.7500 -15.5000 Du        
  13558 ****       -12.7500 -25.7500 -15.2500 Du        
  13559 ****       -12.7500 -25.7500 -15.0000 Du        
  13560 ****       -12.7500 -25.7500 -14.7500 Du        
  13561 ****       -12.7500 -25.7500 -12.2500 Du        
  13562 ****       -12.7500 -25.7500 -12.0000 Du        
  13563 ****       -12.7500 -25.7500 -11.7500 Du        
  13564 ****       -12.7500 -25.7500 -11.5000 Du        
  13565 ****       -12.7500 -25.5000 -15.2500 Du        
  13566 ****       -12.7500 -25.5000 -15.0000 Du        
  13567 ****       -12.7500 -25.5000 -14.7500 Du        
  13568 ****       -12.7500 -25.5000 -12.0000 Du        
  13569 ****       -12.7500 -25.5000 -11.7500 Du        
  13570 ****       -12.7500 -25.5000 -11.5000 Du        
  13571 ****       -12.7500 -25.5000 -11.2500 Du        
  13572 ****       -12.7500 -25.2500 -27.7500 Du        
  13573 ****       -12.7500 -25.2500 -15.2500 Du        
  13574 ****       -12.7500 -25.2500 -15.0000 Du        
  13575 ****       -12.7500 -25.2500 -12.0000 Du        
  13576 ****       -12.7500 -25.2500 -11.7500 Du        
  13577 ****       -12.7500 -25.2500 -11.5000 Du        
  13578 ****       -12.7500 -25.2500 -11.2500 Du        
  13579 ****       -12.7500 -25.0000 -28.2500 Du        
  13580 ****       -12.7500 -25.0000 -28.0000 Du        
  13581 ****       -12.7500 -25.0000 -27.7500 Du        
  13582 ****       -12.7500 -25.0000 -15.2500 Du        
  13583 ****       -12.7500 -25.0000 -11.7500 Du        
  13584 ****       -12.7500 -25.0000 -11.5000 Du        
  13585 ****       -12.7500 -25.0000 -11.2500 Du        
  13586 ****       -12.7500 -24.7500 -28.2500 Du        
  13587 ****       -12.7500 -24.7500 -28.0000 Du        
  13588 ****       -12.7500 -24.7500 -27.7500 Du        
  13589 ****       -12.7500 -24.7500 -11.2500 Du        
  13590 ****       -12.7500 -24.5000 -28.7500 Du        
  13591 ****       -12.7500 -24.5000 -28.5000 Du        
  13592 ****       -12.7500 -24.5000 -28.2500 Du        
  13593 ****       -12.7500 -24.5000 -28.0000 Du        
  13594 ****       -12.7500 -24.5000 -27.7500 Du        
  13595 ****       -12.7500 -24.5000 -27.5000 Du        
  13596 ****       -12.7500 -24.2500 -28.7500 Du        
  13597 ****       -12.7500 -24.2500 -28.5000 Du        
  13598 ****       -12.7500 -24.2500 -28.2500 Du        
  13599 ****       -12.7500 -24.2500 -28.0000 Du        
  13600 ****       -12.7500 -24.2500 -27.7500 Du        
  13601 ****       -12.7500 -24.2500 -27.5000 Du        
  13602 ****       -12.7500 -24.0000 -29.2500 Du        
  13603 ****       -12.7500 -24.0000 -29.0000 Du        
  13604 ****       -12.7500 -24.0000 -28.7500 Du        
  13605 ****       -12.7500 -24.0000 -28.5000 Du        
  13606 ****       -12.7500 -24.0000 -28.2500 Du        
  13607 ****       -12.7500 -24.0000 -28.0000 Du        
  13608 ****       -12.7500 -24.0000 -27.7500 Du        
  13609 ****       -12.7500 -24.0000 -27.5000 Du        
  13610 ****       -12.7500 -23.7500 -29.2500 Du        
  13611 ****       -12.7500 -23.7500 -29.0000 Du        
  13612 ****       -12.7500 -23.7500 -28.7500 Du        
  13613 ****       -12.7500 -23.7500 -28.5000 Du        
  13614 ****       -12.7500 -23.7500 -28.2500 Du        
  13615 ****       -12.7500 -23.7500 -28.0000 Du        
  13616 ****       -12.7500 -23.7500 -27.7500 Du        
  13617 ****       -12.7500 -23.7500 -27.5000 Du        
  13618 ****       -12.7500 -23.7500 -15.2500 Du        
  13619 ****       -12.7500 -23.5000 -29.7500 Du        
  13620 ****       -12.7500 -23.5000 -29.5000 Du        
  13621 ****       -12.7500 -23.5000 -29.2500 Du        
  13622 ****       -12.7500 -23.5000 -29.0000 Du        
  13623 ****       -12.7500 -23.5000 -28.7500 Du        
  13624 ****       -12.7500 -23.5000 -28.5000 Du        
  13625 ****       -12.7500 -23.5000 -28.2500 Du        
  13626 ****       -12.7500 -23.5000 -28.0000 Du        
  13627 ****       -12.7500 -23.5000 -27.7500 Du        
  13628 ****       -12.7500 -23.5000 -27.5000 Du        
  13629 ****       -12.7500 -23.5000 -15.5000 Du        
  13630 ****       -12.7500 -23.5000 -15.2500 Du        
  13631 ****       -12.7500 -23.2500 -29.2500 Du        
  13632 ****       -12.7500 -23.2500 -29.0000 Du        
  13633 ****       -12.7500 -23.2500 -28.7500 Du        
  13634 ****       -12.7500 -23.2500 -28.5000 Du        
  13635 ****       -12.7500 -23.2500 -28.2500 Du        
  13636 ****       -12.7500 -23.2500 -28.0000 Du        
  13637 ****       -12.7500 -23.2500 -27.7500 Du        
  13638 ****       -12.7500 -23.2500 -27.5000 Du        
  13639 ****       -12.7500 -23.2500 -15.7500 Du        
  13640 ****       -12.7500 -23.2500 -15.5000 Du        
  13641 ****       -12.7500 -23.2500 -15.2500 Du        
  13642 ****       -12.7500 -23.0000 -29.0000 Du        
  13643 ****       -12.7500 -23.0000 -28.7500 Du        
  13644 ****       -12.7500 -23.0000 -28.5000 Du        
  13645 ****       -12.7500 -23.0000 -28.2500 Du        
  13646 ****       -12.7500 -23.0000 -28.0000 Du        
  13647 ****       -12.7500 -23.0000 -27.7500 Du        
  13648 ****       -12.7500 -23.0000 -27.5000 Du        
  13649 ****       -12.7500 -23.0000 -15.7500 Du        
  13650 ****       -12.7500 -23.0000 -15.5000 Du        
  13651 ****       -12.7500 -23.0000 -15.2500 Du        
  13652 ****       -12.7500 -22.7500 -28.7500 Du        
  13653 ****       -12.7500 -22.7500 -28.5000 Du        
  13654 ****       -12.7500 -22.7500 -28.2500 Du        
  13655 ****       -12.7500 -22.7500 -28.0000 Du        
  13656 ****       -12.7500 -22.7500 -27.7500 Du        
  13657 ****       -12.7500 -22.7500 -27.5000 Du        
  13658 ****       -12.7500 -22.7500 -16.0000 Du        
  13659 ****       -12.7500 -22.7500 -15.7500 Du        
  13660 ****       -12.7500 -22.7500 -15.5000 Du        
  13661 ****       -12.7500 -22.7500 -15.2500 Du        
  13662 ****       -12.7500 -22.5000 -28.5000 Du        
  13663 ****       -12.7500 -22.5000 -28.2500 Du        
  13664 ****       -12.7500 -22.5000 -28.0000 Du        
  13665 ****       -12.7500 -22.5000 -27.7500 Du        
  13666 ****       -12.7500 -22.5000 -27.5000 Du        
  13667 ****       -12.7500 -22.5000 -16.0000 Du        
  13668 ****       -12.7500 -22.5000 -15.7500 Du        
  13669 ****       -12.7500 -22.5000 -15.5000 Du        
  13670 ****       -12.7500 -22.5000 -15.2500 Du        
  13671 ****       -12.7500 -22.2500 -28.2500 Du        
  13672 ****       -12.7500 -22.2500 -28.0000 Du        
  13673 ****       -12.7500 -22.2500 -27.7500 Du        
  13674 ****       -12.7500 -22.2500 -27.5000 Du        
  13675 ****       -12.7500 -22.2500 -16.0000 Du        
  13676 ****       -12.7500 -22.2500 -15.7500 Du        
  13677 ****       -12.7500 -22.2500 -15.5000 Du        
  13678 ****       -12.7500 -22.2500 -15.2500 Du        
  13679 ****       -12.7500 -22.2500 -15.0000 Du        
  13680 ****       -12.7500 -22.0000 -28.0000 Du        
  13681 ****       -12.7500 -22.0000 -27.7500 Du        
  13682 ****       -12.7500 -22.0000 -27.5000 Du        
  13683 ****       -12.7500 -22.0000 -16.0000 Du        
  13684 ****       -12.7500 -22.0000 -15.7500 Du        
  13685 ****       -12.7500 -22.0000 -15.5000 Du        
  13686 ****       -12.7500 -22.0000 -15.2500 Du        
  13687 ****       -12.7500 -22.0000 -15.0000 Du        
  13688 ****       -12.7500 -21.7500 -27.7500 Du        
  13689 ****       -12.7500 -21.7500 -27.5000 Du        
  13690 ****       -12.7500 -21.7500 -16.0000 Du        
  13691 ****       -12.7500 -21.7500 -15.7500 Du        
  13692 ****       -12.7500 -21.7500 -15.5000 Du        
  13693 ****       -12.7500 -21.7500 -15.2500 Du        
  13694 ****       -12.7500 -21.7500 -15.0000 Du        
  13695 ****       -12.7500 -21.7500 -14.7500 Du        
  13696 ****       -12.7500 -21.5000 -16.0000 Du        
  13697 ****       -12.7500 -21.5000 -15.7500 Du        
  13698 ****       -12.7500 -21.5000 -15.5000 Du        
  13699 ****       -12.7500 -21.5000 -15.2500 Du        
  13700 ****       -12.7500 -21.5000 -15.0000 Du        
  13701 ****       -12.7500 -21.5000 -14.7500 Du        
  13702 ****       -12.7500 -21.2500 -16.0000 Du        
  13703 ****       -12.7500 -21.2500 -15.7500 Du        
  13704 ****       -12.7500 -21.2500 -15.5000 Du        
  13705 ****       -12.7500 -21.2500 -15.2500 Du        
  13706 ****       -12.7500 -21.2500 -15.0000 Du        
  13707 ****       -12.7500 -21.2500 -14.7500 Du        
  13708 ****       -12.7500 -21.0000 -15.7500 Du        
  13709 ****       -12.7500 -21.0000 -15.5000 Du        
  13710 ****       -12.7500 -21.0000 -15.2500 Du        
  13711 ****       -12.7500 -21.0000 -15.0000 Du        
  13712 ****       -12.7500 -21.0000 -14.7500 Du        
  13713 ****       -12.7500 -20.7500 -15.7500 Du        
  13714 ****       -12.7500 -20.7500 -15.5000 Du        
  13715 ****       -12.7500 -20.7500 -15.2500 Du        
  13716 ****       -12.7500 -20.7500 -15.0000 Du        
  13717 ****       -12.7500 -20.5000 -15.2500 Du        
  13718 ****       -12.7500 -17.0000  -8.5000 Du        
  13719 ****       -12.7500 -17.0000  -8.2500 Du        
  13720 ****       -12.7500 -17.0000  -8.0000 Du        
  13721 ****       -12.7500 -16.7500  -9.0000 Du        
  13722 ****       -12.7500 -16.7500  -8.7500 Du        
  13723 ****       -12.7500 -16.7500  -8.5000 Du        
  13724 ****       -12.7500 -16.7500  -8.2500 Du        
  13725 ****       -12.7500 -16.7500  -8.0000 Du        
  13726 ****       -12.7500 -16.7500  -7.7500 Du        
  13727 ****       -12.7500 -16.5000  -9.5000 Du        
  13728 ****       -12.7500 -16.5000  -9.2500 Du        
  13729 ****       -12.7500 -16.5000  -9.0000 Du        
  13730 ****       -12.7500 -16.5000  -8.7500 Du        
  13731 ****       -12.7500 -16.5000  -8.5000 Du        
  13732 ****       -12.7500 -16.5000  -8.2500 Du        
  13733 ****       -12.7500 -16.5000  -8.0000 Du        
  13734 ****       -12.7500 -16.5000  -7.7500 Du        
  13735 ****       -12.7500 -16.2500 -27.7500 Du        
  13736 ****       -12.7500 -16.2500 -27.5000 Du        
  13737 ****       -12.7500 -16.2500 -27.2500 Du        
  13738 ****       -12.7500 -16.2500 -27.0000 Du        
  13739 ****       -12.7500 -16.2500  -9.5000 Du        
  13740 ****       -12.7500 -16.2500  -9.2500 Du        
  13741 ****       -12.7500 -16.2500  -9.0000 Du        
  13742 ****       -12.7500 -16.2500  -8.7500 Du        
  13743 ****       -12.7500 -16.2500  -8.5000 Du        
  13744 ****       -12.7500 -16.2500  -8.2500 Du        
  13745 ****       -12.7500 -16.2500  -8.0000 Du        
  13746 ****       -12.7500 -16.2500  -7.7500 Du        
  13747 ****       -12.7500 -16.0000 -28.0000 Du        
  13748 ****       -12.7500 -16.0000 -27.7500 Du        
  13749 ****       -12.7500 -16.0000 -27.5000 Du        
  13750 ****       -12.7500 -16.0000 -27.2500 Du        
  13751 ****       -12.7500 -16.0000 -27.0000 Du        
  13752 ****       -12.7500 -16.0000  -9.7500 Du        
  13753 ****       -12.7500 -16.0000  -9.5000 Du        
  13754 ****       -12.7500 -16.0000  -9.2500 Du        
  13755 ****       -12.7500 -16.0000  -9.0000 Du        
  13756 ****       -12.7500 -16.0000  -8.7500 Du        
  13757 ****       -12.7500 -16.0000  -8.5000 Du        
  13758 ****       -12.7500 -16.0000  -8.2500 Du        
  13759 ****       -12.7500 -16.0000  -8.0000 Du        
  13760 ****       -12.7500 -16.0000  -7.7500 Du        
  13761 ****       -12.7500 -15.7500 -27.7500 Du        
  13762 ****       -12.7500 -15.7500 -27.5000 Du        
  13763 ****       -12.7500 -15.7500 -27.2500 Du        
  13764 ****       -12.7500 -15.7500 -27.0000 Du        
  13765 ****       -12.7500 -15.7500  -9.7500 Du        
  13766 ****       -12.7500 -15.7500  -9.5000 Du        
  13767 ****       -12.7500 -15.7500  -9.2500 Du        
  13768 ****       -12.7500 -15.7500  -9.0000 Du        
  13769 ****       -12.7500 -15.7500  -8.7500 Du        
  13770 ****       -12.7500 -15.7500  -8.5000 Du        
  13771 ****       -12.7500 -15.7500  -8.2500 Du        
  13772 ****       -12.7500 -15.7500  -8.0000 Du        
  13773 ****       -12.7500 -15.5000  -9.7500 Du        
  13774 ****       -12.7500 -15.5000  -9.5000 Du        
  13775 ****       -12.7500 -15.5000  -9.2500 Du        
  13776 ****       -12.7500 -15.5000  -9.0000 Du        
  13777 ****       -12.7500 -15.5000  -8.7500 Du        
  13778 ****       -12.7500 -15.5000  -8.5000 Du        
  13779 ****       -12.7500 -15.5000  -8.2500 Du        
  13780 ****       -12.7500 -15.5000  -8.0000 Du        
  13781 ****       -12.7500 -15.2500  -9.7500 Du        
  13782 ****       -12.7500 -15.2500  -9.5000 Du        
  13783 ****       -12.7500 -15.2500  -9.2500 Du        
  13784 ****       -12.7500 -15.2500  -9.0000 Du        
  13785 ****       -12.7500 -15.2500  -8.7500 Du        
  13786 ****       -12.7500 -15.2500  -8.5000 Du        
  13787 ****       -12.7500 -15.2500  -8.2500 Du        
  13788 ****       -12.7500 -15.0000  -9.7500 Du        
  13789 ****       -12.7500 -15.0000  -9.5000 Du        
  13790 ****       -12.7500 -15.0000  -9.2500 Du        
  13791 ****       -12.7500 -15.0000  -9.0000 Du        
  13792 ****       -12.7500 -15.0000  -8.7500 Du        
  13793 ****       -12.7500 -15.0000  -8.5000 Du        
  13794 ****       -12.7500 -15.0000  -8.2500 Du        
  13795 ****       -12.7500 -14.7500 -10.0000 Du        
  13796 ****       -12.7500 -14.7500  -9.7500 Du        
  13797 ****       -12.7500 -14.7500  -9.5000 Du        
  13798 ****       -12.7500 -14.7500  -9.2500 Du        
  13799 ****       -12.7500 -14.7500  -9.0000 Du        
  13800 ****       -12.7500 -14.7500  -8.7500 Du        
  13801 ****       -12.7500 -14.7500  -8.5000 Du        
  13802 ****       -12.7500 -14.7500  -8.2500 Du        
  13803 ****       -12.7500 -14.5000 -10.0000 Du        
  13804 ****       -12.7500 -14.5000  -9.7500 Du        
  13805 ****       -12.7500 -14.5000  -9.5000 Du        
  13806 ****       -12.7500 -14.5000  -9.2500 Du        
  13807 ****       -12.7500 -14.5000  -9.0000 Du        
  13808 ****       -12.7500 -14.5000  -8.7500 Du        
  13809 ****       -12.7500 -14.5000  -8.5000 Du        
  13810 ****       -12.7500 -14.2500 -10.2500 Du        
  13811 ****       -12.7500 -14.2500 -10.0000 Du        
  13812 ****       -12.7500 -14.2500  -9.7500 Du        
  13813 ****       -12.7500 -14.2500  -9.5000 Du        
  13814 ****       -12.7500 -14.2500  -9.2500 Du        
  13815 ****       -12.7500 -14.2500  -9.0000 Du        
  13816 ****       -12.7500 -14.2500  -8.7500 Du        
  13817 ****       -12.7500 -14.2500  -8.5000 Du        
  13818 ****       -12.7500 -14.0000 -10.2500 Du        
  13819 ****       -12.7500 -14.0000 -10.0000 Du        
  13820 ****       -12.7500 -14.0000  -9.7500 Du        
  13821 ****       -12.7500 -14.0000  -9.5000 Du        
  13822 ****       -12.7500 -14.0000  -9.2500 Du        
  13823 ****       -12.7500 -14.0000  -9.0000 Du        
  13824 ****       -12.7500 -14.0000  -8.7500 Du        
  13825 ****       -12.7500 -14.0000  -8.5000 Du        
  13826 ****       -12.7500 -13.7500 -10.5000 Du        
  13827 ****       -12.7500 -13.7500 -10.2500 Du        
  13828 ****       -12.7500 -13.7500 -10.0000 Du        
  13829 ****       -12.7500 -13.7500  -9.7500 Du        
  13830 ****       -12.7500 -13.7500  -9.5000 Du        
  13831 ****       -12.7500 -13.7500  -9.2500 Du        
  13832 ****       -12.7500 -13.7500  -9.0000 Du        
  13833 ****       -12.7500 -13.7500  -8.7500 Du        
  13834 ****       -12.7500  -7.0000 -16.2500 Du        
  13835 ****       -12.7500  -7.0000 -16.0000 Du        
  13836 ****       -12.7500  -7.0000 -15.7500 Du        
  13837 ****       -12.7500  -7.0000 -15.5000 Du        
  13838 ****       -12.7500  -6.7500 -16.2500 Du        
  13839 ****       -12.7500  -6.7500 -16.0000 Du        
  13840 ****       -12.7500  -6.7500 -15.7500 Du        
  13841 ****       -12.7500  -6.7500 -15.5000 Du        
  13842 ****       -12.7500  -6.7500 -15.2500 Du        
  13843 ****       -12.7500  -6.5000 -17.0000 Du        
  13844 ****       -12.7500  -6.5000 -16.7500 Du        
  13845 ****       -12.7500  -6.5000 -16.5000 Du        
  13846 ****       -12.7500  -6.5000 -16.2500 Du        
  13847 ****       -12.7500  -6.5000 -16.0000 Du        
  13848 ****       -12.7500  -6.5000 -15.7500 Du        
  13849 ****       -12.7500  -6.5000 -15.5000 Du        
  13850 ****       -12.7500  -6.2500 -17.5000 Du        
  13851 ****       -12.7500  -6.2500 -17.2500 Du        
  13852 ****       -12.7500  -6.2500 -17.0000 Du        
  13853 ****       -12.7500  -6.2500 -16.7500 Du        
  13854 ****       -12.7500  -6.2500 -16.5000 Du        
  13855 ****       -12.7500  -6.2500 -16.2500 Du        
  13856 ****       -12.7500  -6.2500 -16.0000 Du        
  13857 ****       -12.7500  -6.0000 -18.0000 Du        
  13858 ****       -12.7500  -6.0000 -17.7500 Du        
  13859 ****       -12.7500  -6.0000 -17.5000 Du        
  13860 ****       -12.7500  -6.0000 -17.2500 Du        
  13861 ****       -12.7500  -6.0000 -17.0000 Du        
  13862 ****       -12.7500  -6.0000 -16.7500 Du        
  13863 ****       -12.7500  -6.0000 -16.5000 Du        
  13864 ****       -12.7500  -6.0000 -16.2500 Du        
  13865 ****       -12.7500  -5.7500 -18.2500 Du        
  13866 ****       -12.7500  -5.7500 -18.0000 Du        
  13867 ****       -12.7500  -5.7500 -17.7500 Du        
  13868 ****       -12.7500  -5.7500 -17.5000 Du        
  13869 ****       -12.7500  -5.7500 -17.2500 Du        
  13870 ****       -12.7500  -5.7500 -17.0000 Du        
  13871 ****       -12.7500  -5.7500 -16.7500 Du        
  13872 ****       -12.7500  -5.5000 -18.5000 Du        
  13873 ****       -12.7500  -5.5000 -18.2500 Du        
  13874 ****       -12.7500  -5.5000 -18.0000 Du        
  13875 ****       -12.7500  -5.5000 -17.7500 Du        
  13876 ****       -12.7500  -5.5000 -17.5000 Du        
  13877 ****       -12.7500  -5.5000 -17.2500 Du        
  13878 ****       -12.7500  -5.5000 -17.0000 Du        
  13879 ****       -12.7500  -5.5000 -16.7500 Du        
  13880 ****       -12.7500  -5.2500 -19.0000 Du        
  13881 ****       -12.7500  -5.2500 -18.7500 Du        
  13882 ****       -12.7500  -5.2500 -18.5000 Du        
  13883 ****       -12.7500  -5.2500 -18.2500 Du        
  13884 ****       -12.7500  -5.2500 -18.0000 Du        
  13885 ****       -12.7500  -5.2500 -17.7500 Du        
  13886 ****       -12.7500  -5.2500 -17.5000 Du        
  13887 ****       -12.7500  -5.2500 -17.2500 Du        
  13888 ****       -12.7500  -5.2500 -17.0000 Du        
  13889 ****       -12.7500  -5.0000 -19.2500 Du        
  13890 ****       -12.7500  -5.0000 -19.0000 Du        
  13891 ****       -12.7500  -5.0000 -18.7500 Du        
  13892 ****       -12.7500  -5.0000 -18.5000 Du        
  13893 ****       -12.7500  -5.0000 -18.2500 Du        
  13894 ****       -12.7500  -5.0000 -18.0000 Du        
  13895 ****       -12.7500  -5.0000 -17.7500 Du        
  13896 ****       -12.7500  -5.0000 -17.5000 Du        
  13897 ****       -12.7500  -5.0000 -17.2500 Du        
  13898 ****       -12.7500  -5.0000 -17.0000 Du        
  13899 ****       -12.7500  -4.7500 -19.0000 Du        
  13900 ****       -12.7500  -4.7500 -18.7500 Du        
  13901 ****       -12.7500  -4.7500 -18.5000 Du        
  13902 ****       -12.7500  -4.7500 -18.2500 Du        
  13903 ****       -12.7500  -4.7500 -18.0000 Du        
  13904 ****       -12.7500  -4.7500 -17.7500 Du        
  13905 ****       -12.7500  -4.7500 -17.5000 Du        
  13906 ****       -12.7500  -4.7500 -17.2500 Du        
  13907 ****       -12.7500  -4.5000 -18.7500 Du        
  13908 ****       -12.7500  -4.5000 -18.5000 Du        
  13909 ****       -12.7500  -4.5000 -18.2500 Du        
  13910 ****       -12.7500  -4.5000 -18.0000 Du        
  13911 ****       -12.7500  -4.5000 -17.7500 Du        
  13912 ****       -12.7500  -4.5000 -17.5000 Du        
  13913 ****       -12.7500  -4.5000 -17.2500 Du        
  13914 ****       -12.7500  -4.2500 -18.2500 Du        
  13915 ****       -12.7500  -4.2500 -18.0000 Du        
  13916 ****       -12.7500  -4.2500 -17.7500 Du        
  13917 ****       -12.7500  -4.2500 -17.5000 Du        
  13918 ****       -12.5000 -27.2500 -14.7500 Du        
  13919 ****       -12.5000 -27.0000 -15.2500 Du        
  13920 ****       -12.5000 -27.0000 -15.0000 Du        
  13921 ****       -12.5000 -27.0000 -14.7500 Du        
  13922 ****       -12.5000 -27.0000 -14.5000 Du        
  13923 ****       -12.5000 -27.0000 -14.2500 Du        
  13924 ****       -12.5000 -26.7500 -15.5000 Du        
  13925 ****       -12.5000 -26.7500 -15.2500 Du        
  13926 ****       -12.5000 -26.7500 -15.0000 Du        
  13927 ****       -12.5000 -26.7500 -14.7500 Du        
  13928 ****       -12.5000 -26.7500 -14.5000 Du        
  13929 ****       -12.5000 -26.7500 -14.2500 Du        
  13930 ****       -12.5000 -26.5000 -15.5000 Du        
  13931 ****       -12.5000 -26.5000 -15.2500 Du        
  13932 ****       -12.5000 -26.5000 -15.0000 Du        
  13933 ****       -12.5000 -26.5000 -14.7500 Du        
  13934 ****       -12.5000 -26.2500 -15.5000 Du        
  13935 ****       -12.5000 -26.2500 -15.2500 Du        
  13936 ****       -12.5000 -26.2500 -15.0000 Du        
  13937 ****       -12.5000 -26.2500 -14.7500 Du        
  13938 ****       -12.5000 -26.2500 -11.7500 Du        
  13939 ****       -12.5000 -26.0000 -27.7500 Du        
  13940 ****       -12.5000 -26.0000 -27.5000 Du        
  13941 ****       -12.5000 -26.0000 -15.2500 Du        
  13942 ****       -12.5000 -26.0000 -15.0000 Du        
  13943 ****       -12.5000 -26.0000 -11.7500 Du        
  13944 ****       -12.5000 -26.0000 -11.5000 Du        
  13945 ****       -12.5000 -25.7500 -27.7500 Du        
  13946 ****       -12.5000 -25.7500 -27.5000 Du        
  13947 ****       -12.5000 -25.7500 -11.7500 Du        
  13948 ****       -12.5000 -25.7500 -11.5000 Du        
  13949 ****       -12.5000 -25.5000 -28.2500 Du        
  13950 ****       -12.5000 -25.5000 -28.0000 Du        
  13951 ****       -12.5000 -25.5000 -27.7500 Du        
  13952 ****       -12.5000 -25.5000 -27.5000 Du        
  13953 ****       -12.5000 -25.5000 -11.7500 Du        
  13954 ****       -12.5000 -25.5000 -11.5000 Du        
  13955 ****       -12.5000 -25.2500 -28.2500 Du        
  13956 ****       -12.5000 -25.2500 -28.0000 Du        
  13957 ****       -12.5000 -25.2500 -27.7500 Du        
  13958 ****       -12.5000 -25.2500 -27.5000 Du        
  13959 ****       -12.5000 -25.2500 -11.5000 Du        
  13960 ****       -12.5000 -25.0000 -28.7500 Du        
  13961 ****       -12.5000 -25.0000 -28.5000 Du        
  13962 ****       -12.5000 -25.0000 -28.2500 Du        
  13963 ****       -12.5000 -25.0000 -28.0000 Du        
  13964 ****       -12.5000 -25.0000 -27.7500 Du        
  13965 ****       -12.5000 -25.0000 -27.5000 Du        
  13966 ****       -12.5000 -24.7500 -28.7500 Du        
  13967 ****       -12.5000 -24.7500 -28.5000 Du        
  13968 ****       -12.5000 -24.7500 -28.2500 Du        
  13969 ****       -12.5000 -24.7500 -28.0000 Du        
  13970 ****       -12.5000 -24.7500 -27.7500 Du        
  13971 ****       -12.5000 -24.7500 -27.5000 Du        
  13972 ****       -12.5000 -24.5000 -28.7500 Du        
  13973 ****       -12.5000 -24.5000 -28.5000 Du        
  13974 ****       -12.5000 -24.5000 -28.2500 Du        
  13975 ****       -12.5000 -24.5000 -28.0000 Du        
  13976 ****       -12.5000 -24.5000 -27.7500 Du        
  13977 ****       -12.5000 -24.5000 -27.5000 Du        
  13978 ****       -12.5000 -24.2500 -28.7500 Du        
  13979 ****       -12.5000 -24.2500 -28.5000 Du        
  13980 ****       -12.5000 -24.2500 -28.2500 Du        
  13981 ****       -12.5000 -24.2500 -28.0000 Du        
  13982 ****       -12.5000 -24.2500 -27.7500 Du        
  13983 ****       -12.5000 -24.2500 -27.5000 Du        
  13984 ****       -12.5000 -24.0000 -29.2500 Du        
  13985 ****       -12.5000 -24.0000 -29.0000 Du        
  13986 ****       -12.5000 -24.0000 -28.7500 Du        
  13987 ****       -12.5000 -24.0000 -28.5000 Du        
  13988 ****       -12.5000 -24.0000 -28.2500 Du        
  13989 ****       -12.5000 -24.0000 -28.0000 Du        
  13990 ****       -12.5000 -24.0000 -27.7500 Du        
  13991 ****       -12.5000 -24.0000 -27.5000 Du        
  13992 ****       -12.5000 -23.7500 -29.2500 Du        
  13993 ****       -12.5000 -23.7500 -29.0000 Du        
  13994 ****       -12.5000 -23.7500 -28.7500 Du        
  13995 ****       -12.5000 -23.7500 -28.5000 Du        
  13996 ****       -12.5000 -23.7500 -28.2500 Du        
  13997 ****       -12.5000 -23.7500 -28.0000 Du        
  13998 ****       -12.5000 -23.7500 -27.7500 Du        
  13999 ****       -12.5000 -23.7500 -27.5000 Du        
  14000 ****       -12.5000 -23.5000 -29.5000 Du        
  14001 ****       -12.5000 -23.5000 -29.2500 Du        
  14002 ****       -12.5000 -23.5000 -29.0000 Du        
  14003 ****       -12.5000 -23.5000 -28.7500 Du        
  14004 ****       -12.5000 -23.5000 -28.5000 Du        
  14005 ****       -12.5000 -23.5000 -28.2500 Du        
  14006 ****       -12.5000 -23.5000 -28.0000 Du        
  14007 ****       -12.5000 -23.5000 -27.7500 Du        
  14008 ****       -12.5000 -23.5000 -27.5000 Du        
  14009 ****       -12.5000 -23.2500 -29.2500 Du        
  14010 ****       -12.5000 -23.2500 -29.0000 Du        
  14011 ****       -12.5000 -23.2500 -28.7500 Du        
  14012 ****       -12.5000 -23.2500 -28.5000 Du        
  14013 ****       -12.5000 -23.2500 -28.2500 Du        
  14014 ****       -12.5000 -23.2500 -28.0000 Du        
  14015 ****       -12.5000 -23.2500 -27.7500 Du        
  14016 ****       -12.5000 -23.2500 -27.5000 Du        
  14017 ****       -12.5000 -23.0000 -29.0000 Du        
  14018 ****       -12.5000 -23.0000 -28.7500 Du        
  14019 ****       -12.5000 -23.0000 -28.5000 Du        
  14020 ****       -12.5000 -23.0000 -28.2500 Du        
  14021 ****       -12.5000 -23.0000 -28.0000 Du        
  14022 ****       -12.5000 -23.0000 -27.7500 Du        
  14023 ****       -12.5000 -23.0000 -27.5000 Du        
  14024 ****       -12.5000 -22.7500 -28.7500 Du        
  14025 ****       -12.5000 -22.7500 -28.5000 Du        
  14026 ****       -12.5000 -22.7500 -28.2500 Du        
  14027 ****       -12.5000 -22.7500 -28.0000 Du        
  14028 ****       -12.5000 -22.7500 -27.7500 Du        
  14029 ****       -12.5000 -22.7500 -27.5000 Du        
  14030 ****       -12.5000 -22.7500 -27.2500 Du        
  14031 ****       -12.5000 -22.7500 -15.7500 Du        
  14032 ****       -12.5000 -22.7500 -15.5000 Du        
  14033 ****       -12.5000 -22.5000 -28.5000 Du        
  14034 ****       -12.5000 -22.5000 -28.2500 Du        
  14035 ****       -12.5000 -22.5000 -28.0000 Du        
  14036 ****       -12.5000 -22.5000 -27.7500 Du        
  14037 ****       -12.5000 -22.5000 -27.5000 Du        
  14038 ****       -12.5000 -22.5000 -27.2500 Du        
  14039 ****       -12.5000 -22.5000 -16.0000 Du        
  14040 ****       -12.5000 -22.5000 -15.7500 Du        
  14041 ****       -12.5000 -22.5000 -15.5000 Du        
  14042 ****       -12.5000 -22.2500 -28.2500 Du        
  14043 ****       -12.5000 -22.2500 -28.0000 Du        
  14044 ****       -12.5000 -22.2500 -27.7500 Du        
  14045 ****       -12.5000 -22.2500 -27.5000 Du        
  14046 ****       -12.5000 -22.2500 -27.2500 Du        
  14047 ****       -12.5000 -22.2500 -16.0000 Du        
  14048 ****       -12.5000 -22.2500 -15.7500 Du        
  14049 ****       -12.5000 -22.2500 -15.5000 Du        
  14050 ****       -12.5000 -22.2500 -15.2500 Du        
  14051 ****       -12.5000 -22.0000 -28.0000 Du        
  14052 ****       -12.5000 -22.0000 -27.7500 Du        
  14053 ****       -12.5000 -22.0000 -27.5000 Du        
  14054 ****       -12.5000 -22.0000 -27.2500 Du        
  14055 ****       -12.5000 -22.0000 -16.0000 Du        
  14056 ****       -12.5000 -22.0000 -15.7500 Du        
  14057 ****       -12.5000 -22.0000 -15.5000 Du        
  14058 ****       -12.5000 -22.0000 -15.2500 Du        
  14059 ****       -12.5000 -21.7500 -27.5000 Du        
  14060 ****       -12.5000 -21.7500 -27.2500 Du        
  14061 ****       -12.5000 -21.7500 -16.0000 Du        
  14062 ****       -12.5000 -21.7500 -15.7500 Du        
  14063 ****       -12.5000 -21.7500 -15.5000 Du        
  14064 ****       -12.5000 -21.7500 -15.2500 Du        
  14065 ****       -12.5000 -21.7500 -15.0000 Du        
  14066 ****       -12.5000 -21.5000 -16.0000 Du        
  14067 ****       -12.5000 -21.5000 -15.7500 Du        
  14068 ****       -12.5000 -21.5000 -15.5000 Du        
  14069 ****       -12.5000 -21.5000 -15.2500 Du        
  14070 ****       -12.5000 -21.5000 -15.0000 Du        
  14071 ****       -12.5000 -21.2500 -16.0000 Du        
  14072 ****       -12.5000 -21.2500 -15.7500 Du        
  14073 ****       -12.5000 -21.2500 -15.5000 Du        
  14074 ****       -12.5000 -21.2500 -15.2500 Du        
  14075 ****       -12.5000 -21.2500 -15.0000 Du        
  14076 ****       -12.5000 -21.0000 -15.7500 Du        
  14077 ****       -12.5000 -21.0000 -15.5000 Du        
  14078 ****       -12.5000 -21.0000 -15.2500 Du        
  14079 ****       -12.5000 -21.0000 -15.0000 Du        
  14080 ****       -12.5000 -20.7500 -15.7500 Du        
  14081 ****       -12.5000 -20.7500 -15.5000 Du        
  14082 ****       -12.5000 -20.7500 -15.2500 Du        
  14083 ****       -12.5000 -17.0000  -8.7500 Du        
  14084 ****       -12.5000 -17.0000  -8.5000 Du        
  14085 ****       -12.5000 -17.0000  -8.2500 Du        
  14086 ****       -12.5000 -17.0000  -8.0000 Du        
  14087 ****       -12.5000 -16.7500  -9.2500 Du        
  14088 ****       -12.5000 -16.7500  -9.0000 Du        
  14089 ****       -12.5000 -16.7500  -8.7500 Du        
  14090 ****       -12.5000 -16.7500  -8.5000 Du        
  14091 ****       -12.5000 -16.7500  -8.2500 Du        
  14092 ****       -12.5000 -16.7500  -8.0000 Du        
  14093 ****       -12.5000 -16.5000  -9.5000 Du        
  14094 ****       -12.5000 -16.5000  -9.2500 Du        
  14095 ****       -12.5000 -16.5000  -9.0000 Du        
  14096 ****       -12.5000 -16.5000  -8.7500 Du        
  14097 ****       -12.5000 -16.5000  -8.5000 Du        
  14098 ****       -12.5000 -16.5000  -8.2500 Du        
  14099 ****       -12.5000 -16.5000  -8.0000 Du        
  14100 ****       -12.5000 -16.5000  -7.7500 Du        
  14101 ****       -12.5000 -16.2500  -9.5000 Du        
  14102 ****       -12.5000 -16.2500  -9.2500 Du        
  14103 ****       -12.5000 -16.2500  -9.0000 Du        
  14104 ****       -12.5000 -16.2500  -8.7500 Du        
  14105 ****       -12.5000 -16.2500  -8.5000 Du        
  14106 ****       -12.5000 -16.2500  -8.2500 Du        
  14107 ****       -12.5000 -16.2500  -8.0000 Du        
  14108 ****       -12.5000 -16.2500  -7.7500 Du        
  14109 ****       -12.5000 -16.0000 -28.0000 Du        
  14110 ****       -12.5000 -16.0000 -27.7500 Du        
  14111 ****       -12.5000 -16.0000 -27.5000 Du        
  14112 ****       -12.5000 -16.0000 -27.2500 Du        
  14113 ****       -12.5000 -16.0000  -9.5000 Du        
  14114 ****       -12.5000 -16.0000  -9.2500 Du        
  14115 ****       -12.5000 -16.0000  -9.0000 Du        
  14116 ****       -12.5000 -16.0000  -8.7500 Du        
  14117 ****       -12.5000 -16.0000  -8.5000 Du        
  14118 ****       -12.5000 -16.0000  -8.2500 Du        
  14119 ****       -12.5000 -16.0000  -8.0000 Du        
  14120 ****       -12.5000 -15.7500 -28.0000 Du        
  14121 ****       -12.5000 -15.7500 -27.7500 Du        
  14122 ****       -12.5000 -15.7500 -27.5000 Du        
  14123 ****       -12.5000 -15.7500 -27.2500 Du        
  14124 ****       -12.5000 -15.7500  -9.5000 Du        
  14125 ****       -12.5000 -15.7500  -9.2500 Du        
  14126 ****       -12.5000 -15.7500  -9.0000 Du        
  14127 ****       -12.5000 -15.7500  -8.7500 Du        
  14128 ****       -12.5000 -15.7500  -8.5000 Du        
  14129 ****       -12.5000 -15.7500  -8.2500 Du        
  14130 ****       -12.5000 -15.7500  -8.0000 Du        
  14131 ****       -12.5000 -15.5000  -9.5000 Du        
  14132 ****       -12.5000 -15.5000  -9.2500 Du        
  14133 ****       -12.5000 -15.5000  -9.0000 Du        
  14134 ****       -12.5000 -15.5000  -8.7500 Du        
  14135 ****       -12.5000 -15.5000  -8.5000 Du        
  14136 ****       -12.5000 -15.5000  -8.2500 Du        
  14137 ****       -12.5000 -15.2500  -9.5000 Du        
  14138 ****       -12.5000 -15.2500  -9.2500 Du        
  14139 ****       -12.5000 -15.2500  -9.0000 Du        
  14140 ****       -12.5000 -15.2500  -8.7500 Du        
  14141 ****       -12.5000 -15.2500  -8.5000 Du        
  14142 ****       -12.5000 -15.2500  -8.2500 Du        
  14143 ****       -12.5000 -15.0000  -9.7500 Du        
  14144 ****       -12.5000 -15.0000  -9.5000 Du        
  14145 ****       -12.5000 -15.0000  -9.2500 Du        
  14146 ****       -12.5000 -15.0000  -9.0000 Du        
  14147 ****       -12.5000 -15.0000  -8.7500 Du        
  14148 ****       -12.5000 -15.0000  -8.5000 Du        
  14149 ****       -12.5000 -14.7500  -9.7500 Du        
  14150 ****       -12.5000 -14.7500  -9.5000 Du        
  14151 ****       -12.5000 -14.7500  -9.2500 Du        
  14152 ****       -12.5000 -14.7500  -9.0000 Du        
  14153 ****       -12.5000 -14.7500  -8.7500 Du        
  14154 ****       -12.5000 -14.7500  -8.5000 Du        
  14155 ****       -12.5000 -14.5000  -9.7500 Du        
  14156 ****       -12.5000 -14.5000  -9.5000 Du        
  14157 ****       -12.5000 -14.5000  -9.2500 Du        
  14158 ****       -12.5000 -14.5000  -9.0000 Du        
  14159 ****       -12.5000 -14.5000  -8.7500 Du        
  14160 ****       -12.5000 -14.5000  -8.5000 Du        
  14161 ****       -12.5000 -14.2500 -10.0000 Du        
  14162 ****       -12.5000 -14.2500  -9.7500 Du        
  14163 ****       -12.5000 -14.2500  -9.5000 Du        
  14164 ****       -12.5000 -14.2500  -9.2500 Du        
  14165 ****       -12.5000 -14.2500  -9.0000 Du        
  14166 ****       -12.5000 -14.2500  -8.7500 Du        
  14167 ****       -12.5000 -14.2500  -8.5000 Du        
  14168 ****       -12.5000 -14.0000 -10.2500 Du        
  14169 ****       -12.5000 -14.0000 -10.0000 Du        
  14170 ****       -12.5000 -14.0000  -9.7500 Du        
  14171 ****       -12.5000 -14.0000  -9.5000 Du        
  14172 ****       -12.5000 -14.0000  -9.2500 Du        
  14173 ****       -12.5000 -14.0000  -9.0000 Du        
  14174 ****       -12.5000 -14.0000  -8.7500 Du        
  14175 ****       -12.5000 -14.0000  -8.5000 Du        
  14176 ****       -12.5000 -13.7500 -10.2500 Du        
  14177 ****       -12.5000 -13.7500 -10.0000 Du        
  14178 ****       -12.5000 -13.7500  -9.7500 Du        
  14179 ****       -12.5000 -13.7500  -9.5000 Du        
  14180 ****       -12.5000 -13.7500  -9.2500 Du        
  14181 ****       -12.5000 -13.7500  -9.0000 Du        
  14182 ****       -12.5000 -13.7500  -8.7500 Du        
  14183 ****       -12.5000 -13.5000 -10.2500 Du        
  14184 ****       -12.5000 -13.5000 -10.0000 Du        
  14185 ****       -12.5000 -13.5000  -9.7500 Du        
  14186 ****       -12.5000 -13.5000  -9.5000 Du        
  14187 ****       -12.5000 -13.5000  -9.2500 Du        
  14188 ****       -12.5000 -13.5000  -9.0000 Du        
  14189 ****       -12.5000 -13.2500 -10.2500 Du        
  14190 ****       -12.5000 -13.2500 -10.0000 Du        
  14191 ****       -12.5000  -7.2500 -15.5000 Du        
  14192 ****       -12.5000  -7.2500 -15.2500 Du        
  14193 ****       -12.5000  -7.2500 -15.0000 Du        
  14194 ****       -12.5000  -7.0000 -15.5000 Du        
  14195 ****       -12.5000  -7.0000 -15.2500 Du        
  14196 ****       -12.5000  -7.0000 -15.0000 Du        
  14197 ****       -12.5000  -7.0000 -14.7500 Du        
  14198 ****       -12.5000  -6.7500 -15.5000 Du        
  14199 ****       -12.5000  -6.7500 -15.2500 Du        
  14200 ****       -12.5000  -6.7500 -15.0000 Du        
  14201 ****       -12.5000  -6.5000 -16.5000 Du        
  14202 ****       -12.5000  -6.5000 -16.2500 Du        
  14203 ****       -12.5000  -6.5000 -16.0000 Du        
  14204 ****       -12.5000  -6.2500 -17.0000 Du        
  14205 ****       -12.5000  -6.2500 -16.7500 Du        
  14206 ****       -12.5000  -6.2500 -16.5000 Du        
  14207 ****       -12.5000  -6.2500 -16.2500 Du        
  14208 ****       -12.5000  -6.0000 -17.5000 Du        
  14209 ****       -12.5000  -6.0000 -17.2500 Du        
  14210 ****       -12.5000  -6.0000 -17.0000 Du        
  14211 ****       -12.5000  -6.0000 -16.7500 Du        
  14212 ****       -12.5000  -5.7500 -17.5000 Du        
  14213 ****       -12.5000  -5.7500 -17.2500 Du        
  14214 ****       -12.5000  -5.7500 -17.0000 Du        
  14215 ****       -12.5000  -5.5000 -18.5000 Du        
  14216 ****       -12.5000  -5.5000 -18.2500 Du        
  14217 ****       -12.5000  -5.5000 -18.0000 Du        
  14218 ****       -12.5000  -5.5000 -17.7500 Du        
  14219 ****       -12.5000  -5.5000 -17.5000 Du        
  14220 ****       -12.5000  -5.5000 -17.2500 Du        
  14221 ****       -12.5000  -5.5000 -17.0000 Du        
  14222 ****       -12.5000  -5.2500 -19.0000 Du        
  14223 ****       -12.5000  -5.2500 -18.7500 Du        
  14224 ****       -12.5000  -5.2500 -18.5000 Du        
  14225 ****       -12.5000  -5.2500 -18.2500 Du        
  14226 ****       -12.5000  -5.2500 -18.0000 Du        
  14227 ****       -12.5000  -5.2500 -17.7500 Du        
  14228 ****       -12.5000  -5.2500 -17.5000 Du        
  14229 ****       -12.5000  -5.2500 -17.2500 Du        
  14230 ****       -12.5000  -5.2500 -17.0000 Du        
  14231 ****       -12.5000  -5.0000 -19.0000 Du        
  14232 ****       -12.5000  -5.0000 -18.7500 Du        
  14233 ****       -12.5000  -5.0000 -18.5000 Du        
  14234 ****       -12.5000  -5.0000 -18.2500 Du        
  14235 ****       -12.5000  -5.0000 -18.0000 Du        
  14236 ****       -12.5000  -5.0000 -17.7500 Du        
  14237 ****       -12.5000  -5.0000 -17.5000 Du        
  14238 ****       -12.5000  -5.0000 -17.2500 Du        
  14239 ****       -12.5000  -4.7500 -19.0000 Du        
  14240 ****       -12.5000  -4.7500 -18.7500 Du        
  14241 ****       -12.5000  -4.7500 -18.5000 Du        
  14242 ****       -12.5000  -4.7500 -18.2500 Du        
  14243 ****       -12.5000  -4.7500 -18.0000 Du        
  14244 ****       -12.5000  -4.7500 -17.7500 Du        
  14245 ****       -12.5000  -4.7500 -17.5000 Du        
  14246 ****       -12.5000  -4.7500 -17.2500 Du        
  14247 ****       -12.5000  -4.5000 -18.5000 Du        
  14248 ****       -12.5000  -4.5000 -18.2500 Du        
  14249 ****       -12.5000  -4.5000 -18.0000 Du        
  14250 ****       -12.5000  -4.5000 -17.7500 Du        
  14251 ****       -12.5000  -4.5000 -17.5000 Du        
  14252 ****       -12.5000  -4.5000 -17.2500 Du        
  14253 ****       -12.5000  -4.2500 -18.0000 Du        
  14254 ****       -12.5000  -4.2500 -17.7500 Du        
  14255 ****       -12.5000  -4.2500 -17.5000 Du        
  14256 ****       -12.2500 -27.0000 -15.0000 Du        
  14257 ****       -12.2500 -27.0000 -14.7500 Du        
  14258 ****       -12.2500 -26.7500 -15.2500 Du        
  14259 ****       -12.2500 -26.7500 -15.0000 Du        
  14260 ****       -12.2500 -26.7500 -14.7500 Du        
  14261 ****       -12.2500 -26.5000 -15.2500 Du        
  14262 ****       -12.2500 -26.5000 -15.0000 Du        
  14263 ****       -12.2500 -26.2500 -11.5000 Du        
  14264 ****       -12.2500 -26.0000 -27.7500 Du        
  14265 ****       -12.2500 -26.0000 -11.5000 Du        
  14266 ****       -12.2500 -25.7500 -27.7500 Du        
  14267 ****       -12.2500 -25.7500 -27.5000 Du        
  14268 ****       -12.2500 -25.7500 -11.5000 Du        
  14269 ****       -12.2500 -25.5000 -28.2500 Du        
  14270 ****       -12.2500 -25.5000 -28.0000 Du        
  14271 ****       -12.2500 -25.5000 -27.7500 Du        
  14272 ****       -12.2500 -25.5000 -27.5000 Du        
  14273 ****       -12.2500 -25.2500 -28.2500 Du        
  14274 ****       -12.2500 -25.2500 -28.0000 Du        
  14275 ****       -12.2500 -25.2500 -27.7500 Du        
  14276 ****       -12.2500 -25.2500 -27.5000 Du        
  14277 ****       -12.2500 -25.0000 -28.7500 Du        
  14278 ****       -12.2500 -25.0000 -28.5000 Du        
  14279 ****       -12.2500 -25.0000 -28.2500 Du        
  14280 ****       -12.2500 -25.0000 -28.0000 Du        
  14281 ****       -12.2500 -25.0000 -27.7500 Du        
  14282 ****       -12.2500 -24.7500 -28.7500 Du        
  14283 ****       -12.2500 -24.7500 -28.5000 Du        
  14284 ****       -12.2500 -24.7500 -28.2500 Du        
  14285 ****       -12.2500 -24.7500 -28.0000 Du        
  14286 ****       -12.2500 -24.7500 -27.7500 Du        
  14287 ****       -12.2500 -24.5000 -28.7500 Du        
  14288 ****       -12.2500 -24.5000 -28.5000 Du        
  14289 ****       -12.2500 -24.5000 -28.2500 Du        
  14290 ****       -12.2500 -24.5000 -28.0000 Du        
  14291 ****       -12.2500 -24.5000 -27.7500 Du        
  14292 ****       -12.2500 -24.2500 -28.7500 Du        
  14293 ****       -12.2500 -24.2500 -28.5000 Du        
  14294 ****       -12.2500 -24.2500 -28.2500 Du        
  14295 ****       -12.2500 -24.2500 -28.0000 Du        
  14296 ****       -12.2500 -24.2500 -27.7500 Du        
  14297 ****       -12.2500 -24.0000 -29.2500 Du        
  14298 ****       -12.2500 -24.0000 -29.0000 Du        
  14299 ****       -12.2500 -24.0000 -28.7500 Du        
  14300 ****       -12.2500 -24.0000 -28.5000 Du        
  14301 ****       -12.2500 -24.0000 -28.2500 Du        
  14302 ****       -12.2500 -24.0000 -28.0000 Du        
  14303 ****       -12.2500 -24.0000 -27.7500 Du        
  14304 ****       -12.2500 -24.0000 -27.5000 Du        
  14305 ****       -12.2500 -23.7500 -29.2500 Du        
  14306 ****       -12.2500 -23.7500 -29.0000 Du        
  14307 ****       -12.2500 -23.7500 -28.7500 Du        
  14308 ****       -12.2500 -23.7500 -28.5000 Du        
  14309 ****       -12.2500 -23.7500 -28.2500 Du        
  14310 ****       -12.2500 -23.7500 -28.0000 Du        
  14311 ****       -12.2500 -23.7500 -27.7500 Du        
  14312 ****       -12.2500 -23.7500 -27.5000 Du        
  14313 ****       -12.2500 -23.5000 -29.7500 Du        
  14314 ****       -12.2500 -23.5000 -29.5000 Du        
  14315 ****       -12.2500 -23.5000 -29.2500 Du        
  14316 ****       -12.2500 -23.5000 -29.0000 Du        
  14317 ****       -12.2500 -23.5000 -28.7500 Du        
  14318 ****       -12.2500 -23.5000 -28.5000 Du        
  14319 ****       -12.2500 -23.5000 -28.2500 Du        
  14320 ****       -12.2500 -23.5000 -28.0000 Du        
  14321 ****       -12.2500 -23.5000 -27.7500 Du        
  14322 ****       -12.2500 -23.5000 -27.5000 Du        
  14323 ****       -12.2500 -23.2500 -29.5000 Du        
  14324 ****       -12.2500 -23.2500 -29.2500 Du        
  14325 ****       -12.2500 -23.2500 -29.0000 Du        
  14326 ****       -12.2500 -23.2500 -28.7500 Du        
  14327 ****       -12.2500 -23.2500 -28.5000 Du        
  14328 ****       -12.2500 -23.2500 -28.2500 Du        
  14329 ****       -12.2500 -23.2500 -28.0000 Du        
  14330 ****       -12.2500 -23.2500 -27.7500 Du        
  14331 ****       -12.2500 -23.2500 -27.5000 Du        
  14332 ****       -12.2500 -23.0000 -29.0000 Du        
  14333 ****       -12.2500 -23.0000 -28.7500 Du        
  14334 ****       -12.2500 -23.0000 -28.5000 Du        
  14335 ****       -12.2500 -23.0000 -28.2500 Du        
  14336 ****       -12.2500 -23.0000 -28.0000 Du        
  14337 ****       -12.2500 -23.0000 -27.7500 Du        
  14338 ****       -12.2500 -23.0000 -27.5000 Du        
  14339 ****       -12.2500 -23.0000 -27.2500 Du        
  14340 ****       -12.2500 -22.7500 -28.7500 Du        
  14341 ****       -12.2500 -22.7500 -28.5000 Du        
  14342 ****       -12.2500 -22.7500 -28.2500 Du        
  14343 ****       -12.2500 -22.7500 -28.0000 Du        
  14344 ****       -12.2500 -22.7500 -27.7500 Du        
  14345 ****       -12.2500 -22.7500 -27.5000 Du        
  14346 ****       -12.2500 -22.7500 -27.2500 Du        
  14347 ****       -12.2500 -22.5000 -28.5000 Du        
  14348 ****       -12.2500 -22.5000 -28.2500 Du        
  14349 ****       -12.2500 -22.5000 -28.0000 Du        
  14350 ****       -12.2500 -22.5000 -27.7500 Du        
  14351 ****       -12.2500 -22.5000 -27.5000 Du        
  14352 ****       -12.2500 -22.5000 -27.2500 Du        
  14353 ****       -12.2500 -22.2500 -28.2500 Du        
  14354 ****       -12.2500 -22.2500 -28.0000 Du        
  14355 ****       -12.2500 -22.2500 -27.7500 Du        
  14356 ****       -12.2500 -22.2500 -27.5000 Du        
  14357 ****       -12.2500 -22.2500 -27.2500 Du        
  14358 ****       -12.2500 -22.2500 -27.0000 Du        
  14359 ****       -12.2500 -22.2500 -15.7500 Du        
  14360 ****       -12.2500 -22.2500 -15.5000 Du        
  14361 ****       -12.2500 -22.0000 -28.0000 Du        
  14362 ****       -12.2500 -22.0000 -27.7500 Du        
  14363 ****       -12.2500 -22.0000 -27.5000 Du        
  14364 ****       -12.2500 -22.0000 -27.2500 Du        
  14365 ****       -12.2500 -22.0000 -27.0000 Du        
  14366 ****       -12.2500 -22.0000 -16.0000 Du        
  14367 ****       -12.2500 -22.0000 -15.7500 Du        
  14368 ****       -12.2500 -22.0000 -15.5000 Du        
  14369 ****       -12.2500 -21.7500 -27.5000 Du        
  14370 ****       -12.2500 -21.7500 -27.2500 Du        
  14371 ****       -12.2500 -21.7500 -27.0000 Du        
  14372 ****       -12.2500 -21.7500 -16.0000 Du        
  14373 ****       -12.2500 -21.7500 -15.7500 Du        
  14374 ****       -12.2500 -21.7500 -15.5000 Du        
  14375 ****       -12.2500 -21.7500 -15.2500 Du        
  14376 ****       -12.2500 -21.5000 -16.0000 Du        
  14377 ****       -12.2500 -21.5000 -15.7500 Du        
  14378 ****       -12.2500 -21.5000 -15.5000 Du        
  14379 ****       -12.2500 -21.5000 -15.2500 Du        
  14380 ****       -12.2500 -21.2500 -16.0000 Du        
  14381 ****       -12.2500 -21.2500 -15.7500 Du        
  14382 ****       -12.2500 -21.2500 -15.5000 Du        
  14383 ****       -12.2500 -21.2500 -15.2500 Du        
  14384 ****       -12.2500 -21.0000 -16.0000 Du        
  14385 ****       -12.2500 -21.0000 -15.7500 Du        
  14386 ****       -12.2500 -21.0000 -15.5000 Du        
  14387 ****       -12.2500 -21.0000 -15.2500 Du        
  14388 ****       -12.2500 -20.7500 -16.0000 Du        
  14389 ****       -12.2500 -20.7500 -15.7500 Du        
  14390 ****       -12.2500 -20.7500 -15.5000 Du        
  14391 ****       -12.2500 -20.5000 -15.7500 Du        
  14392 ****       -12.2500 -17.0000  -8.7500 Du        
  14393 ****       -12.2500 -17.0000  -8.5000 Du        
  14394 ****       -12.2500 -17.0000  -8.2500 Du        
  14395 ****       -12.2500 -17.0000  -8.0000 Du        
  14396 ****       -12.2500 -16.7500  -9.2500 Du        
  14397 ****       -12.2500 -16.7500  -9.0000 Du        
  14398 ****       -12.2500 -16.7500  -8.7500 Du        
  14399 ****       -12.2500 -16.7500  -8.5000 Du        
  14400 ****       -12.2500 -16.7500  -8.2500 Du        
  14401 ****       -12.2500 -16.7500  -8.0000 Du        
  14402 ****       -12.2500 -16.5000  -9.2500 Du        
  14403 ****       -12.2500 -16.5000  -9.0000 Du        
  14404 ****       -12.2500 -16.5000  -8.7500 Du        
  14405 ****       -12.2500 -16.5000  -8.5000 Du        
  14406 ****       -12.2500 -16.5000  -8.2500 Du        
  14407 ****       -12.2500 -16.5000  -8.0000 Du        
  14408 ****       -12.2500 -16.5000  -7.7500 Du        
  14409 ****       -12.2500 -16.2500  -9.5000 Du        
  14410 ****       -12.2500 -16.2500  -9.2500 Du        
  14411 ****       -12.2500 -16.2500  -9.0000 Du        
  14412 ****       -12.2500 -16.2500  -8.7500 Du        
  14413 ****       -12.2500 -16.2500  -8.5000 Du        
  14414 ****       -12.2500 -16.2500  -8.2500 Du        
  14415 ****       -12.2500 -16.2500  -8.0000 Du        
  14416 ****       -12.2500 -16.2500  -7.7500 Du        
  14417 ****       -12.2500 -16.0000 -28.0000 Du        
  14418 ****       -12.2500 -16.0000 -27.7500 Du        
  14419 ****       -12.2500 -16.0000  -9.5000 Du        
  14420 ****       -12.2500 -16.0000  -9.2500 Du        
  14421 ****       -12.2500 -16.0000  -9.0000 Du        
  14422 ****       -12.2500 -16.0000  -8.7500 Du        
  14423 ****       -12.2500 -16.0000  -8.5000 Du        
  14424 ****       -12.2500 -16.0000  -8.2500 Du        
  14425 ****       -12.2500 -16.0000  -8.0000 Du        
  14426 ****       -12.2500 -15.7500 -28.2500 Du        
  14427 ****       -12.2500 -15.7500 -28.0000 Du        
  14428 ****       -12.2500 -15.7500 -27.7500 Du        
  14429 ****       -12.2500 -15.7500 -27.5000 Du        
  14430 ****       -12.2500 -15.7500  -9.5000 Du        
  14431 ****       -12.2500 -15.7500  -9.2500 Du        
  14432 ****       -12.2500 -15.7500  -9.0000 Du        
  14433 ****       -12.2500 -15.7500  -8.7500 Du        
  14434 ****       -12.2500 -15.7500  -8.5000 Du        
  14435 ****       -12.2500 -15.7500  -8.2500 Du        
  14436 ****       -12.2500 -15.7500  -8.0000 Du        
  14437 ****       -12.2500 -15.5000 -27.7500 Du        
  14438 ****       -12.2500 -15.5000  -9.5000 Du        
  14439 ****       -12.2500 -15.5000  -9.2500 Du        
  14440 ****       -12.2500 -15.5000  -9.0000 Du        
  14441 ****       -12.2500 -15.5000  -8.7500 Du        
  14442 ****       -12.2500 -15.5000  -8.5000 Du        
  14443 ****       -12.2500 -15.5000  -8.2500 Du        
  14444 ****       -12.2500 -15.2500  -9.5000 Du        
  14445 ****       -12.2500 -15.2500  -9.2500 Du        
  14446 ****       -12.2500 -15.2500  -9.0000 Du        
  14447 ****       -12.2500 -15.2500  -8.7500 Du        
  14448 ****       -12.2500 -15.2500  -8.5000 Du        
  14449 ****       -12.2500 -15.0000  -9.5000 Du        
  14450 ****       -12.2500 -15.0000  -9.2500 Du        
  14451 ****       -12.2500 -15.0000  -9.0000 Du        
  14452 ****       -12.2500 -15.0000  -8.7500 Du        
  14453 ****       -12.2500 -15.0000  -8.5000 Du        
  14454 ****       -12.2500 -14.7500  -9.5000 Du        
  14455 ****       -12.2500 -14.7500  -9.2500 Du        
  14456 ****       -12.2500 -14.7500  -9.0000 Du        
  14457 ****       -12.2500 -14.7500  -8.7500 Du        
  14458 ****       -12.2500 -14.7500  -8.5000 Du        
  14459 ****       -12.2500 -14.5000  -9.7500 Du        
  14460 ****       -12.2500 -14.5000  -9.5000 Du        
  14461 ****       -12.2500 -14.5000  -9.2500 Du        
  14462 ****       -12.2500 -14.5000  -9.0000 Du        
  14463 ****       -12.2500 -14.5000  -8.7500 Du        
  14464 ****       -12.2500 -14.5000  -8.5000 Du        
  14465 ****       -12.2500 -14.2500 -10.0000 Du        
  14466 ****       -12.2500 -14.2500  -9.7500 Du        
  14467 ****       -12.2500 -14.2500  -9.5000 Du        
  14468 ****       -12.2500 -14.2500  -9.2500 Du        
  14469 ****       -12.2500 -14.2500  -9.0000 Du        
  14470 ****       -12.2500 -14.2500  -8.7500 Du        
  14471 ****       -12.2500 -14.2500  -8.5000 Du        
  14472 ****       -12.2500 -14.0000 -10.0000 Du        
  14473 ****       -12.2500 -14.0000  -9.7500 Du        
  14474 ****       -12.2500 -14.0000  -9.5000 Du        
  14475 ****       -12.2500 -14.0000  -9.2500 Du        
  14476 ****       -12.2500 -14.0000  -9.0000 Du        
  14477 ****       -12.2500 -14.0000  -8.7500 Du        
  14478 ****       -12.2500 -14.0000  -8.5000 Du        
  14479 ****       -12.2500 -13.7500 -10.2500 Du        
  14480 ****       -12.2500 -13.7500 -10.0000 Du        
  14481 ****       -12.2500 -13.7500  -9.7500 Du        
  14482 ****       -12.2500 -13.7500  -9.5000 Du        
  14483 ****       -12.2500 -13.7500  -9.2500 Du        
  14484 ****       -12.2500 -13.7500  -9.0000 Du        
  14485 ****       -12.2500 -13.7500  -8.7500 Du        
  14486 ****       -12.2500 -13.5000 -10.2500 Du        
  14487 ****       -12.2500 -13.5000 -10.0000 Du        
  14488 ****       -12.2500 -13.5000  -9.7500 Du        
  14489 ****       -12.2500 -13.5000  -9.5000 Du        
  14490 ****       -12.2500 -13.5000  -9.2500 Du        
  14491 ****       -12.2500 -13.5000  -9.0000 Du        
  14492 ****       -12.2500 -13.5000  -8.7500 Du        
  14493 ****       -12.2500 -13.2500 -10.5000 Du        
  14494 ****       -12.2500 -13.2500 -10.2500 Du        
  14495 ****       -12.2500 -13.2500 -10.0000 Du        
  14496 ****       -12.2500 -13.2500  -9.7500 Du        
  14497 ****       -12.2500 -13.2500  -9.5000 Du        
  14498 ****       -12.2500 -13.2500  -9.2500 Du        
  14499 ****       -12.2500 -13.2500  -9.0000 Du        
  14500 ****       -12.2500 -13.0000 -10.5000 Du        
  14501 ****       -12.2500 -13.0000 -10.2500 Du        
  14502 ****       -12.2500 -13.0000 -10.0000 Du        
  14503 ****       -12.2500 -13.0000  -9.7500 Du        
  14504 ****       -12.2500 -13.0000  -9.5000 Du        
  14505 ****       -12.2500  -9.0000 -12.2500 Du        
  14506 ****       -12.2500  -8.7500 -12.7500 Du        
  14507 ****       -12.2500  -8.7500 -12.5000 Du        
  14508 ****       -12.2500  -8.7500 -12.2500 Du        
  14509 ****       -12.2500  -8.5000 -12.7500 Du        
  14510 ****       -12.2500  -8.5000 -12.5000 Du        
  14511 ****       -12.2500  -8.5000 -12.2500 Du        
  14512 ****       -12.2500  -8.5000 -12.0000 Du        
  14513 ****       -12.2500  -8.2500 -12.7500 Du        
  14514 ****       -12.2500  -8.2500 -12.5000 Du        
  14515 ****       -12.2500  -8.2500 -12.2500 Du        
  14516 ****       -12.2500  -8.2500 -12.0000 Du        
  14517 ****       -12.2500  -8.0000 -13.0000 Du        
  14518 ****       -12.2500  -8.0000 -12.7500 Du        
  14519 ****       -12.2500  -8.0000 -12.5000 Du        
  14520 ****       -12.2500  -8.0000 -12.2500 Du        
  14521 ****       -12.2500  -8.0000 -12.0000 Du        
  14522 ****       -12.2500  -7.7500 -13.0000 Du        
  14523 ****       -12.2500  -7.7500 -12.7500 Du        
  14524 ****       -12.2500  -7.7500 -12.5000 Du        
  14525 ****       -12.2500  -7.7500 -12.2500 Du        
  14526 ****       -12.2500  -7.5000 -15.0000 Du        
  14527 ****       -12.2500  -7.5000 -14.7500 Du        
  14528 ****       -12.2500  -7.5000 -14.5000 Du        
  14529 ****       -12.2500  -7.5000 -14.2500 Du        
  14530 ****       -12.2500  -7.5000 -14.0000 Du        
  14531 ****       -12.2500  -7.5000 -13.7500 Du        
  14532 ****       -12.2500  -7.5000 -13.5000 Du        
  14533 ****       -12.2500  -7.5000 -13.2500 Du        
  14534 ****       -12.2500  -7.5000 -13.0000 Du        
  14535 ****       -12.2500  -7.5000 -12.7500 Du        
  14536 ****       -12.2500  -7.5000 -12.5000 Du        
  14537 ****       -12.2500  -7.2500 -15.5000 Du        
  14538 ****       -12.2500  -7.2500 -15.2500 Du        
  14539 ****       -12.2500  -7.2500 -15.0000 Du        
  14540 ****       -12.2500  -7.2500 -14.7500 Du        
  14541 ****       -12.2500  -7.2500 -14.5000 Du        
  14542 ****       -12.2500  -7.2500 -14.2500 Du        
  14543 ****       -12.2500  -7.2500 -14.0000 Du        
  14544 ****       -12.2500  -7.2500 -13.7500 Du        
  14545 ****       -12.2500  -7.2500 -13.5000 Du        
  14546 ****       -12.2500  -7.2500 -13.2500 Du        
  14547 ****       -12.2500  -7.2500 -13.0000 Du        
  14548 ****       -12.2500  -7.2500 -12.7500 Du        
  14549 ****       -12.2500  -7.2500 -12.5000 Du        
  14550 ****       -12.2500  -7.0000 -15.5000 Du        
  14551 ****       -12.2500  -7.0000 -15.2500 Du        
  14552 ****       -12.2500  -7.0000 -15.0000 Du        
  14553 ****       -12.2500  -7.0000 -14.7500 Du        
  14554 ****       -12.2500  -7.0000 -14.5000 Du        
  14555 ****       -12.2500  -7.0000 -14.2500 Du        
  14556 ****       -12.2500  -7.0000 -14.0000 Du        
  14557 ****       -12.2500  -7.0000 -13.7500 Du        
  14558 ****       -12.2500  -7.0000 -13.5000 Du        
  14559 ****       -12.2500  -7.0000 -13.2500 Du        
  14560 ****       -12.2500  -7.0000 -13.0000 Du        
  14561 ****       -12.2500  -7.0000 -12.7500 Du        
  14562 ****       -12.2500  -6.7500 -15.5000 Du        
  14563 ****       -12.2500  -6.7500 -15.2500 Du        
  14564 ****       -12.2500  -6.7500 -15.0000 Du        
  14565 ****       -12.2500  -6.7500 -14.7500 Du        
  14566 ****       -12.2500  -6.7500 -14.5000 Du        
  14567 ****       -12.2500  -6.7500 -14.2500 Du        
  14568 ****       -12.2500  -6.7500 -14.0000 Du        
  14569 ****       -12.2500  -6.7500 -13.7500 Du        
  14570 ****       -12.2500  -6.7500 -13.5000 Du        
  14571 ****       -12.2500  -6.7500 -13.2500 Du        
  14572 ****       -12.2500  -6.7500 -13.0000 Du        
  14573 ****       -12.2500  -6.5000 -16.5000 Du        
  14574 ****       -12.2500  -6.5000 -16.2500 Du        
  14575 ****       -12.2500  -6.5000 -16.0000 Du        
  14576 ****       -12.2500  -6.5000 -13.5000 Du        
  14577 ****       -12.2500  -6.2500 -17.2500 Du        
  14578 ****       -12.2500  -6.2500 -17.0000 Du        
  14579 ****       -12.2500  -6.2500 -16.7500 Du        
  14580 ****       -12.2500  -6.2500 -16.5000 Du        
  14581 ****       -12.2500  -6.2500 -16.2500 Du        
  14582 ****       -12.2500  -6.0000 -17.5000 Du        
  14583 ****       -12.2500  -6.0000 -17.2500 Du        
  14584 ****       -12.2500  -6.0000 -17.0000 Du        
  14585 ****       -12.2500  -6.0000 -16.7500 Du        
  14586 ****       -12.2500  -5.7500 -17.5000 Du        
  14587 ****       -12.2500  -5.7500 -17.2500 Du        
  14588 ****       -12.2500  -5.7500 -17.0000 Du        
  14589 ****       -12.2500  -5.5000 -18.2500 Du        
  14590 ****       -12.2500  -5.5000 -18.0000 Du        
  14591 ****       -12.2500  -5.5000 -17.7500 Du        
  14592 ****       -12.2500  -5.5000 -17.5000 Du        
  14593 ****       -12.2500  -5.5000 -17.2500 Du        
  14594 ****       -12.2500  -5.5000 -17.0000 Du        
  14595 ****       -12.2500  -5.2500 -19.0000 Du        
  14596 ****       -12.2500  -5.2500 -18.7500 Du        
  14597 ****       -12.2500  -5.2500 -18.5000 Du        
  14598 ****       -12.2500  -5.2500 -18.2500 Du        
  14599 ****       -12.2500  -5.2500 -18.0000 Du        
  14600 ****       -12.2500  -5.2500 -17.7500 Du        
  14601 ****       -12.2500  -5.2500 -17.5000 Du        
  14602 ****       -12.2500  -5.2500 -17.2500 Du        
  14603 ****       -12.2500  -5.2500 -17.0000 Du        
  14604 ****       -12.2500  -5.0000 -19.0000 Du        
  14605 ****       -12.2500  -5.0000 -18.7500 Du        
  14606 ****       -12.2500  -5.0000 -18.5000 Du        
  14607 ****       -12.2500  -5.0000 -18.2500 Du        
  14608 ****       -12.2500  -5.0000 -18.0000 Du        
  14609 ****       -12.2500  -5.0000 -17.7500 Du        
  14610 ****       -12.2500  -5.0000 -17.5000 Du        
  14611 ****       -12.2500  -5.0000 -17.2500 Du        
  14612 ****       -12.2500  -4.7500 -18.7500 Du        
  14613 ****       -12.2500  -4.7500 -18.5000 Du        
  14614 ****       -12.2500  -4.7500 -18.2500 Du        
  14615 ****       -12.2500  -4.7500 -18.0000 Du        
  14616 ****       -12.2500  -4.7500 -17.7500 Du        
  14617 ****       -12.2500  -4.7500 -17.5000 Du        
  14618 ****       -12.2500  -4.7500 -17.2500 Du        
  14619 ****       -12.2500  -4.5000 -18.2500 Du        
  14620 ****       -12.2500  -4.5000 -18.0000 Du        
  14621 ****       -12.2500  -4.5000 -17.7500 Du        
  14622 ****       -12.2500  -4.5000 -17.5000 Du        
  14623 ****       -12.2500  -4.2500 -18.0000 Du        
  14624 ****       -12.2500  -4.2500 -17.7500 Du        
  14625 ****       -12.2500  -4.2500 -17.5000 Du        
  14626 ****       -12.0000 -26.0000 -27.7500 Du        
  14627 ****       -12.0000 -25.7500 -27.7500 Du        
  14628 ****       -12.0000 -25.5000 -28.2500 Du        
  14629 ****       -12.0000 -25.5000 -28.0000 Du        
  14630 ****       -12.0000 -25.5000 -27.7500 Du        
  14631 ****       -12.0000 -25.2500 -28.2500 Du        
  14632 ****       -12.0000 -25.2500 -28.0000 Du        
  14633 ****       -12.0000 -25.2500 -27.7500 Du        
  14634 ****       -12.0000 -25.0000 -28.7500 Du        
  14635 ****       -12.0000 -25.0000 -28.5000 Du        
  14636 ****       -12.0000 -25.0000 -28.2500 Du        
  14637 ****       -12.0000 -25.0000 -28.0000 Du        
  14638 ****       -12.0000 -25.0000 -27.7500 Du        
  14639 ****       -12.0000 -24.7500 -28.7500 Du        
  14640 ****       -12.0000 -24.7500 -28.5000 Du        
  14641 ****       -12.0000 -24.7500 -28.2500 Du        
  14642 ****       -12.0000 -24.7500 -28.0000 Du        
  14643 ****       -12.0000 -24.7500 -27.7500 Du        
  14644 ****       -12.0000 -24.5000 -29.2500 Du        
  14645 ****       -12.0000 -24.5000 -29.0000 Du        
  14646 ****       -12.0000 -24.5000 -28.7500 Du        
  14647 ****       -12.0000 -24.5000 -28.5000 Du        
  14648 ****       -12.0000 -24.5000 -28.2500 Du        
  14649 ****       -12.0000 -24.5000 -28.0000 Du        
  14650 ****       -12.0000 -24.5000 -27.7500 Du        
  14651 ****       -12.0000 -24.2500 -29.2500 Du        
  14652 ****       -12.0000 -24.2500 -29.0000 Du        
  14653 ****       -12.0000 -24.2500 -28.7500 Du        
  14654 ****       -12.0000 -24.2500 -28.5000 Du        
  14655 ****       -12.0000 -24.2500 -28.2500 Du        
  14656 ****       -12.0000 -24.2500 -28.0000 Du        
  14657 ****       -12.0000 -24.2500 -27.7500 Du        
  14658 ****       -12.0000 -24.0000 -29.7500 Du        
  14659 ****       -12.0000 -24.0000 -29.5000 Du        
  14660 ****       -12.0000 -24.0000 -29.2500 Du        
  14661 ****       -12.0000 -24.0000 -29.0000 Du        
  14662 ****       -12.0000 -24.0000 -28.7500 Du        
  14663 ****       -12.0000 -24.0000 -28.5000 Du        
  14664 ****       -12.0000 -24.0000 -28.2500 Du        
  14665 ****       -12.0000 -24.0000 -28.0000 Du        
  14666 ****       -12.0000 -24.0000 -27.7500 Du        
  14667 ****       -12.0000 -23.7500 -29.7500 Du        
  14668 ****       -12.0000 -23.7500 -29.5000 Du        
  14669 ****       -12.0000 -23.7500 -29.2500 Du        
  14670 ****       -12.0000 -23.7500 -29.0000 Du        
  14671 ****       -12.0000 -23.7500 -28.7500 Du        
  14672 ****       -12.0000 -23.7500 -28.5000 Du        
  14673 ****       -12.0000 -23.7500 -28.2500 Du        
  14674 ****       -12.0000 -23.7500 -28.0000 Du        
  14675 ****       -12.0000 -23.7500 -27.7500 Du        
  14676 ****       -12.0000 -23.5000 -29.7500 Du        
  14677 ****       -12.0000 -23.5000 -29.5000 Du        
  14678 ****       -12.0000 -23.5000 -29.2500 Du        
  14679 ****       -12.0000 -23.5000 -29.0000 Du        
  14680 ****       -12.0000 -23.5000 -28.7500 Du        
  14681 ****       -12.0000 -23.5000 -28.5000 Du        
  14682 ****       -12.0000 -23.5000 -28.2500 Du        
  14683 ****       -12.0000 -23.5000 -28.0000 Du        
  14684 ****       -12.0000 -23.5000 -27.7500 Du        
  14685 ****       -12.0000 -23.2500 -29.5000 Du        
  14686 ****       -12.0000 -23.2500 -29.2500 Du        
  14687 ****       -12.0000 -23.2500 -29.0000 Du        
  14688 ****       -12.0000 -23.2500 -28.7500 Du        
  14689 ****       -12.0000 -23.2500 -28.5000 Du        
  14690 ****       -12.0000 -23.2500 -28.2500 Du        
  14691 ****       -12.0000 -23.2500 -28.0000 Du        
  14692 ****       -12.0000 -23.2500 -27.7500 Du        
  14693 ****       -12.0000 -23.2500 -27.5000 Du        
  14694 ****       -12.0000 -23.0000 -29.2500 Du        
  14695 ****       -12.0000 -23.0000 -29.0000 Du        
  14696 ****       -12.0000 -23.0000 -28.7500 Du        
  14697 ****       -12.0000 -23.0000 -28.5000 Du        
  14698 ****       -12.0000 -23.0000 -28.2500 Du        
  14699 ****       -12.0000 -23.0000 -28.0000 Du        
  14700 ****       -12.0000 -23.0000 -27.7500 Du        
  14701 ****       -12.0000 -23.0000 -27.5000 Du        
  14702 ****       -12.0000 -22.7500 -28.7500 Du        
  14703 ****       -12.0000 -22.7500 -28.5000 Du        
  14704 ****       -12.0000 -22.7500 -28.2500 Du        
  14705 ****       -12.0000 -22.7500 -28.0000 Du        
  14706 ****       -12.0000 -22.7500 -27.7500 Du        
  14707 ****       -12.0000 -22.7500 -27.5000 Du        
  14708 ****       -12.0000 -22.7500 -27.2500 Du        
  14709 ****       -12.0000 -22.5000 -28.5000 Du        
  14710 ****       -12.0000 -22.5000 -28.2500 Du        
  14711 ****       -12.0000 -22.5000 -28.0000 Du        
  14712 ****       -12.0000 -22.5000 -27.7500 Du        
  14713 ****       -12.0000 -22.5000 -27.5000 Du        
  14714 ****       -12.0000 -22.5000 -27.2500 Du        
  14715 ****       -12.0000 -22.2500 -28.2500 Du        
  14716 ****       -12.0000 -22.2500 -28.0000 Du        
  14717 ****       -12.0000 -22.2500 -27.7500 Du        
  14718 ****       -12.0000 -22.2500 -27.5000 Du        
  14719 ****       -12.0000 -22.2500 -27.2500 Du        
  14720 ****       -12.0000 -22.2500 -27.0000 Du        
  14721 ****       -12.0000 -22.0000 -27.7500 Du        
  14722 ****       -12.0000 -22.0000 -27.5000 Du        
  14723 ****       -12.0000 -22.0000 -27.2500 Du        
  14724 ****       -12.0000 -22.0000 -27.0000 Du        
  14725 ****       -12.0000 -22.0000 -26.7500 Du        
  14726 ****       -12.0000 -22.0000 -15.7500 Du        
  14727 ****       -12.0000 -21.7500 -27.2500 Du        
  14728 ****       -12.0000 -21.7500 -27.0000 Du        
  14729 ****       -12.0000 -21.7500 -26.7500 Du        
  14730 ****       -12.0000 -21.7500 -16.0000 Du        
  14731 ****       -12.0000 -21.7500 -15.7500 Du        
  14732 ****       -12.0000 -21.7500 -15.5000 Du        
  14733 ****       -12.0000 -21.5000 -16.0000 Du        
  14734 ****       -12.0000 -21.5000 -15.7500 Du        
  14735 ****       -12.0000 -21.5000 -15.5000 Du        
  14736 ****       -12.0000 -21.5000 -15.2500 Du        
  14737 ****       -12.0000 -21.2500 -16.0000 Du        
  14738 ****       -12.0000 -21.2500 -15.7500 Du        
  14739 ****       -12.0000 -21.2500 -15.5000 Du        
  14740 ****       -12.0000 -21.2500 -15.2500 Du        
  14741 ****       -12.0000 -21.0000 -16.0000 Du        
  14742 ****       -12.0000 -21.0000 -15.7500 Du        
  14743 ****       -12.0000 -21.0000 -15.5000 Du        
  14744 ****       -12.0000 -20.7500 -16.0000 Du        
  14745 ****       -12.0000 -20.7500 -15.7500 Du        
  14746 ****       -12.0000 -20.5000 -16.0000 Du        
  14747 ****       -12.0000 -20.5000 -15.7500 Du        
  14748 ****       -12.0000 -17.2500  -8.5000 Du        
  14749 ****       -12.0000 -17.2500  -8.2500 Du        
  14750 ****       -12.0000 -17.0000  -9.0000 Du        
  14751 ****       -12.0000 -17.0000  -8.7500 Du        
  14752 ****       -12.0000 -17.0000  -8.5000 Du        
  14753 ****       -12.0000 -17.0000  -8.2500 Du        
  14754 ****       -12.0000 -17.0000  -8.0000 Du        
  14755 ****       -12.0000 -16.7500  -9.2500 Du        
  14756 ****       -12.0000 -16.7500  -9.0000 Du        
  14757 ****       -12.0000 -16.7500  -8.7500 Du        
  14758 ****       -12.0000 -16.7500  -8.5000 Du        
  14759 ****       -12.0000 -16.7500  -8.2500 Du        
  14760 ****       -12.0000 -16.7500  -8.0000 Du        
  14761 ****       -12.0000 -16.5000  -9.2500 Du        
  14762 ****       -12.0000 -16.5000  -9.0000 Du        
  14763 ****       -12.0000 -16.5000  -8.7500 Du        
  14764 ****       -12.0000 -16.5000  -8.5000 Du        
  14765 ****       -12.0000 -16.5000  -8.2500 Du        
  14766 ****       -12.0000 -16.5000  -8.0000 Du        
  14767 ****       -12.0000 -16.2500  -9.2500 Du        
  14768 ****       -12.0000 -16.2500  -9.0000 Du        
  14769 ****       -12.0000 -16.2500  -8.7500 Du        
  14770 ****       -12.0000 -16.2500  -8.5000 Du        
  14771 ****       -12.0000 -16.2500  -8.2500 Du        
  14772 ****       -12.0000 -16.2500  -8.0000 Du        
  14773 ****       -12.0000 -16.0000 -28.0000 Du        
  14774 ****       -12.0000 -16.0000 -27.7500 Du        
  14775 ****       -12.0000 -16.0000  -9.2500 Du        
  14776 ****       -12.0000 -16.0000  -9.0000 Du        
  14777 ****       -12.0000 -16.0000  -8.7500 Du        
  14778 ****       -12.0000 -16.0000  -8.5000 Du        
  14779 ****       -12.0000 -16.0000  -8.2500 Du        
  14780 ****       -12.0000 -16.0000  -8.0000 Du        
  14781 ****       -12.0000 -15.7500 -28.2500 Du        
  14782 ****       -12.0000 -15.7500 -28.0000 Du        
  14783 ****       -12.0000 -15.7500 -27.7500 Du        
  14784 ****       -12.0000 -15.7500 -27.5000 Du        
  14785 ****       -12.0000 -15.7500  -9.2500 Du        
  14786 ****       -12.0000 -15.7500  -9.0000 Du        
  14787 ****       -12.0000 -15.7500  -8.7500 Du        
  14788 ****       -12.0000 -15.7500  -8.5000 Du        
  14789 ****       -12.0000 -15.7500  -8.2500 Du        
  14790 ****       -12.0000 -15.5000 -28.0000 Du        
  14791 ****       -12.0000 -15.5000 -27.7500 Du        
  14792 ****       -12.0000 -15.5000  -9.2500 Du        
  14793 ****       -12.0000 -15.5000  -9.0000 Du        
  14794 ****       -12.0000 -15.5000  -8.7500 Du        
  14795 ****       -12.0000 -15.5000  -8.5000 Du        
  14796 ****       -12.0000 -15.2500 -27.7500 Du        
  14797 ****       -12.0000 -15.2500  -9.5000 Du        
  14798 ****       -12.0000 -15.2500  -9.2500 Du        
  14799 ****       -12.0000 -15.2500  -9.0000 Du        
  14800 ****       -12.0000 -15.2500  -8.7500 Du        
  14801 ****       -12.0000 -15.2500  -8.5000 Du        
  14802 ****       -12.0000 -15.0000  -9.5000 Du        
  14803 ****       -12.0000 -15.0000  -9.2500 Du        
  14804 ****       -12.0000 -15.0000  -9.0000 Du        
  14805 ****       -12.0000 -15.0000  -8.7500 Du        
  14806 ****       -12.0000 -15.0000  -8.5000 Du        
  14807 ****       -12.0000 -14.7500  -9.5000 Du        
  14808 ****       -12.0000 -14.7500  -9.2500 Du        
  14809 ****       -12.0000 -14.7500  -9.0000 Du        
  14810 ****       -12.0000 -14.7500  -8.7500 Du        
  14811 ****       -12.0000 -14.7500  -8.5000 Du        
  14812 ****       -12.0000 -14.5000  -9.7500 Du        
  14813 ****       -12.0000 -14.5000  -9.5000 Du        
  14814 ****       -12.0000 -14.5000  -9.2500 Du        
  14815 ****       -12.0000 -14.5000  -9.0000 Du        
  14816 ****       -12.0000 -14.5000  -8.7500 Du        
  14817 ****       -12.0000 -14.2500  -9.7500 Du        
  14818 ****       -12.0000 -14.2500  -9.5000 Du        
  14819 ****       -12.0000 -14.2500  -9.2500 Du        
  14820 ****       -12.0000 -14.2500  -9.0000 Du        
  14821 ****       -12.0000 -14.2500  -8.7500 Du        
  14822 ****       -12.0000 -14.0000 -10.0000 Du        
  14823 ****       -12.0000 -14.0000  -9.7500 Du        
  14824 ****       -12.0000 -14.0000  -9.5000 Du        
  14825 ****       -12.0000 -14.0000  -9.2500 Du        
  14826 ****       -12.0000 -14.0000  -9.0000 Du        
  14827 ****       -12.0000 -14.0000  -8.7500 Du        
  14828 ****       -12.0000 -13.7500 -10.2500 Du        
  14829 ****       -12.0000 -13.7500 -10.0000 Du        
  14830 ****       -12.0000 -13.7500  -9.7500 Du        
  14831 ****       -12.0000 -13.7500  -9.5000 Du        
  14832 ****       -12.0000 -13.7500  -9.2500 Du        
  14833 ****       -12.0000 -13.7500  -9.0000 Du        
  14834 ****       -12.0000 -13.7500  -8.7500 Du        
  14835 ****       -12.0000 -13.5000 -10.2500 Du        
  14836 ****       -12.0000 -13.5000 -10.0000 Du        
  14837 ****       -12.0000 -13.5000  -9.7500 Du        
  14838 ****       -12.0000 -13.5000  -9.5000 Du        
  14839 ****       -12.0000 -13.5000  -9.2500 Du        
  14840 ****       -12.0000 -13.5000  -9.0000 Du        
  14841 ****       -12.0000 -13.5000  -8.7500 Du        
  14842 ****       -12.0000 -13.2500 -10.5000 Du        
  14843 ****       -12.0000 -13.2500 -10.2500 Du        
  14844 ****       -12.0000 -13.2500 -10.0000 Du        
  14845 ****       -12.0000 -13.2500  -9.7500 Du        
  14846 ****       -12.0000 -13.2500  -9.5000 Du        
  14847 ****       -12.0000 -13.2500  -9.2500 Du        
  14848 ****       -12.0000 -13.2500  -9.0000 Du        
  14849 ****       -12.0000 -13.0000 -10.7500 Du        
  14850 ****       -12.0000 -13.0000 -10.5000 Du        
  14851 ****       -12.0000 -13.0000 -10.2500 Du        
  14852 ****       -12.0000 -13.0000 -10.0000 Du        
  14853 ****       -12.0000 -13.0000  -9.7500 Du        
  14854 ****       -12.0000 -13.0000  -9.5000 Du        
  14855 ****       -12.0000 -13.0000  -9.2500 Du        
  14856 ****       -12.0000 -12.7500 -10.7500 Du        
  14857 ****       -12.0000 -12.7500 -10.5000 Du        
  14858 ****       -12.0000 -12.7500 -10.2500 Du        
  14859 ****       -12.0000 -12.7500 -10.0000 Du        
  14860 ****       -12.0000 -12.7500  -9.7500 Du        
  14861 ****       -12.0000 -12.7500  -9.5000 Du        
  14862 ****       -12.0000  -9.2500 -12.7500 Du        
  14863 ****       -12.0000  -9.2500 -12.5000 Du        
  14864 ****       -12.0000  -9.0000 -13.0000 Du        
  14865 ****       -12.0000  -9.0000 -12.7500 Du        
  14866 ****       -12.0000  -9.0000 -12.5000 Du        
  14867 ****       -12.0000  -9.0000 -12.2500 Du        
  14868 ****       -12.0000  -9.0000 -12.0000 Du        
  14869 ****       -12.0000  -8.7500 -13.2500 Du        
  14870 ****       -12.0000  -8.7500 -13.0000 Du        
  14871 ****       -12.0000  -8.7500 -12.7500 Du        
  14872 ****       -12.0000  -8.7500 -12.5000 Du        
  14873 ****       -12.0000  -8.7500 -12.2500 Du        
  14874 ****       -12.0000  -8.7500 -12.0000 Du        
  14875 ****       -12.0000  -8.5000 -13.5000 Du        
  14876 ****       -12.0000  -8.5000 -13.2500 Du        
  14877 ****       -12.0000  -8.5000 -13.0000 Du        
  14878 ****       -12.0000  -8.5000 -12.7500 Du        
  14879 ****       -12.0000  -8.5000 -12.5000 Du        
  14880 ****       -12.0000  -8.5000 -12.2500 Du        
  14881 ****       -12.0000  -8.5000 -12.0000 Du        
  14882 ****       -12.0000  -8.5000 -11.7500 Du        
  14883 ****       -12.0000  -8.2500 -13.7500 Du        
  14884 ****       -12.0000  -8.2500 -13.5000 Du        
  14885 ****       -12.0000  -8.2500 -13.2500 Du        
  14886 ****       -12.0000  -8.2500 -13.0000 Du        
  14887 ****       -12.0000  -8.2500 -12.7500 Du        
  14888 ****       -12.0000  -8.2500 -12.5000 Du        
  14889 ****       -12.0000  -8.2500 -12.2500 Du        
  14890 ****       -12.0000  -8.2500 -12.0000 Du        
  14891 ****       -12.0000  -8.2500 -11.7500 Du        
  14892 ****       -12.0000  -8.0000 -14.2500 Du        
  14893 ****       -12.0000  -8.0000 -14.0000 Du        
  14894 ****       -12.0000  -8.0000 -13.7500 Du        
  14895 ****       -12.0000  -8.0000 -13.5000 Du        
  14896 ****       -12.0000  -8.0000 -13.2500 Du        
  14897 ****       -12.0000  -8.0000 -13.0000 Du        
  14898 ****       -12.0000  -8.0000 -12.7500 Du        
  14899 ****       -12.0000  -8.0000 -12.5000 Du        
  14900 ****       -12.0000  -8.0000 -12.2500 Du        
  14901 ****       -12.0000  -8.0000 -12.0000 Du        
  14902 ****       -12.0000  -8.0000 -11.7500 Du        
  14903 ****       -12.0000  -7.7500 -14.5000 Du        
  14904 ****       -12.0000  -7.7500 -14.2500 Du        
  14905 ****       -12.0000  -7.7500 -14.0000 Du        
  14906 ****       -12.0000  -7.7500 -13.7500 Du        
  14907 ****       -12.0000  -7.7500 -13.5000 Du        
  14908 ****       -12.0000  -7.7500 -13.2500 Du        
  14909 ****       -12.0000  -7.7500 -13.0000 Du        
  14910 ****       -12.0000  -7.7500 -12.7500 Du        
  14911 ****       -12.0000  -7.7500 -12.5000 Du        
  14912 ****       -12.0000  -7.7500 -12.2500 Du        
  14913 ****       -12.0000  -7.7500 -12.0000 Du        
  14914 ****       -12.0000  -7.5000 -15.0000 Du        
  14915 ****       -12.0000  -7.5000 -14.7500 Du        
  14916 ****       -12.0000  -7.5000 -14.5000 Du        
  14917 ****       -12.0000  -7.5000 -14.2500 Du        
  14918 ****       -12.0000  -7.5000 -14.0000 Du        
  14919 ****       -12.0000  -7.5000 -13.7500 Du        
  14920 ****       -12.0000  -7.5000 -13.5000 Du        
  14921 ****       -12.0000  -7.5000 -13.2500 Du        
  14922 ****       -12.0000  -7.5000 -13.0000 Du        
  14923 ****       -12.0000  -7.5000 -12.7500 Du        
  14924 ****       -12.0000  -7.5000 -12.5000 Du        
  14925 ****       -12.0000  -7.5000 -12.2500 Du        
  14926 ****       -12.0000  -7.2500 -15.5000 Du        
  14927 ****       -12.0000  -7.2500 -15.2500 Du        
  14928 ****       -12.0000  -7.2500 -15.0000 Du        
  14929 ****       -12.0000  -7.2500 -14.7500 Du        
  14930 ****       -12.0000  -7.2500 -14.5000 Du        
  14931 ****       -12.0000  -7.2500 -14.2500 Du        
  14932 ****       -12.0000  -7.2500 -14.0000 Du        
  14933 ****       -12.0000  -7.2500 -13.7500 Du        
  14934 ****       -12.0000  -7.2500 -13.5000 Du        
  14935 ****       -12.0000  -7.2500 -13.2500 Du        
  14936 ****       -12.0000  -7.2500 -13.0000 Du        
  14937 ****       -12.0000  -7.2500 -12.7500 Du        
  14938 ****       -12.0000  -7.2500 -12.5000 Du        
  14939 ****       -12.0000  -7.2500 -12.2500 Du        
  14940 ****       -12.0000  -7.0000 -16.0000 Du        
  14941 ****       -12.0000  -7.0000 -15.7500 Du        
  14942 ****       -12.0000  -7.0000 -15.5000 Du        
  14943 ****       -12.0000  -7.0000 -15.2500 Du        
  14944 ****       -12.0000  -7.0000 -15.0000 Du        
  14945 ****       -12.0000  -7.0000 -14.7500 Du        
  14946 ****       -12.0000  -7.0000 -14.5000 Du        
  14947 ****       -12.0000  -7.0000 -14.2500 Du        
  14948 ****       -12.0000  -7.0000 -14.0000 Du        
  14949 ****       -12.0000  -7.0000 -13.7500 Du        
  14950 ****       -12.0000  -7.0000 -13.5000 Du        
  14951 ****       -12.0000  -7.0000 -13.2500 Du        
  14952 ****       -12.0000  -7.0000 -13.0000 Du        
  14953 ****       -12.0000  -7.0000 -12.7500 Du        
  14954 ****       -12.0000  -7.0000 -12.5000 Du        
  14955 ****       -12.0000  -6.7500 -16.0000 Du        
  14956 ****       -12.0000  -6.7500 -15.7500 Du        
  14957 ****       -12.0000  -6.7500 -15.2500 Du        
  14958 ****       -12.0000  -6.7500 -15.0000 Du        
  14959 ****       -12.0000  -6.7500 -14.7500 Du        
  14960 ****       -12.0000  -6.7500 -14.5000 Du        
  14961 ****       -12.0000  -6.7500 -14.2500 Du        
  14962 ****       -12.0000  -6.7500 -14.0000 Du        
  14963 ****       -12.0000  -6.7500 -13.7500 Du        
  14964 ****       -12.0000  -6.7500 -13.5000 Du        
  14965 ****       -12.0000  -6.7500 -13.2500 Du        
  14966 ****       -12.0000  -6.7500 -13.0000 Du        
  14967 ****       -12.0000  -6.7500 -12.7500 Du        
  14968 ****       -12.0000  -6.5000 -16.5000 Du        
  14969 ****       -12.0000  -6.5000 -16.2500 Du        
  14970 ****       -12.0000  -6.5000 -16.0000 Du        
  14971 ****       -12.0000  -6.5000 -13.5000 Du        
  14972 ****       -12.0000  -6.5000 -13.2500 Du        
  14973 ****       -12.0000  -6.5000 -13.0000 Du        
  14974 ****       -12.0000  -6.2500 -17.2500 Du        
  14975 ****       -12.0000  -6.2500 -17.0000 Du        
  14976 ****       -12.0000  -6.2500 -16.5000 Du        
  14977 ****       -12.0000  -6.0000 -17.5000 Du        
  14978 ****       -12.0000  -6.0000 -17.2500 Du        
  14979 ****       -12.0000  -6.0000 -17.0000 Du        
  14980 ****       -12.0000  -6.0000 -16.7500 Du        
  14981 ****       -12.0000  -5.7500 -18.0000 Du        
  14982 ****       -12.0000  -5.7500 -17.7500 Du        
  14983 ****       -12.0000  -5.7500 -17.5000 Du        
  14984 ****       -12.0000  -5.7500 -17.2500 Du        
  14985 ****       -12.0000  -5.7500 -17.0000 Du        
  14986 ****       -12.0000  -5.5000 -18.2500 Du        
  14987 ****       -12.0000  -5.5000 -18.0000 Du        
  14988 ****       -12.0000  -5.5000 -17.7500 Du        
  14989 ****       -12.0000  -5.5000 -17.5000 Du        
  14990 ****       -12.0000  -5.5000 -17.2500 Du        
  14991 ****       -12.0000  -5.5000 -17.0000 Du        
  14992 ****       -12.0000  -5.2500 -18.7500 Du        
  14993 ****       -12.0000  -5.2500 -18.5000 Du        
  14994 ****       -12.0000  -5.2500 -18.2500 Du        
  14995 ****       -12.0000  -5.2500 -18.0000 Du        
  14996 ****       -12.0000  -5.2500 -17.7500 Du        
  14997 ****       -12.0000  -5.2500 -17.5000 Du        
  14998 ****       -12.0000  -5.2500 -17.2500 Du        
  14999 ****       -12.0000  -5.2500 -17.0000 Du        
  15000 ****       -12.0000  -5.0000 -18.7500 Du        
  15001 ****       -12.0000  -5.0000 -18.5000 Du        
  15002 ****       -12.0000  -5.0000 -18.2500 Du        
  15003 ****       -12.0000  -5.0000 -18.0000 Du        
  15004 ****       -12.0000  -5.0000 -17.7500 Du        
  15005 ****       -12.0000  -5.0000 -17.5000 Du        
  15006 ****       -12.0000  -5.0000 -17.2500 Du        
  15007 ****       -12.0000  -4.7500 -18.5000 Du        
  15008 ****       -12.0000  -4.7500 -18.2500 Du        
  15009 ****       -12.0000  -4.7500 -18.0000 Du        
  15010 ****       -12.0000  -4.7500 -17.7500 Du        
  15011 ****       -12.0000  -4.7500 -17.5000 Du        
  15012 ****       -12.0000  -4.7500 -17.2500 Du        
  15013 ****       -12.0000  -4.5000 -18.2500 Du        
  15014 ****       -12.0000  -4.5000 -18.0000 Du        
  15015 ****       -12.0000  -4.5000 -17.7500 Du        
  15016 ****       -12.0000  -4.5000 -17.5000 Du        
  15017 ****       -12.0000  -4.2500 -17.7500 Du        
  15018 ****       -11.7500 -25.5000 -28.2500 Du        
  15019 ****       -11.7500 -25.5000 -28.0000 Du        
  15020 ****       -11.7500 -25.2500 -28.2500 Du        
  15021 ****       -11.7500 -25.2500 -28.0000 Du        
  15022 ****       -11.7500 -25.0000 -28.7500 Du        
  15023 ****       -11.7500 -25.0000 -28.5000 Du        
  15024 ****       -11.7500 -25.0000 -28.2500 Du        
  15025 ****       -11.7500 -25.0000 -28.0000 Du        
  15026 ****       -11.7500 -24.7500 -28.7500 Du        
  15027 ****       -11.7500 -24.7500 -28.5000 Du        
  15028 ****       -11.7500 -24.7500 -28.2500 Du        
  15029 ****       -11.7500 -24.7500 -28.0000 Du        
  15030 ****       -11.7500 -24.5000 -29.2500 Du        
  15031 ****       -11.7500 -24.5000 -29.0000 Du        
  15032 ****       -11.7500 -24.5000 -28.7500 Du        
  15033 ****       -11.7500 -24.5000 -28.5000 Du        
  15034 ****       -11.7500 -24.5000 -28.2500 Du        
  15035 ****       -11.7500 -24.5000 -28.0000 Du        
  15036 ****       -11.7500 -24.2500 -29.2500 Du        
  15037 ****       -11.7500 -24.2500 -29.0000 Du        
  15038 ****       -11.7500 -24.2500 -28.7500 Du        
  15039 ****       -11.7500 -24.2500 -28.5000 Du        
  15040 ****       -11.7500 -24.2500 -28.2500 Du        
  15041 ****       -11.7500 -24.2500 -28.0000 Du        
  15042 ****       -11.7500 -24.0000 -29.7500 Du        
  15043 ****       -11.7500 -24.0000 -29.5000 Du        
  15044 ****       -11.7500 -24.0000 -29.2500 Du        
  15045 ****       -11.7500 -24.0000 -29.0000 Du        
  15046 ****       -11.7500 -24.0000 -28.7500 Du        
  15047 ****       -11.7500 -24.0000 -28.5000 Du        
  15048 ****       -11.7500 -24.0000 -28.2500 Du        
  15049 ****       -11.7500 -24.0000 -28.0000 Du        
  15050 ****       -11.7500 -23.7500 -29.7500 Du        
  15051 ****       -11.7500 -23.7500 -29.5000 Du        
  15052 ****       -11.7500 -23.7500 -29.2500 Du        
  15053 ****       -11.7500 -23.7500 -29.0000 Du        
  15054 ****       -11.7500 -23.7500 -28.7500 Du        
  15055 ****       -11.7500 -23.7500 -28.5000 Du        
  15056 ****       -11.7500 -23.7500 -28.2500 Du        
  15057 ****       -11.7500 -23.7500 -28.0000 Du        
  15058 ****       -11.7500 -23.5000 -29.7500 Du        
  15059 ****       -11.7500 -23.5000 -29.5000 Du        
  15060 ****       -11.7500 -23.5000 -29.2500 Du        
  15061 ****       -11.7500 -23.5000 -29.0000 Du        
  15062 ****       -11.7500 -23.5000 -28.7500 Du        
  15063 ****       -11.7500 -23.5000 -28.5000 Du        
  15064 ****       -11.7500 -23.5000 -28.2500 Du        
  15065 ****       -11.7500 -23.5000 -28.0000 Du        
  15066 ****       -11.7500 -23.2500 -29.2500 Du        
  15067 ****       -11.7500 -23.2500 -29.0000 Du        
  15068 ****       -11.7500 -23.2500 -28.7500 Du        
  15069 ****       -11.7500 -23.2500 -28.5000 Du        
  15070 ****       -11.7500 -23.2500 -28.2500 Du        
  15071 ****       -11.7500 -23.2500 -28.0000 Du        
  15072 ****       -11.7500 -23.2500 -27.7500 Du        
  15073 ****       -11.7500 -23.0000 -29.2500 Du        
  15074 ****       -11.7500 -23.0000 -29.0000 Du        
  15075 ****       -11.7500 -23.0000 -28.7500 Du        
  15076 ****       -11.7500 -23.0000 -28.5000 Du        
  15077 ****       -11.7500 -23.0000 -28.2500 Du        
  15078 ****       -11.7500 -23.0000 -28.0000 Du        
  15079 ****       -11.7500 -23.0000 -27.7500 Du        
  15080 ****       -11.7500 -22.7500 -28.7500 Du        
  15081 ****       -11.7500 -22.7500 -28.5000 Du        
  15082 ****       -11.7500 -22.7500 -28.2500 Du        
  15083 ****       -11.7500 -22.7500 -28.0000 Du        
  15084 ****       -11.7500 -22.7500 -27.7500 Du        
  15085 ****       -11.7500 -22.7500 -27.5000 Du        
  15086 ****       -11.7500 -22.5000 -28.2500 Du        
  15087 ****       -11.7500 -22.5000 -28.0000 Du        
  15088 ****       -11.7500 -22.5000 -27.7500 Du        
  15089 ****       -11.7500 -22.5000 -27.5000 Du        
  15090 ****       -11.7500 -22.5000 -27.2500 Du        
  15091 ****       -11.7500 -22.2500 -28.0000 Du        
  15092 ****       -11.7500 -22.2500 -27.7500 Du        
  15093 ****       -11.7500 -22.2500 -27.5000 Du        
  15094 ****       -11.7500 -22.2500 -27.2500 Du        
  15095 ****       -11.7500 -22.2500 -27.0000 Du        
  15096 ****       -11.7500 -22.0000 -27.7500 Du        
  15097 ****       -11.7500 -22.0000 -27.5000 Du        
  15098 ****       -11.7500 -22.0000 -27.2500 Du        
  15099 ****       -11.7500 -22.0000 -27.0000 Du        
  15100 ****       -11.7500 -21.7500 -27.0000 Du        
  15101 ****       -11.7500 -21.7500 -26.7500 Du        
  15102 ****       -11.7500 -21.5000 -15.7500 Du        
  15103 ****       -11.7500 -21.5000 -15.5000 Du        
  15104 ****       -11.7500 -21.2500 -16.0000 Du        
  15105 ****       -11.7500 -21.2500 -15.7500 Du        
  15106 ****       -11.7500 -21.2500 -15.5000 Du        
  15107 ****       -11.7500 -21.0000 -16.0000 Du        
  15108 ****       -11.7500 -21.0000 -15.7500 Du        
  15109 ****       -11.7500 -20.7500 -16.0000 Du        
  15110 ****       -11.7500 -20.7500 -15.7500 Du        
  15111 ****       -11.7500 -20.5000 -16.0000 Du        
  15112 ****       -11.7500 -17.2500  -8.5000 Du        
  15113 ****       -11.7500 -17.2500  -8.2500 Du        
  15114 ****       -11.7500 -17.0000  -9.0000 Du        
  15115 ****       -11.7500 -17.0000  -8.7500 Du        
  15116 ****       -11.7500 -17.0000  -8.5000 Du        
  15117 ****       -11.7500 -17.0000  -8.2500 Du        
  15118 ****       -11.7500 -17.0000  -8.0000 Du        
  15119 ****       -11.7500 -16.7500  -9.0000 Du        
  15120 ****       -11.7500 -16.7500  -8.7500 Du        
  15121 ****       -11.7500 -16.7500  -8.5000 Du        
  15122 ****       -11.7500 -16.7500  -8.2500 Du        
  15123 ****       -11.7500 -16.7500  -8.0000 Du        
  15124 ****       -11.7500 -16.5000  -9.0000 Du        
  15125 ****       -11.7500 -16.5000  -8.7500 Du        
  15126 ****       -11.7500 -16.5000  -8.5000 Du        
  15127 ****       -11.7500 -16.5000  -8.2500 Du        
  15128 ****       -11.7500 -16.5000  -8.0000 Du        
  15129 ****       -11.7500 -16.2500  -9.2500 Du        
  15130 ****       -11.7500 -16.2500  -9.0000 Du        
  15131 ****       -11.7500 -16.2500  -8.7500 Du        
  15132 ****       -11.7500 -16.2500  -8.5000 Du        
  15133 ****       -11.7500 -16.2500  -8.2500 Du        
  15134 ****       -11.7500 -16.2500  -8.0000 Du        
  15135 ****       -11.7500 -16.0000  -9.2500 Du        
  15136 ****       -11.7500 -16.0000  -9.0000 Du        
  15137 ****       -11.7500 -16.0000  -8.7500 Du        
  15138 ****       -11.7500 -16.0000  -8.5000 Du        
  15139 ****       -11.7500 -16.0000  -8.2500 Du        
  15140 ****       -11.7500 -15.7500 -28.2500 Du        
  15141 ****       -11.7500 -15.7500 -28.0000 Du        
  15142 ****       -11.7500 -15.7500 -27.7500 Du        
  15143 ****       -11.7500 -15.7500  -9.2500 Du        
  15144 ****       -11.7500 -15.7500  -9.0000 Du        
  15145 ****       -11.7500 -15.7500  -8.7500 Du        
  15146 ****       -11.7500 -15.7500  -8.5000 Du        
  15147 ****       -11.7500 -15.7500  -8.2500 Du        
  15148 ****       -11.7500 -15.5000 -28.0000 Du        
  15149 ****       -11.7500 -15.5000 -27.7500 Du        
  15150 ****       -11.7500 -15.5000  -9.2500 Du        
  15151 ****       -11.7500 -15.5000  -9.0000 Du        
  15152 ****       -11.7500 -15.5000  -8.7500 Du        
  15153 ****       -11.7500 -15.5000  -8.5000 Du        
  15154 ****       -11.7500 -15.2500 -27.7500 Du        
  15155 ****       -11.7500 -15.2500  -9.2500 Du        
  15156 ****       -11.7500 -15.2500  -9.0000 Du        
  15157 ****       -11.7500 -15.2500  -8.7500 Du        
  15158 ****       -11.7500 -15.2500  -8.5000 Du        
  15159 ****       -11.7500 -15.0000  -9.5000 Du        
  15160 ****       -11.7500 -15.0000  -9.2500 Du        
  15161 ****       -11.7500 -15.0000  -9.0000 Du        
  15162 ****       -11.7500 -15.0000  -8.7500 Du        
  15163 ****       -11.7500 -14.7500  -9.5000 Du        
  15164 ****       -11.7500 -14.7500  -9.2500 Du        
  15165 ****       -11.7500 -14.7500  -9.0000 Du        
  15166 ****       -11.7500 -14.7500  -8.7500 Du        
  15167 ****       -11.7500 -14.5000  -9.5000 Du        
  15168 ****       -11.7500 -14.5000  -9.2500 Du        
  15169 ****       -11.7500 -14.5000  -9.0000 Du        
  15170 ****       -11.7500 -14.5000  -8.7500 Du        
  15171 ****       -11.7500 -14.2500  -9.7500 Du        
  15172 ****       -11.7500 -14.2500  -9.5000 Du        
  15173 ****       -11.7500 -14.2500  -9.2500 Du        
  15174 ****       -11.7500 -14.2500  -9.0000 Du        
  15175 ****       -11.7500 -14.2500  -8.7500 Du        
  15176 ****       -11.7500 -14.0000 -10.0000 Du        
  15177 ****       -11.7500 -14.0000  -9.7500 Du        
  15178 ****       -11.7500 -14.0000  -9.5000 Du        
  15179 ****       -11.7500 -14.0000  -9.2500 Du        
  15180 ****       -11.7500 -14.0000  -9.0000 Du        
  15181 ****       -11.7500 -14.0000  -8.7500 Du        
  15182 ****       -11.7500 -13.7500 -10.0000 Du        
  15183 ****       -11.7500 -13.7500  -9.7500 Du        
  15184 ****       -11.7500 -13.7500  -9.5000 Du        
  15185 ****       -11.7500 -13.7500  -9.2500 Du        
  15186 ****       -11.7500 -13.7500  -9.0000 Du        
  15187 ****       -11.7500 -13.7500  -8.7500 Du        
  15188 ****       -11.7500 -13.5000 -10.2500 Du        
  15189 ****       -11.7500 -13.5000 -10.0000 Du        
  15190 ****       -11.7500 -13.5000  -9.7500 Du        
  15191 ****       -11.7500 -13.5000  -9.5000 Du        
  15192 ****       -11.7500 -13.5000  -9.2500 Du        
  15193 ****       -11.7500 -13.5000  -9.0000 Du        
  15194 ****       -11.7500 -13.2500 -10.5000 Du        
  15195 ****       -11.7500 -13.2500 -10.2500 Du        
  15196 ****       -11.7500 -13.2500 -10.0000 Du        
  15197 ****       -11.7500 -13.2500  -9.7500 Du        
  15198 ****       -11.7500 -13.2500  -9.5000 Du        
  15199 ****       -11.7500 -13.2500  -9.2500 Du        
  15200 ****       -11.7500 -13.2500  -9.0000 Du        
  15201 ****       -11.7500 -13.0000 -10.7500 Du        
  15202 ****       -11.7500 -13.0000 -10.5000 Du        
  15203 ****       -11.7500 -13.0000 -10.2500 Du        
  15204 ****       -11.7500 -13.0000 -10.0000 Du        
  15205 ****       -11.7500 -13.0000  -9.7500 Du        
  15206 ****       -11.7500 -13.0000  -9.5000 Du        
  15207 ****       -11.7500 -13.0000  -9.2500 Du        
  15208 ****       -11.7500 -12.7500 -11.0000 Du        
  15209 ****       -11.7500 -12.7500 -10.7500 Du        
  15210 ****       -11.7500 -12.7500 -10.5000 Du        
  15211 ****       -11.7500 -12.7500 -10.2500 Du        
  15212 ****       -11.7500 -12.7500 -10.0000 Du        
  15213 ****       -11.7500 -12.7500  -9.7500 Du        
  15214 ****       -11.7500 -12.7500  -9.5000 Du        
  15215 ****       -11.7500 -12.5000 -11.0000 Du        
  15216 ****       -11.7500 -12.5000 -10.7500 Du        
  15217 ****       -11.7500 -12.5000 -10.5000 Du        
  15218 ****       -11.7500 -12.5000 -10.2500 Du        
  15219 ****       -11.7500  -9.2500 -12.7500 Du        
  15220 ****       -11.7500  -9.2500 -12.5000 Du        
  15221 ****       -11.7500  -9.2500 -12.2500 Du        
  15222 ****       -11.7500  -9.0000 -13.2500 Du        
  15223 ****       -11.7500  -9.0000 -13.0000 Du        
  15224 ****       -11.7500  -9.0000 -12.7500 Du        
  15225 ****       -11.7500  -9.0000 -12.5000 Du        
  15226 ****       -11.7500  -9.0000 -12.2500 Du        
  15227 ****       -11.7500  -9.0000 -12.0000 Du        
  15228 ****       -11.7500  -8.7500 -13.5000 Du        
  15229 ****       -11.7500  -8.7500 -13.2500 Du        
  15230 ****       -11.7500  -8.7500 -13.0000 Du        
  15231 ****       -11.7500  -8.7500 -12.7500 Du        
  15232 ****       -11.7500  -8.7500 -12.5000 Du        
  15233 ****       -11.7500  -8.7500 -12.2500 Du        
  15234 ****       -11.7500  -8.7500 -12.0000 Du        
  15235 ****       -11.7500  -8.7500 -11.7500 Du        
  15236 ****       -11.7500  -8.5000 -13.5000 Du        
  15237 ****       -11.7500  -8.5000 -13.2500 Du        
  15238 ****       -11.7500  -8.5000 -13.0000 Du        
  15239 ****       -11.7500  -8.5000 -12.7500 Du        
  15240 ****       -11.7500  -8.5000 -12.5000 Du        
  15241 ****       -11.7500  -8.5000 -12.2500 Du        
  15242 ****       -11.7500  -8.5000 -12.0000 Du        
  15243 ****       -11.7500  -8.5000 -11.7500 Du        
  15244 ****       -11.7500  -8.5000 -11.5000 Du        
  15245 ****       -11.7500  -8.2500 -14.0000 Du        
  15246 ****       -11.7500  -8.2500 -13.7500 Du        
  15247 ****       -11.7500  -8.2500 -13.5000 Du        
  15248 ****       -11.7500  -8.2500 -13.2500 Du        
  15249 ****       -11.7500  -8.2500 -13.0000 Du        
  15250 ****       -11.7500  -8.2500 -12.7500 Du        
  15251 ****       -11.7500  -8.2500 -12.5000 Du        
  15252 ****       -11.7500  -8.2500 -12.2500 Du        
  15253 ****       -11.7500  -8.2500 -12.0000 Du        
  15254 ****       -11.7500  -8.2500 -11.7500 Du        
  15255 ****       -11.7500  -8.2500 -11.5000 Du        
  15256 ****       -11.7500  -8.0000 -14.5000 Du        
  15257 ****       -11.7500  -8.0000 -14.2500 Du        
  15258 ****       -11.7500  -8.0000 -14.0000 Du        
  15259 ****       -11.7500  -8.0000 -13.7500 Du        
  15260 ****       -11.7500  -8.0000 -13.5000 Du        
  15261 ****       -11.7500  -8.0000 -13.2500 Du        
  15262 ****       -11.7500  -8.0000 -13.0000 Du        
  15263 ****       -11.7500  -8.0000 -12.7500 Du        
  15264 ****       -11.7500  -8.0000 -12.5000 Du        
  15265 ****       -11.7500  -8.0000 -12.2500 Du        
  15266 ****       -11.7500  -8.0000 -12.0000 Du        
  15267 ****       -11.7500  -8.0000 -11.7500 Du        
  15268 ****       -11.7500  -8.0000 -11.5000 Du        
  15269 ****       -11.7500  -7.7500 -14.5000 Du        
  15270 ****       -11.7500  -7.7500 -14.2500 Du        
  15271 ****       -11.7500  -7.7500 -14.0000 Du        
  15272 ****       -11.7500  -7.7500 -13.7500 Du        
  15273 ****       -11.7500  -7.7500 -13.5000 Du        
  15274 ****       -11.7500  -7.7500 -13.2500 Du        
  15275 ****       -11.7500  -7.7500 -13.0000 Du        
  15276 ****       -11.7500  -7.7500 -12.7500 Du        
  15277 ****       -11.7500  -7.7500 -12.5000 Du        
  15278 ****       -11.7500  -7.7500 -12.2500 Du        
  15279 ****       -11.7500  -7.7500 -12.0000 Du        
  15280 ****       -11.7500  -7.7500 -11.7500 Du        
  15281 ****       -11.7500  -7.5000 -15.0000 Du        
  15282 ****       -11.7500  -7.5000 -14.7500 Du        
  15283 ****       -11.7500  -7.5000 -14.5000 Du        
  15284 ****       -11.7500  -7.5000 -14.2500 Du        
  15285 ****       -11.7500  -7.5000 -14.0000 Du        
  15286 ****       -11.7500  -7.5000 -13.7500 Du        
  15287 ****       -11.7500  -7.5000 -13.5000 Du        
  15288 ****       -11.7500  -7.5000 -13.2500 Du        
  15289 ****       -11.7500  -7.5000 -13.0000 Du        
  15290 ****       -11.7500  -7.5000 -12.7500 Du        
  15291 ****       -11.7500  -7.5000 -12.5000 Du        
  15292 ****       -11.7500  -7.5000 -12.2500 Du        
  15293 ****       -11.7500  -7.2500 -15.5000 Du        
  15294 ****       -11.7500  -7.2500 -15.2500 Du        
  15295 ****       -11.7500  -7.2500 -15.0000 Du        
  15296 ****       -11.7500  -7.2500 -14.7500 Du        
  15297 ****       -11.7500  -7.2500 -14.5000 Du        
  15298 ****       -11.7500  -7.2500 -14.2500 Du        
  15299 ****       -11.7500  -7.2500 -14.0000 Du        
  15300 ****       -11.7500  -7.2500 -13.7500 Du        
  15301 ****       -11.7500  -7.2500 -13.5000 Du        
  15302 ****       -11.7500  -7.2500 -13.2500 Du        
  15303 ****       -11.7500  -7.2500 -13.0000 Du        
  15304 ****       -11.7500  -7.2500 -12.7500 Du        
  15305 ****       -11.7500  -7.2500 -12.5000 Du        
  15306 ****       -11.7500  -7.2500 -12.2500 Du        
  15307 ****       -11.7500  -7.0000 -15.7500 Du        
  15308 ****       -11.7500  -7.0000 -15.5000 Du        
  15309 ****       -11.7500  -7.0000 -15.2500 Du        
  15310 ****       -11.7500  -7.0000 -15.0000 Du        
  15311 ****       -11.7500  -7.0000 -14.7500 Du        
  15312 ****       -11.7500  -7.0000 -14.5000 Du        
  15313 ****       -11.7500  -7.0000 -14.2500 Du        
  15314 ****       -11.7500  -7.0000 -14.0000 Du        
  15315 ****       -11.7500  -7.0000 -13.7500 Du        
  15316 ****       -11.7500  -7.0000 -13.5000 Du        
  15317 ****       -11.7500  -7.0000 -13.2500 Du        
  15318 ****       -11.7500  -7.0000 -13.0000 Du        
  15319 ****       -11.7500  -7.0000 -12.7500 Du        
  15320 ****       -11.7500  -7.0000 -12.5000 Du        
  15321 ****       -11.7500  -6.7500 -14.5000 Du        
  15322 ****       -11.7500  -6.7500 -14.2500 Du        
  15323 ****       -11.7500  -6.7500 -14.0000 Du        
  15324 ****       -11.7500  -6.7500 -13.7500 Du        
  15325 ****       -11.7500  -6.7500 -13.5000 Du        
  15326 ****       -11.7500  -6.7500 -13.2500 Du        
  15327 ****       -11.7500  -6.7500 -13.0000 Du        
  15328 ****       -11.7500  -6.7500 -12.7500 Du        
  15329 ****       -11.7500  -6.5000 -16.5000 Du        
  15330 ****       -11.7500  -6.5000 -16.2500 Du        
  15331 ****       -11.7500  -6.5000 -13.5000 Du        
  15332 ****       -11.7500  -6.5000 -13.2500 Du        
  15333 ****       -11.7500  -6.5000 -13.0000 Du        
  15334 ****       -11.7500  -6.2500 -17.0000 Du        
  15335 ****       -11.7500  -6.2500 -16.5000 Du        
  15336 ****       -11.7500  -6.0000 -17.5000 Du        
  15337 ****       -11.7500  -6.0000 -17.2500 Du        
  15338 ****       -11.7500  -6.0000 -17.0000 Du        
  15339 ****       -11.7500  -5.7500 -17.7500 Du        
  15340 ****       -11.7500  -5.7500 -17.5000 Du        
  15341 ****       -11.7500  -5.7500 -17.2500 Du        
  15342 ****       -11.7500  -5.7500 -17.0000 Du        
  15343 ****       -11.7500  -5.5000 -18.5000 Du        
  15344 ****       -11.7500  -5.5000 -18.2500 Du        
  15345 ****       -11.7500  -5.5000 -18.0000 Du        
  15346 ****       -11.7500  -5.5000 -17.7500 Du        
  15347 ****       -11.7500  -5.5000 -17.5000 Du        
  15348 ****       -11.7500  -5.5000 -17.2500 Du        
  15349 ****       -11.7500  -5.5000 -17.0000 Du        
  15350 ****       -11.7500  -5.2500 -18.7500 Du        
  15351 ****       -11.7500  -5.2500 -18.5000 Du        
  15352 ****       -11.7500  -5.2500 -18.2500 Du        
  15353 ****       -11.7500  -5.2500 -18.0000 Du        
  15354 ****       -11.7500  -5.2500 -17.7500 Du        
  15355 ****       -11.7500  -5.2500 -17.5000 Du        
  15356 ****       -11.7500  -5.2500 -17.2500 Du        
  15357 ****       -11.7500  -5.0000 -18.7500 Du        
  15358 ****       -11.7500  -5.0000 -18.5000 Du        
  15359 ****       -11.7500  -5.0000 -18.2500 Du        
  15360 ****       -11.7500  -5.0000 -18.0000 Du        
  15361 ****       -11.7500  -5.0000 -17.7500 Du        
  15362 ****       -11.7500  -5.0000 -17.5000 Du        
  15363 ****       -11.7500  -5.0000 -17.2500 Du        
  15364 ****       -11.7500  -4.7500 -18.5000 Du        
  15365 ****       -11.7500  -4.7500 -18.2500 Du        
  15366 ****       -11.7500  -4.7500 -18.0000 Du        
  15367 ****       -11.7500  -4.7500 -17.7500 Du        
  15368 ****       -11.7500  -4.7500 -17.5000 Du        
  15369 ****       -11.7500  -4.7500 -17.2500 Du        
  15370 ****       -11.7500  -4.5000 -18.0000 Du        
  15371 ****       -11.7500  -4.5000 -17.7500 Du        
  15372 ****       -11.7500  -4.5000 -17.5000 Du        
  15373 ****       -11.5000 -25.5000 -28.2500 Du        
  15374 ****       -11.5000 -25.2500 -28.2500 Du        
  15375 ****       -11.5000 -25.2500 -28.0000 Du        
  15376 ****       -11.5000 -25.0000 -28.7500 Du        
  15377 ****       -11.5000 -25.0000 -28.5000 Du        
  15378 ****       -11.5000 -25.0000 -28.2500 Du        
  15379 ****       -11.5000 -25.0000 -28.0000 Du        
  15380 ****       -11.5000 -24.7500 -28.7500 Du        
  15381 ****       -11.5000 -24.7500 -28.5000 Du        
  15382 ****       -11.5000 -24.7500 -28.2500 Du        
  15383 ****       -11.5000 -24.5000 -29.2500 Du        
  15384 ****       -11.5000 -24.5000 -29.0000 Du        
  15385 ****       -11.5000 -24.5000 -28.7500 Du        
  15386 ****       -11.5000 -24.5000 -28.5000 Du        
  15387 ****       -11.5000 -24.5000 -28.2500 Du        
  15388 ****       -11.5000 -24.2500 -29.2500 Du        
  15389 ****       -11.5000 -24.2500 -29.0000 Du        
  15390 ****       -11.5000 -24.2500 -28.7500 Du        
  15391 ****       -11.5000 -24.2500 -28.5000 Du        
  15392 ****       -11.5000 -24.2500 -28.2500 Du        
  15393 ****       -11.5000 -24.0000 -29.7500 Du        
  15394 ****       -11.5000 -24.0000 -29.5000 Du        
  15395 ****       -11.5000 -24.0000 -29.2500 Du        
  15396 ****       -11.5000 -24.0000 -29.0000 Du        
  15397 ****       -11.5000 -24.0000 -28.7500 Du        
  15398 ****       -11.5000 -24.0000 -28.5000 Du        
  15399 ****       -11.5000 -24.0000 -28.2500 Du        
  15400 ****       -11.5000 -23.7500 -29.7500 Du        
  15401 ****       -11.5000 -23.7500 -29.5000 Du        
  15402 ****       -11.5000 -23.7500 -29.2500 Du        
  15403 ****       -11.5000 -23.7500 -29.0000 Du        
  15404 ****       -11.5000 -23.7500 -28.7500 Du        
  15405 ****       -11.5000 -23.7500 -28.5000 Du        
  15406 ****       -11.5000 -23.7500 -28.2500 Du        
  15407 ****       -11.5000 -23.7500 -28.0000 Du        
  15408 ****       -11.5000 -23.5000 -29.5000 Du        
  15409 ****       -11.5000 -23.5000 -29.2500 Du        
  15410 ****       -11.5000 -23.5000 -29.0000 Du        
  15411 ****       -11.5000 -23.5000 -28.7500 Du        
  15412 ****       -11.5000 -23.5000 -28.5000 Du        
  15413 ****       -11.5000 -23.5000 -28.2500 Du        
  15414 ****       -11.5000 -23.2500 -29.2500 Du        
  15415 ****       -11.5000 -23.2500 -29.0000 Du        
  15416 ****       -11.5000 -23.2500 -28.7500 Du        
  15417 ****       -11.5000 -23.2500 -28.5000 Du        
  15418 ****       -11.5000 -23.2500 -28.2500 Du        
  15419 ****       -11.5000 -23.2500 -28.0000 Du        
  15420 ****       -11.5000 -23.0000 -29.0000 Du        
  15421 ****       -11.5000 -23.0000 -28.7500 Du        
  15422 ****       -11.5000 -23.0000 -28.5000 Du        
  15423 ****       -11.5000 -23.0000 -28.2500 Du        
  15424 ****       -11.5000 -23.0000 -28.0000 Du        
  15425 ****       -11.5000 -22.7500 -28.5000 Du        
  15426 ****       -11.5000 -22.7500 -28.2500 Du        
  15427 ****       -11.5000 -22.7500 -28.0000 Du        
  15428 ****       -11.5000 -22.7500 -27.7500 Du        
  15429 ****       -11.5000 -22.5000 -28.0000 Du        
  15430 ****       -11.5000 -22.5000 -27.7500 Du        
  15431 ****       -11.5000 -21.2500 -26.2500 Du        
  15432 ****       -11.5000 -21.2500 -26.0000 Du        
  15433 ****       -11.5000 -21.2500 -25.2500 Du        
  15434 ****       -11.5000 -21.2500 -24.5000 Du        
  15435 ****       -11.5000 -21.2500 -24.2500 Du        
  15436 ****       -11.5000 -21.2500 -16.0000 Du        
  15437 ****       -11.5000 -21.2500 -15.7500 Du        
  15438 ****       -11.5000 -21.0000 -26.0000 Du        
  15439 ****       -11.5000 -21.0000 -25.5000 Du        
  15440 ****       -11.5000 -21.0000 -25.0000 Du        
  15441 ****       -11.5000 -21.0000 -24.7500 Du        
  15442 ****       -11.5000 -21.0000 -24.5000 Du        
  15443 ****       -11.5000 -21.0000 -24.2500 Du        
  15444 ****       -11.5000 -21.0000 -16.0000 Du        
  15445 ****       -11.5000 -21.0000 -15.7500 Du        
  15446 ****       -11.5000 -20.7500 -25.0000 Du        
  15447 ****       -11.5000 -20.7500 -24.7500 Du        
  15448 ****       -11.5000 -20.7500 -24.5000 Du        
  15449 ****       -11.5000 -20.7500 -24.2500 Du        
  15450 ****       -11.5000 -20.7500 -16.0000 Du        
  15451 ****       -11.5000 -20.5000 -24.5000 Du        
  15452 ****       -11.5000 -20.5000 -24.2500 Du        
  15453 ****       -11.5000 -20.5000 -16.0000 Du        
  15454 ****       -11.5000 -20.2500 -24.5000 Du        
  15455 ****       -11.5000 -20.2500 -24.2500 Du        
  15456 ****       -11.5000 -20.0000 -24.5000 Du        
  15457 ****       -11.5000 -19.7500 -25.0000 Du        
  15458 ****       -11.5000 -19.7500 -24.7500 Du        
  15459 ****       -11.5000 -19.5000 -25.0000 Du        
  15460 ****       -11.5000 -19.2500 -25.2500 Du        
  15461 ****       -11.5000 -19.2500 -25.0000 Du        
  15462 ****       -11.5000 -19.0000 -25.0000 Du        
  15463 ****       -11.5000 -17.2500  -8.7500 Du        
  15464 ****       -11.5000 -17.2500  -8.5000 Du        
  15465 ****       -11.5000 -17.2500  -8.2500 Du        
  15466 ****       -11.5000 -17.0000  -9.0000 Du        
  15467 ****       -11.5000 -17.0000  -8.7500 Du        
  15468 ****       -11.5000 -17.0000  -8.5000 Du        
  15469 ****       -11.5000 -17.0000  -8.2500 Du        
  15470 ****       -11.5000 -17.0000  -8.0000 Du        
  15471 ****       -11.5000 -16.7500  -9.0000 Du        
  15472 ****       -11.5000 -16.7500  -8.7500 Du        
  15473 ****       -11.5000 -16.7500  -8.5000 Du        
  15474 ****       -11.5000 -16.7500  -8.2500 Du        
  15475 ****       -11.5000 -16.7500  -8.0000 Du        
  15476 ****       -11.5000 -16.5000  -9.0000 Du        
  15477 ****       -11.5000 -16.5000  -8.7500 Du        
  15478 ****       -11.5000 -16.5000  -8.5000 Du        
  15479 ****       -11.5000 -16.5000  -8.2500 Du        
  15480 ****       -11.5000 -16.5000  -8.0000 Du        
  15481 ****       -11.5000 -16.2500  -9.0000 Du        
  15482 ****       -11.5000 -16.2500  -8.7500 Du        
  15483 ****       -11.5000 -16.2500  -8.5000 Du        
  15484 ****       -11.5000 -16.2500  -8.2500 Du        
  15485 ****       -11.5000 -16.2500  -8.0000 Du        
  15486 ****       -11.5000 -16.0000  -9.0000 Du        
  15487 ****       -11.5000 -16.0000  -8.7500 Du        
  15488 ****       -11.5000 -16.0000  -8.5000 Du        
  15489 ****       -11.5000 -16.0000  -8.2500 Du        
  15490 ****       -11.5000 -15.7500 -28.0000 Du        
  15491 ****       -11.5000 -15.7500 -27.7500 Du        
  15492 ****       -11.5000 -15.7500  -9.0000 Du        
  15493 ****       -11.5000 -15.7500  -8.7500 Du        
  15494 ****       -11.5000 -15.7500  -8.5000 Du        
  15495 ****       -11.5000 -15.5000 -28.0000 Du        
  15496 ****       -11.5000 -15.5000 -27.7500 Du        
  15497 ****       -11.5000 -15.5000  -9.0000 Du        
  15498 ****       -11.5000 -15.5000  -8.7500 Du        
  15499 ****       -11.5000 -15.5000  -8.5000 Du        
  15500 ****       -11.5000 -15.2500 -27.7500 Du        
  15501 ****       -11.5000 -15.2500  -9.2500 Du        
  15502 ****       -11.5000 -15.2500  -9.0000 Du        
  15503 ****       -11.5000 -15.2500  -8.7500 Du        
  15504 ****       -11.5000 -15.0000  -9.2500 Du        
  15505 ****       -11.5000 -15.0000  -9.0000 Du        
  15506 ****       -11.5000 -15.0000  -8.7500 Du        
  15507 ****       -11.5000 -14.7500  -9.5000 Du        
  15508 ****       -11.5000 -14.7500  -9.2500 Du        
  15509 ****       -11.5000 -14.7500  -9.0000 Du        
  15510 ****       -11.5000 -14.7500  -8.7500 Du        
  15511 ****       -11.5000 -14.5000  -9.5000 Du        
  15512 ****       -11.5000 -14.5000  -9.2500 Du        
  15513 ****       -11.5000 -14.5000  -9.0000 Du        
  15514 ****       -11.5000 -14.5000  -8.7500 Du        
  15515 ****       -11.5000 -14.2500  -9.7500 Du        
  15516 ****       -11.5000 -14.2500  -9.5000 Du        
  15517 ****       -11.5000 -14.2500  -9.2500 Du        
  15518 ****       -11.5000 -14.2500  -9.0000 Du        
  15519 ****       -11.5000 -14.0000  -9.7500 Du        
  15520 ****       -11.5000 -14.0000  -9.5000 Du        
  15521 ****       -11.5000 -14.0000  -9.2500 Du        
  15522 ****       -11.5000 -14.0000  -9.0000 Du        
  15523 ****       -11.5000 -13.7500 -10.0000 Du        
  15524 ****       -11.5000 -13.7500  -9.7500 Du        
  15525 ****       -11.5000 -13.7500  -9.5000 Du        
  15526 ****       -11.5000 -13.7500  -9.2500 Du        
  15527 ****       -11.5000 -13.7500  -9.0000 Du        
  15528 ****       -11.5000 -13.5000 -10.2500 Du        
  15529 ****       -11.5000 -13.5000 -10.0000 Du        
  15530 ****       -11.5000 -13.5000  -9.7500 Du        
  15531 ****       -11.5000 -13.5000  -9.5000 Du        
  15532 ****       -11.5000 -13.5000  -9.2500 Du        
  15533 ****       -11.5000 -13.5000  -9.0000 Du        
  15534 ****       -11.5000 -13.2500 -10.5000 Du        
  15535 ****       -11.5000 -13.2500 -10.2500 Du        
  15536 ****       -11.5000 -13.2500 -10.0000 Du        
  15537 ****       -11.5000 -13.2500  -9.7500 Du        
  15538 ****       -11.5000 -13.2500  -9.5000 Du        
  15539 ****       -11.5000 -13.2500  -9.2500 Du        
  15540 ****       -11.5000 -13.0000 -10.7500 Du        
  15541 ****       -11.5000 -13.0000 -10.5000 Du        
  15542 ****       -11.5000 -13.0000 -10.2500 Du        
  15543 ****       -11.5000 -13.0000 -10.0000 Du        
  15544 ****       -11.5000 -13.0000  -9.7500 Du        
  15545 ****       -11.5000 -13.0000  -9.5000 Du        
  15546 ****       -11.5000 -12.7500 -11.0000 Du        
  15547 ****       -11.5000 -12.7500 -10.7500 Du        
  15548 ****       -11.5000 -12.7500 -10.5000 Du        
  15549 ****       -11.5000 -12.7500 -10.2500 Du        
  15550 ****       -11.5000 -12.7500 -10.0000 Du        
  15551 ****       -11.5000 -12.7500  -9.7500 Du        
  15552 ****       -11.5000 -12.5000 -11.0000 Du        
  15553 ****       -11.5000 -12.5000 -10.7500 Du        
  15554 ****       -11.5000 -12.5000 -10.5000 Du        
  15555 ****       -11.5000 -12.5000 -10.2500 Du        
  15556 ****       -11.5000  -9.5000 -12.5000 Du        
  15557 ****       -11.5000  -9.5000 -12.2500 Du        
  15558 ****       -11.5000  -9.5000 -12.0000 Du        
  15559 ****       -11.5000  -9.2500 -13.0000 Du        
  15560 ****       -11.5000  -9.2500 -12.7500 Du        
  15561 ****       -11.5000  -9.2500 -12.5000 Du        
  15562 ****       -11.5000  -9.2500 -12.2500 Du        
  15563 ****       -11.5000  -9.2500 -12.0000 Du        
  15564 ****       -11.5000  -9.2500 -11.7500 Du        
  15565 ****       -11.5000  -9.0000 -13.2500 Du        
  15566 ****       -11.5000  -9.0000 -13.0000 Du        
  15567 ****       -11.5000  -9.0000 -12.7500 Du        
  15568 ****       -11.5000  -9.0000 -12.5000 Du        
  15569 ****       -11.5000  -9.0000 -12.2500 Du        
  15570 ****       -11.5000  -9.0000 -12.0000 Du        
  15571 ****       -11.5000  -9.0000 -11.7500 Du        
  15572 ****       -11.5000  -9.0000 -11.5000 Du        
  15573 ****       -11.5000  -8.7500 -13.5000 Du        
  15574 ****       -11.5000  -8.7500 -13.2500 Du        
  15575 ****       -11.5000  -8.7500 -13.0000 Du        
  15576 ****       -11.5000  -8.7500 -12.7500 Du        
  15577 ****       -11.5000  -8.7500 -12.5000 Du        
  15578 ****       -11.5000  -8.7500 -12.2500 Du        
  15579 ****       -11.5000  -8.7500 -12.0000 Du        
  15580 ****       -11.5000  -8.7500 -11.7500 Du        
  15581 ****       -11.5000  -8.7500 -11.5000 Du        
  15582 ****       -11.5000  -8.7500 -11.2500 Du        
  15583 ****       -11.5000  -8.5000 -13.7500 Du        
  15584 ****       -11.5000  -8.5000 -13.5000 Du        
  15585 ****       -11.5000  -8.5000 -13.2500 Du        
  15586 ****       -11.5000  -8.5000 -13.0000 Du        
  15587 ****       -11.5000  -8.5000 -12.7500 Du        
  15588 ****       -11.5000  -8.5000 -12.5000 Du        
  15589 ****       -11.5000  -8.5000 -12.2500 Du        
  15590 ****       -11.5000  -8.5000 -12.0000 Du        
  15591 ****       -11.5000  -8.5000 -11.7500 Du        
  15592 ****       -11.5000  -8.5000 -11.5000 Du        
  15593 ****       -11.5000  -8.5000 -11.2500 Du        
  15594 ****       -11.5000  -8.2500 -14.5000 Du        
  15595 ****       -11.5000  -8.2500 -14.2500 Du        
  15596 ****       -11.5000  -8.2500 -14.0000 Du        
  15597 ****       -11.5000  -8.2500 -13.7500 Du        
  15598 ****       -11.5000  -8.2500 -13.5000 Du        
  15599 ****       -11.5000  -8.2500 -13.2500 Du        
  15600 ****       -11.5000  -8.2500 -13.0000 Du        
  15601 ****       -11.5000  -8.2500 -12.7500 Du        
  15602 ****       -11.5000  -8.2500 -12.5000 Du        
  15603 ****       -11.5000  -8.2500 -12.2500 Du        
  15604 ****       -11.5000  -8.2500 -12.0000 Du        
  15605 ****       -11.5000  -8.2500 -11.7500 Du        
  15606 ****       -11.5000  -8.2500 -11.5000 Du        
  15607 ****       -11.5000  -8.0000 -14.5000 Du        
  15608 ****       -11.5000  -8.0000 -14.2500 Du        
  15609 ****       -11.5000  -8.0000 -14.0000 Du        
  15610 ****       -11.5000  -8.0000 -13.7500 Du        
  15611 ****       -11.5000  -8.0000 -13.5000 Du        
  15612 ****       -11.5000  -8.0000 -13.2500 Du        
  15613 ****       -11.5000  -8.0000 -13.0000 Du        
  15614 ****       -11.5000  -8.0000 -12.7500 Du        
  15615 ****       -11.5000  -8.0000 -12.5000 Du        
  15616 ****       -11.5000  -8.0000 -12.2500 Du        
  15617 ****       -11.5000  -8.0000 -12.0000 Du        
  15618 ****       -11.5000  -7.7500 -14.7500 Du        
  15619 ****       -11.5000  -7.7500 -14.5000 Du        
  15620 ****       -11.5000  -7.7500 -14.2500 Du        
  15621 ****       -11.5000  -7.7500 -14.0000 Du        
  15622 ****       -11.5000  -7.7500 -13.7500 Du        
  15623 ****       -11.5000  -7.7500 -13.5000 Du        
  15624 ****       -11.5000  -7.7500 -13.2500 Du        
  15625 ****       -11.5000  -7.7500 -13.0000 Du        
  15626 ****       -11.5000  -7.7500 -12.7500 Du        
  15627 ****       -11.5000  -7.7500 -12.5000 Du        
  15628 ****       -11.5000  -7.7500 -12.2500 Du        
  15629 ****       -11.5000  -7.5000 -15.2500 Du        
  15630 ****       -11.5000  -7.5000 -15.0000 Du        
  15631 ****       -11.5000  -7.5000 -14.7500 Du        
  15632 ****       -11.5000  -7.5000 -14.5000 Du        
  15633 ****       -11.5000  -7.5000 -14.2500 Du        
  15634 ****       -11.5000  -7.5000 -14.0000 Du        
  15635 ****       -11.5000  -7.5000 -13.7500 Du        
  15636 ****       -11.5000  -7.5000 -13.5000 Du        
  15637 ****       -11.5000  -7.5000 -13.2500 Du        
  15638 ****       -11.5000  -7.5000 -13.0000 Du        
  15639 ****       -11.5000  -7.5000 -12.7500 Du        
  15640 ****       -11.5000  -7.5000 -12.5000 Du        
  15641 ****       -11.5000  -7.2500 -15.5000 Du        
  15642 ****       -11.5000  -7.2500 -15.2500 Du        
  15643 ****       -11.5000  -7.2500 -15.0000 Du        
  15644 ****       -11.5000  -7.2500 -14.7500 Du        
  15645 ****       -11.5000  -7.2500 -14.5000 Du        
  15646 ****       -11.5000  -7.2500 -14.2500 Du        
  15647 ****       -11.5000  -7.2500 -14.0000 Du        
  15648 ****       -11.5000  -7.2500 -13.7500 Du        
  15649 ****       -11.5000  -7.2500 -13.5000 Du        
  15650 ****       -11.5000  -7.2500 -13.2500 Du        
  15651 ****       -11.5000  -7.2500 -13.0000 Du        
  15652 ****       -11.5000  -7.2500 -12.7500 Du        
  15653 ****       -11.5000  -7.0000 -15.5000 Du        
  15654 ****       -11.5000  -7.0000 -15.2500 Du        
  15655 ****       -11.5000  -7.0000 -15.0000 Du        
  15656 ****       -11.5000  -7.0000 -14.7500 Du        
  15657 ****       -11.5000  -7.0000 -14.5000 Du        
  15658 ****       -11.5000  -7.0000 -14.2500 Du        
  15659 ****       -11.5000  -7.0000 -14.0000 Du        
  15660 ****       -11.5000  -7.0000 -13.7500 Du        
  15661 ****       -11.5000  -7.0000 -13.5000 Du        
  15662 ****       -11.5000  -7.0000 -13.2500 Du        
  15663 ****       -11.5000  -7.0000 -13.0000 Du        
  15664 ****       -11.5000  -7.0000 -12.7500 Du        
  15665 ****       -11.5000  -6.7500 -14.2500 Du        
  15666 ****       -11.5000  -6.7500 -14.0000 Du        
  15667 ****       -11.5000  -6.7500 -13.7500 Du        
  15668 ****       -11.5000  -6.7500 -13.5000 Du        
  15669 ****       -11.5000  -6.7500 -13.2500 Du        
  15670 ****       -11.5000  -6.7500 -13.0000 Du        
  15671 ****       -11.5000  -6.0000 -17.0000 Du        
  15672 ****       -11.5000  -5.7500 -17.5000 Du        
  15673 ****       -11.5000  -5.7500 -17.2500 Du        
  15674 ****       -11.5000  -5.7500 -17.0000 Du        
  15675 ****       -11.5000  -5.5000 -18.2500 Du        
  15676 ****       -11.5000  -5.5000 -18.0000 Du        
  15677 ****       -11.5000  -5.5000 -17.7500 Du        
  15678 ****       -11.5000  -5.5000 -17.5000 Du        
  15679 ****       -11.5000  -5.5000 -17.2500 Du        
  15680 ****       -11.5000  -5.2500 -18.5000 Du        
  15681 ****       -11.5000  -5.2500 -18.2500 Du        
  15682 ****       -11.5000  -5.2500 -18.0000 Du        
  15683 ****       -11.5000  -5.2500 -17.7500 Du        
  15684 ****       -11.5000  -5.2500 -17.5000 Du        
  15685 ****       -11.5000  -5.2500 -17.2500 Du        
  15686 ****       -11.5000  -5.0000 -18.5000 Du        
  15687 ****       -11.5000  -5.0000 -18.2500 Du        
  15688 ****       -11.5000  -5.0000 -18.0000 Du        
  15689 ****       -11.5000  -5.0000 -17.7500 Du        
  15690 ****       -11.5000  -5.0000 -17.5000 Du        
  15691 ****       -11.5000  -5.0000 -17.2500 Du        
  15692 ****       -11.5000  -4.7500 -18.2500 Du        
  15693 ****       -11.5000  -4.7500 -18.0000 Du        
  15694 ****       -11.5000  -4.7500 -17.7500 Du        
  15695 ****       -11.5000  -4.7500 -17.5000 Du        
  15696 ****       -11.5000  -4.5000 -17.7500 Du        
  15697 ****       -11.2500 -25.5000 -28.2500 Du        
  15698 ****       -11.2500 -25.2500 -28.2500 Du        
  15699 ****       -11.2500 -25.0000 -28.7500 Du        
  15700 ****       -11.2500 -25.0000 -28.5000 Du        
  15701 ****       -11.2500 -25.0000 -28.2500 Du        
  15702 ****       -11.2500 -24.7500 -28.7500 Du        
  15703 ****       -11.2500 -24.7500 -28.5000 Du        
  15704 ****       -11.2500 -24.7500 -28.2500 Du        
  15705 ****       -11.2500 -24.5000 -29.2500 Du        
  15706 ****       -11.2500 -24.5000 -29.0000 Du        
  15707 ****       -11.2500 -24.5000 -28.7500 Du        
  15708 ****       -11.2500 -24.5000 -28.5000 Du        
  15709 ****       -11.2500 -24.2500 -29.2500 Du        
  15710 ****       -11.2500 -24.2500 -29.0000 Du        
  15711 ****       -11.2500 -24.2500 -28.7500 Du        
  15712 ****       -11.2500 -24.2500 -28.5000 Du        
  15713 ****       -11.2500 -24.2500 -28.2500 Du        
  15714 ****       -11.2500 -24.0000 -29.7500 Du        
  15715 ****       -11.2500 -24.0000 -29.5000 Du        
  15716 ****       -11.2500 -24.0000 -29.2500 Du        
  15717 ****       -11.2500 -24.0000 -29.0000 Du        
  15718 ****       -11.2500 -24.0000 -28.7500 Du        
  15719 ****       -11.2500 -24.0000 -28.5000 Du        
  15720 ****       -11.2500 -24.0000 -28.2500 Du        
  15721 ****       -11.2500 -23.7500 -29.7500 Du        
  15722 ****       -11.2500 -23.7500 -29.5000 Du        
  15723 ****       -11.2500 -23.7500 -29.2500 Du        
  15724 ****       -11.2500 -23.7500 -29.0000 Du        
  15725 ****       -11.2500 -23.7500 -28.7500 Du        
  15726 ****       -11.2500 -23.7500 -28.5000 Du        
  15727 ****       -11.2500 -23.7500 -28.2500 Du        
  15728 ****       -11.2500 -23.5000 -29.5000 Du        
  15729 ****       -11.2500 -23.5000 -29.2500 Du        
  15730 ****       -11.2500 -23.5000 -29.0000 Du        
  15731 ****       -11.2500 -23.5000 -28.7500 Du        
  15732 ****       -11.2500 -23.5000 -28.5000 Du        
  15733 ****       -11.2500 -23.5000 -28.2500 Du        
  15734 ****       -11.2500 -23.2500 -29.2500 Du        
  15735 ****       -11.2500 -23.2500 -29.0000 Du        
  15736 ****       -11.2500 -23.2500 -28.7500 Du        
  15737 ****       -11.2500 -23.2500 -28.5000 Du        
  15738 ****       -11.2500 -23.2500 -28.2500 Du        
  15739 ****       -11.2500 -23.0000 -29.0000 Du        
  15740 ****       -11.2500 -23.0000 -28.7500 Du        
  15741 ****       -11.2500 -23.0000 -28.5000 Du        
  15742 ****       -11.2500 -23.0000 -28.2500 Du        
  15743 ****       -11.2500 -23.0000 -28.0000 Du        
  15744 ****       -11.2500 -22.7500 -28.2500 Du        
  15745 ****       -11.2500 -22.7500 -28.0000 Du        
  15746 ****       -11.2500 -21.5000 -26.2500 Du        
  15747 ****       -11.2500 -21.5000 -26.0000 Du        
  15748 ****       -11.2500 -21.5000 -25.5000 Du        
  15749 ****       -11.2500 -21.5000 -25.2500 Du        
  15750 ****       -11.2500 -21.2500 -26.2500 Du        
  15751 ****       -11.2500 -21.2500 -26.0000 Du        
  15752 ****       -11.2500 -21.2500 -25.7500 Du        
  15753 ****       -11.2500 -21.2500 -25.5000 Du        
  15754 ****       -11.2500 -21.2500 -25.2500 Du        
  15755 ****       -11.2500 -21.2500 -25.0000 Du        
  15756 ****       -11.2500 -21.2500 -24.7500 Du        
  15757 ****       -11.2500 -21.2500 -24.5000 Du        
  15758 ****       -11.2500 -21.2500 -24.2500 Du        
  15759 ****       -11.2500 -21.2500 -24.0000 Du        
  15760 ****       -11.2500 -21.0000 -26.2500 Du        
  15761 ****       -11.2500 -21.0000 -26.0000 Du        
  15762 ****       -11.2500 -21.0000 -25.7500 Du        
  15763 ****       -11.2500 -21.0000 -25.5000 Du        
  15764 ****       -11.2500 -21.0000 -25.2500 Du        
  15765 ****       -11.2500 -21.0000 -25.0000 Du        
  15766 ****       -11.2500 -21.0000 -24.7500 Du        
  15767 ****       -11.2500 -21.0000 -24.5000 Du        
  15768 ****       -11.2500 -21.0000 -24.2500 Du        
  15769 ****       -11.2500 -21.0000 -24.0000 Du        
  15770 ****       -11.2500 -21.0000 -16.0000 Du        
  15771 ****       -11.2500 -21.0000 -15.7500 Du        
  15772 ****       -11.2500 -20.7500 -26.0000 Du        
  15773 ****       -11.2500 -20.7500 -25.7500 Du        
  15774 ****       -11.2500 -20.7500 -25.5000 Du        
  15775 ****       -11.2500 -20.7500 -25.2500 Du        
  15776 ****       -11.2500 -20.7500 -25.0000 Du        
  15777 ****       -11.2500 -20.7500 -24.7500 Du        
  15778 ****       -11.2500 -20.7500 -24.5000 Du        
  15779 ****       -11.2500 -20.7500 -24.2500 Du        
  15780 ****       -11.2500 -20.7500 -24.0000 Du        
  15781 ****       -11.2500 -20.7500 -16.0000 Du        
  15782 ****       -11.2500 -20.5000 -25.7500 Du        
  15783 ****       -11.2500 -20.5000 -25.5000 Du        
  15784 ****       -11.2500 -20.5000 -25.2500 Du        
  15785 ****       -11.2500 -20.5000 -25.0000 Du        
  15786 ****       -11.2500 -20.5000 -24.7500 Du        
  15787 ****       -11.2500 -20.5000 -24.5000 Du        
  15788 ****       -11.2500 -20.5000 -24.2500 Du        
  15789 ****       -11.2500 -20.5000 -24.0000 Du        
  15790 ****       -11.2500 -20.5000 -16.2500 Du        
  15791 ****       -11.2500 -20.5000 -16.0000 Du        
  15792 ****       -11.2500 -20.2500 -25.7500 Du        
  15793 ****       -11.2500 -20.2500 -25.5000 Du        
  15794 ****       -11.2500 -20.2500 -25.2500 Du        
  15795 ****       -11.2500 -20.2500 -25.0000 Du        
  15796 ****       -11.2500 -20.2500 -24.7500 Du        
  15797 ****       -11.2500 -20.2500 -24.5000 Du        
  15798 ****       -11.2500 -20.2500 -24.2500 Du        
  15799 ****       -11.2500 -20.2500 -16.2500 Du        
  15800 ****       -11.2500 -20.0000 -25.5000 Du        
  15801 ****       -11.2500 -20.0000 -25.2500 Du        
  15802 ****       -11.2500 -20.0000 -25.0000 Du        
  15803 ****       -11.2500 -20.0000 -24.7500 Du        
  15804 ****       -11.2500 -20.0000 -24.5000 Du        
  15805 ****       -11.2500 -20.0000 -24.2500 Du        
  15806 ****       -11.2500 -20.0000 -16.2500 Du        
  15807 ****       -11.2500 -19.7500 -25.2500 Du        
  15808 ****       -11.2500 -19.7500 -25.0000 Du        
  15809 ****       -11.2500 -19.7500 -24.7500 Du        
  15810 ****       -11.2500 -19.7500 -24.5000 Du        
  15811 ****       -11.2500 -19.5000 -25.2500 Du        
  15812 ****       -11.2500 -19.5000 -25.0000 Du        
  15813 ****       -11.2500 -19.5000 -24.7500 Du        
  15814 ****       -11.2500 -19.2500 -25.2500 Du        
  15815 ****       -11.2500 -19.2500 -25.0000 Du        
  15816 ****       -11.2500 -19.0000 -25.2500 Du        
  15817 ****       -11.2500 -19.0000 -25.0000 Du        
  15818 ****       -11.2500 -17.2500  -8.7500 Du        
  15819 ****       -11.2500 -17.2500  -8.5000 Du        
  15820 ****       -11.2500 -17.2500  -8.2500 Du        
  15821 ****       -11.2500 -17.0000  -8.7500 Du        
  15822 ****       -11.2500 -17.0000  -8.5000 Du        
  15823 ****       -11.2500 -17.0000  -8.2500 Du        
  15824 ****       -11.2500 -17.0000  -8.0000 Du        
  15825 ****       -11.2500 -16.7500  -9.0000 Du        
  15826 ****       -11.2500 -16.7500  -8.7500 Du        
  15827 ****       -11.2500 -16.7500  -8.5000 Du        
  15828 ****       -11.2500 -16.7500  -8.2500 Du        
  15829 ****       -11.2500 -16.7500  -8.0000 Du        
  15830 ****       -11.2500 -16.5000  -9.0000 Du        
  15831 ****       -11.2500 -16.5000  -8.7500 Du        
  15832 ****       -11.2500 -16.5000  -8.5000 Du        
  15833 ****       -11.2500 -16.5000  -8.2500 Du        
  15834 ****       -11.2500 -16.5000  -8.0000 Du        
  15835 ****       -11.2500 -16.2500  -9.0000 Du        
  15836 ****       -11.2500 -16.2500  -8.7500 Du        
  15837 ****       -11.2500 -16.2500  -8.5000 Du        
  15838 ****       -11.2500 -16.2500  -8.2500 Du        
  15839 ****       -11.2500 -16.2500  -8.0000 Du        
  15840 ****       -11.2500 -16.0000  -9.0000 Du        
  15841 ****       -11.2500 -16.0000  -8.7500 Du        
  15842 ****       -11.2500 -16.0000  -8.5000 Du        
  15843 ****       -11.2500 -16.0000  -8.2500 Du        
  15844 ****       -11.2500 -15.7500 -28.0000 Du        
  15845 ****       -11.2500 -15.7500 -27.7500 Du        
  15846 ****       -11.2500 -15.7500  -9.0000 Du        
  15847 ****       -11.2500 -15.7500  -8.7500 Du        
  15848 ****       -11.2500 -15.7500  -8.5000 Du        
  15849 ****       -11.2500 -15.5000  -9.0000 Du        
  15850 ****       -11.2500 -15.5000  -8.7500 Du        
  15851 ****       -11.2500 -15.2500 -27.7500 Du        
  15852 ****       -11.2500 -15.2500  -9.0000 Du        
  15853 ****       -11.2500 -15.2500  -8.7500 Du        
  15854 ****       -11.2500 -15.0000  -9.2500 Du        
  15855 ****       -11.2500 -15.0000  -9.0000 Du        
  15856 ****       -11.2500 -15.0000  -8.7500 Du        
  15857 ****       -11.2500 -14.7500  -9.2500 Du        
  15858 ****       -11.2500 -14.7500  -9.0000 Du        
  15859 ****       -11.2500 -14.5000  -9.5000 Du        
  15860 ****       -11.2500 -14.5000  -9.2500 Du        
  15861 ****       -11.2500 -14.5000  -9.0000 Du        
  15862 ****       -11.2500 -14.2500  -9.5000 Du        
  15863 ****       -11.2500 -14.2500  -9.2500 Du        
  15864 ****       -11.2500 -14.2500  -9.0000 Du        
  15865 ****       -11.2500 -14.0000  -9.7500 Du        
  15866 ****       -11.2500 -14.0000  -9.5000 Du        
  15867 ****       -11.2500 -14.0000  -9.2500 Du        
  15868 ****       -11.2500 -14.0000  -9.0000 Du        
  15869 ****       -11.2500 -13.7500 -10.0000 Du        
  15870 ****       -11.2500 -13.7500  -9.7500 Du        
  15871 ****       -11.2500 -13.7500  -9.5000 Du        
  15872 ****       -11.2500 -13.7500  -9.2500 Du        
  15873 ****       -11.2500 -13.5000 -10.2500 Du        
  15874 ****       -11.2500 -13.5000 -10.0000 Du        
  15875 ****       -11.2500 -13.5000  -9.7500 Du        
  15876 ****       -11.2500 -13.5000  -9.5000 Du        
  15877 ****       -11.2500 -13.5000  -9.2500 Du        
  15878 ****       -11.2500 -13.2500 -10.5000 Du        
  15879 ****       -11.2500 -13.2500 -10.2500 Du        
  15880 ****       -11.2500 -13.2500 -10.0000 Du        
  15881 ****       -11.2500 -13.2500  -9.7500 Du        
  15882 ****       -11.2500 -13.2500  -9.5000 Du        
  15883 ****       -11.2500 -13.0000 -10.7500 Du        
  15884 ****       -11.2500 -13.0000 -10.5000 Du        
  15885 ****       -11.2500 -13.0000 -10.2500 Du        
  15886 ****       -11.2500 -13.0000 -10.0000 Du        
  15887 ****       -11.2500 -12.7500 -11.0000 Du        
  15888 ****       -11.2500 -12.7500 -10.7500 Du        
  15889 ****       -11.2500 -12.7500 -10.5000 Du        
  15890 ****       -11.2500 -12.7500 -10.2500 Du        
  15891 ****       -11.2500 -12.5000 -11.2500 Du        
  15892 ****       -11.2500 -12.5000 -11.0000 Du        
  15893 ****       -11.2500 -12.2500 -11.2500 Du        
  15894 ****       -11.2500 -10.0000 -12.2500 Du        
  15895 ****       -11.2500  -9.7500 -12.2500 Du        
  15896 ****       -11.2500  -9.7500 -12.0000 Du        
  15897 ****       -11.2500  -9.7500 -11.7500 Du        
  15898 ****       -11.2500  -9.7500 -11.5000 Du        
  15899 ****       -11.2500  -9.5000 -12.5000 Du        
  15900 ****       -11.2500  -9.5000 -12.2500 Du        
  15901 ****       -11.2500  -9.5000 -12.0000 Du        
  15902 ****       -11.2500  -9.5000 -11.7500 Du        
  15903 ****       -11.2500  -9.5000 -11.5000 Du        
  15904 ****       -11.2500  -9.2500 -13.0000 Du        
  15905 ****       -11.2500  -9.2500 -12.7500 Du        
  15906 ****       -11.2500  -9.2500 -12.5000 Du        
  15907 ****       -11.2500  -9.2500 -12.2500 Du        
  15908 ****       -11.2500  -9.2500 -12.0000 Du        
  15909 ****       -11.2500  -9.2500 -11.7500 Du        
  15910 ****       -11.2500  -9.2500 -11.5000 Du        
  15911 ****       -11.2500  -9.2500 -11.2500 Du        
  15912 ****       -11.2500  -9.0000 -13.5000 Du        
  15913 ****       -11.2500  -9.0000 -13.2500 Du        
  15914 ****       -11.2500  -9.0000 -13.0000 Du        
  15915 ****       -11.2500  -9.0000 -12.7500 Du        
  15916 ****       -11.2500  -9.0000 -12.5000 Du        
  15917 ****       -11.2500  -9.0000 -12.2500 Du        
  15918 ****       -11.2500  -9.0000 -12.0000 Du        
  15919 ****       -11.2500  -9.0000 -11.7500 Du        
  15920 ****       -11.2500  -9.0000 -11.5000 Du        
  15921 ****       -11.2500  -9.0000 -11.2500 Du        
  15922 ****       -11.2500  -8.7500 -13.7500 Du        
  15923 ****       -11.2500  -8.7500 -13.5000 Du        
  15924 ****       -11.2500  -8.7500 -13.2500 Du        
  15925 ****       -11.2500  -8.7500 -13.0000 Du        
  15926 ****       -11.2500  -8.7500 -12.7500 Du        
  15927 ****       -11.2500  -8.7500 -12.5000 Du        
  15928 ****       -11.2500  -8.7500 -12.2500 Du        
  15929 ****       -11.2500  -8.7500 -12.0000 Du        
  15930 ****       -11.2500  -8.7500 -11.7500 Du        
  15931 ****       -11.2500  -8.7500 -11.5000 Du        
  15932 ****       -11.2500  -8.7500 -11.2500 Du        
  15933 ****       -11.2500  -8.5000 -14.0000 Du        
  15934 ****       -11.2500  -8.5000 -13.7500 Du        
  15935 ****       -11.2500  -8.5000 -13.5000 Du        
  15936 ****       -11.2500  -8.5000 -13.2500 Du        
  15937 ****       -11.2500  -8.5000 -13.0000 Du        
  15938 ****       -11.2500  -8.5000 -12.7500 Du        
  15939 ****       -11.2500  -8.5000 -12.5000 Du        
  15940 ****       -11.2500  -8.5000 -12.2500 Du        
  15941 ****       -11.2500  -8.5000 -12.0000 Du        
  15942 ****       -11.2500  -8.5000 -11.7500 Du        
  15943 ****       -11.2500  -8.5000 -11.5000 Du        
  15944 ****       -11.2500  -8.5000 -11.2500 Du        
  15945 ****       -11.2500  -8.2500 -14.5000 Du        
  15946 ****       -11.2500  -8.2500 -14.2500 Du        
  15947 ****       -11.2500  -8.2500 -14.0000 Du        
  15948 ****       -11.2500  -8.2500 -13.7500 Du        
  15949 ****       -11.2500  -8.2500 -13.5000 Du        
  15950 ****       -11.2500  -8.2500 -13.2500 Du        
  15951 ****       -11.2500  -8.2500 -13.0000 Du        
  15952 ****       -11.2500  -8.2500 -12.7500 Du        
  15953 ****       -11.2500  -8.2500 -12.5000 Du        
  15954 ****       -11.2500  -8.0000 -14.7500 Du        
  15955 ****       -11.2500  -8.0000 -14.5000 Du        
  15956 ****       -11.2500  -8.0000 -14.2500 Du        
  15957 ****       -11.2500  -8.0000 -14.0000 Du        
  15958 ****       -11.2500  -8.0000 -13.7500 Du        
  15959 ****       -11.2500  -8.0000 -13.5000 Du        
  15960 ****       -11.2500  -8.0000 -13.2500 Du        
  15961 ****       -11.2500  -8.0000 -13.0000 Du        
  15962 ****       -11.2500  -8.0000 -12.7500 Du        
  15963 ****       -11.2500  -7.7500 -15.0000 Du        
  15964 ****       -11.2500  -7.7500 -14.7500 Du        
  15965 ****       -11.2500  -7.7500 -14.5000 Du        
  15966 ****       -11.2500  -7.7500 -14.2500 Du        
  15967 ****       -11.2500  -7.7500 -14.0000 Du        
  15968 ****       -11.2500  -7.7500 -13.7500 Du        
  15969 ****       -11.2500  -7.7500 -13.5000 Du        
  15970 ****       -11.2500  -7.7500 -13.2500 Du        
  15971 ****       -11.2500  -7.7500 -13.0000 Du        
  15972 ****       -11.2500  -7.5000 -15.0000 Du        
  15973 ****       -11.2500  -7.5000 -14.7500 Du        
  15974 ****       -11.2500  -7.5000 -14.5000 Du        
  15975 ****       -11.2500  -7.5000 -14.2500 Du        
  15976 ****       -11.2500  -7.5000 -14.0000 Du        
  15977 ****       -11.2500  -7.5000 -13.7500 Du        
  15978 ****       -11.2500  -7.5000 -13.5000 Du        
  15979 ****       -11.2500  -7.5000 -13.2500 Du        
  15980 ****       -11.2500  -7.5000 -13.0000 Du        
  15981 ****       -11.2500  -7.2500 -15.2500 Du        
  15982 ****       -11.2500  -7.2500 -15.0000 Du        
  15983 ****       -11.2500  -7.2500 -14.7500 Du        
  15984 ****       -11.2500  -7.2500 -14.5000 Du        
  15985 ****       -11.2500  -7.2500 -14.2500 Du        
  15986 ****       -11.2500  -7.2500 -14.0000 Du        
  15987 ****       -11.2500  -7.2500 -13.7500 Du        
  15988 ****       -11.2500  -7.2500 -13.5000 Du        
  15989 ****       -11.2500  -7.2500 -13.2500 Du        
  15990 ****       -11.2500  -7.0000 -15.0000 Du        
  15991 ****       -11.2500  -7.0000 -14.7500 Du        
  15992 ****       -11.2500  -7.0000 -14.5000 Du        
  15993 ****       -11.2500  -7.0000 -14.2500 Du        
  15994 ****       -11.2500  -7.0000 -14.0000 Du        
  15995 ****       -11.2500  -7.0000 -13.7500 Du        
  15996 ****       -11.2500  -7.0000 -13.5000 Du        
  15997 ****       -11.2500  -7.0000 -13.2500 Du        
  15998 ****       -11.2500  -6.7500 -14.0000 Du        
  15999 ****       -11.2500  -6.7500 -13.7500 Du        
  16000 ****       -11.2500  -6.7500 -13.5000 Du        
  16001 ****       -11.2500  -5.7500 -17.5000 Du        
  16002 ****       -11.2500  -5.7500 -17.2500 Du        
  16003 ****       -11.2500  -5.5000 -18.0000 Du        
  16004 ****       -11.2500  -5.5000 -17.7500 Du        
  16005 ****       -11.2500  -5.5000 -17.5000 Du        
  16006 ****       -11.2500  -5.5000 -17.2500 Du        
  16007 ****       -11.2500  -5.2500 -18.5000 Du        
  16008 ****       -11.2500  -5.2500 -18.2500 Du        
  16009 ****       -11.2500  -5.2500 -18.0000 Du        
  16010 ****       -11.2500  -5.2500 -17.7500 Du        
  16011 ****       -11.2500  -5.2500 -17.5000 Du        
  16012 ****       -11.2500  -5.2500 -17.2500 Du        
  16013 ****       -11.2500  -5.0000 -18.5000 Du        
  16014 ****       -11.2500  -5.0000 -18.2500 Du        
  16015 ****       -11.2500  -5.0000 -18.0000 Du        
  16016 ****       -11.2500  -5.0000 -17.7500 Du        
  16017 ****       -11.2500  -5.0000 -17.5000 Du        
  16018 ****       -11.2500  -4.7500 -18.0000 Du        
  16019 ****       -11.2500  -4.7500 -17.7500 Du        
  16020 ****       -11.2500  -4.7500 -17.5000 Du        
  16021 ****       -11.2500   0.7500 -28.2500 Du        
  16022 ****       -11.2500   0.7500 -28.0000 Du        
  16023 ****       -11.2500   1.0000 -28.7500 Du        
  16024 ****       -11.2500   1.2500 -28.7500 Du        
  16025 ****       -11.2500   1.5000 -30.0000 Du        
  16026 ****       -11.2500   1.5000 -29.7500 Du        
  16027 ****       -11.0000 -25.5000 -28.7500 Du        
  16028 ****       -11.0000 -25.5000 -28.5000 Du        
  16029 ****       -11.0000 -25.2500 -28.7500 Du        
  16030 ****       -11.0000 -25.2500 -28.5000 Du        
  16031 ****       -11.0000 -25.0000 -28.7500 Du        
  16032 ****       -11.0000 -25.0000 -28.5000 Du        
  16033 ****       -11.0000 -24.7500 -28.7500 Du        
  16034 ****       -11.0000 -24.7500 -28.5000 Du        
  16035 ****       -11.0000 -24.5000 -29.2500 Du        
  16036 ****       -11.0000 -24.5000 -29.0000 Du        
  16037 ****       -11.0000 -24.5000 -28.7500 Du        
  16038 ****       -11.0000 -24.5000 -28.5000 Du        
  16039 ****       -11.0000 -24.2500 -29.2500 Du        
  16040 ****       -11.0000 -24.2500 -29.0000 Du        
  16041 ****       -11.0000 -24.2500 -28.7500 Du        
  16042 ****       -11.0000 -24.2500 -28.5000 Du        
  16043 ****       -11.0000 -24.0000 -29.7500 Du        
  16044 ****       -11.0000 -24.0000 -29.5000 Du        
  16045 ****       -11.0000 -24.0000 -29.2500 Du        
  16046 ****       -11.0000 -24.0000 -29.0000 Du        
  16047 ****       -11.0000 -24.0000 -28.7500 Du        
  16048 ****       -11.0000 -24.0000 -28.5000 Du        
  16049 ****       -11.0000 -23.7500 -29.7500 Du        
  16050 ****       -11.0000 -23.7500 -29.5000 Du        
  16051 ****       -11.0000 -23.7500 -29.2500 Du        
  16052 ****       -11.0000 -23.7500 -29.0000 Du        
  16053 ****       -11.0000 -23.7500 -28.7500 Du        
  16054 ****       -11.0000 -23.7500 -28.5000 Du        
  16055 ****       -11.0000 -23.5000 -29.2500 Du        
  16056 ****       -11.0000 -23.5000 -29.0000 Du        
  16057 ****       -11.0000 -23.5000 -28.7500 Du        
  16058 ****       -11.0000 -23.5000 -28.5000 Du        
  16059 ****       -11.0000 -23.2500 -29.2500 Du        
  16060 ****       -11.0000 -23.2500 -29.0000 Du        
  16061 ****       -11.0000 -23.2500 -28.7500 Du        
  16062 ****       -11.0000 -23.2500 -28.5000 Du        
  16063 ****       -11.0000 -23.2500 -28.2500 Du        
  16064 ****       -11.0000 -23.0000 -28.7500 Du        
  16065 ****       -11.0000 -23.0000 -28.5000 Du        
  16066 ****       -11.0000 -23.0000 -28.2500 Du        
  16067 ****       -11.0000 -22.7500 -28.2500 Du        
  16068 ****       -11.0000 -21.5000 -26.2500 Du        
  16069 ****       -11.0000 -21.5000 -26.0000 Du        
  16070 ****       -11.0000 -21.5000 -25.5000 Du        
  16071 ****       -11.0000 -21.5000 -25.2500 Du        
  16072 ****       -11.0000 -21.2500 -26.2500 Du        
  16073 ****       -11.0000 -21.2500 -26.0000 Du        
  16074 ****       -11.0000 -21.2500 -25.7500 Du        
  16075 ****       -11.0000 -21.2500 -25.5000 Du        
  16076 ****       -11.0000 -21.2500 -25.2500 Du        
  16077 ****       -11.0000 -21.2500 -25.0000 Du        
  16078 ****       -11.0000 -21.2500 -24.7500 Du        
  16079 ****       -11.0000 -21.2500 -24.5000 Du        
  16080 ****       -11.0000 -21.2500 -24.2500 Du        
  16081 ****       -11.0000 -21.2500 -24.0000 Du        
  16082 ****       -11.0000 -21.2500 -23.7500 Du        
  16083 ****       -11.0000 -21.0000 -26.2500 Du        
  16084 ****       -11.0000 -21.0000 -26.0000 Du        
  16085 ****       -11.0000 -21.0000 -25.7500 Du        
  16086 ****       -11.0000 -21.0000 -25.5000 Du        
  16087 ****       -11.0000 -21.0000 -25.2500 Du        
  16088 ****       -11.0000 -21.0000 -25.0000 Du        
  16089 ****       -11.0000 -21.0000 -24.7500 Du        
  16090 ****       -11.0000 -21.0000 -24.5000 Du        
  16091 ****       -11.0000 -21.0000 -24.2500 Du        
  16092 ****       -11.0000 -21.0000 -24.0000 Du        
  16093 ****       -11.0000 -21.0000 -23.7500 Du        
  16094 ****       -11.0000 -20.7500 -26.0000 Du        
  16095 ****       -11.0000 -20.7500 -25.7500 Du        
  16096 ****       -11.0000 -20.7500 -25.5000 Du        
  16097 ****       -11.0000 -20.7500 -25.2500 Du        
  16098 ****       -11.0000 -20.7500 -25.0000 Du        
  16099 ****       -11.0000 -20.7500 -24.7500 Du        
  16100 ****       -11.0000 -20.7500 -24.5000 Du        
  16101 ****       -11.0000 -20.7500 -24.2500 Du        
  16102 ****       -11.0000 -20.7500 -24.0000 Du        
  16103 ****       -11.0000 -20.7500 -16.0000 Du        
  16104 ****       -11.0000 -20.5000 -25.7500 Du        
  16105 ****       -11.0000 -20.5000 -25.5000 Du        
  16106 ****       -11.0000 -20.5000 -25.2500 Du        
  16107 ****       -11.0000 -20.5000 -25.0000 Du        
  16108 ****       -11.0000 -20.5000 -24.7500 Du        
  16109 ****       -11.0000 -20.5000 -24.5000 Du        
  16110 ****       -11.0000 -20.5000 -24.2500 Du        
  16111 ****       -11.0000 -20.5000 -24.0000 Du        
  16112 ****       -11.0000 -20.5000 -16.2500 Du        
  16113 ****       -11.0000 -20.5000 -16.0000 Du        
  16114 ****       -11.0000 -20.2500 -25.7500 Du        
  16115 ****       -11.0000 -20.2500 -25.5000 Du        
  16116 ****       -11.0000 -20.2500 -25.2500 Du        
  16117 ****       -11.0000 -20.2500 -25.0000 Du        
  16118 ****       -11.0000 -20.2500 -24.7500 Du        
  16119 ****       -11.0000 -20.2500 -24.5000 Du        
  16120 ****       -11.0000 -20.2500 -24.2500 Du        
  16121 ****       -11.0000 -20.2500 -16.2500 Du        
  16122 ****       -11.0000 -20.0000 -25.5000 Du        
  16123 ****       -11.0000 -20.0000 -25.2500 Du        
  16124 ****       -11.0000 -20.0000 -25.0000 Du        
  16125 ****       -11.0000 -20.0000 -24.7500 Du        
  16126 ****       -11.0000 -20.0000 -24.5000 Du        
  16127 ****       -11.0000 -20.0000 -24.2500 Du        
  16128 ****       -11.0000 -20.0000 -16.2500 Du        
  16129 ****       -11.0000 -19.7500 -25.5000 Du        
  16130 ****       -11.0000 -19.7500 -25.2500 Du        
  16131 ****       -11.0000 -19.7500 -25.0000 Du        
  16132 ****       -11.0000 -19.7500 -24.7500 Du        
  16133 ****       -11.0000 -19.7500 -24.5000 Du        
  16134 ****       -11.0000 -19.7500 -16.2500 Du        
  16135 ****       -11.0000 -19.5000 -25.2500 Du        
  16136 ****       -11.0000 -19.5000 -25.0000 Du        
  16137 ****       -11.0000 -19.5000 -24.7500 Du        
  16138 ****       -11.0000 -19.2500 -25.2500 Du        
  16139 ****       -11.0000 -19.2500 -25.0000 Du        
  16140 ****       -11.0000 -17.2500  -8.7500 Du        
  16141 ****       -11.0000 -17.2500  -8.5000 Du        
  16142 ****       -11.0000 -17.2500  -8.2500 Du        
  16143 ****       -11.0000 -17.0000  -8.7500 Du        
  16144 ****       -11.0000 -17.0000  -8.5000 Du        
  16145 ****       -11.0000 -17.0000  -8.2500 Du        
  16146 ****       -11.0000 -17.0000  -8.0000 Du        
  16147 ****       -11.0000 -16.7500  -8.7500 Du        
  16148 ****       -11.0000 -16.7500  -8.5000 Du        
  16149 ****       -11.0000 -16.7500  -8.2500 Du        
  16150 ****       -11.0000 -16.7500  -8.0000 Du        
  16151 ****       -11.0000 -16.5000  -8.7500 Du        
  16152 ****       -11.0000 -16.5000  -8.5000 Du        
  16153 ****       -11.0000 -16.5000  -8.2500 Du        
  16154 ****       -11.0000 -16.5000  -8.0000 Du        
  16155 ****       -11.0000 -16.2500  -8.7500 Du        
  16156 ****       -11.0000 -16.2500  -8.5000 Du        
  16157 ****       -11.0000 -16.2500  -8.2500 Du        
  16158 ****       -11.0000 -16.0000  -8.7500 Du        
  16159 ****       -11.0000 -16.0000  -8.5000 Du        
  16160 ****       -11.0000 -16.0000  -8.2500 Du        
  16161 ****       -11.0000 -15.7500  -8.7500 Du        
  16162 ****       -11.0000 -15.7500  -8.5000 Du        
  16163 ****       -11.0000 -15.5000  -8.7500 Du        
  16164 ****       -11.0000 -15.2500  -9.0000 Du        
  16165 ****       -11.0000 -15.2500  -8.7500 Du        
  16166 ****       -11.0000 -15.0000  -9.0000 Du        
  16167 ****       -11.0000 -14.7500  -9.2500 Du        
  16168 ****       -11.0000 -14.7500  -9.0000 Du        
  16169 ****       -11.0000 -14.5000  -9.5000 Du        
  16170 ****       -11.0000 -14.5000  -9.2500 Du        
  16171 ****       -11.0000 -14.5000  -9.0000 Du        
  16172 ****       -11.0000 -14.2500  -9.5000 Du        
  16173 ****       -11.0000 -14.2500  -9.2500 Du        
  16174 ****       -11.0000 -14.2500  -9.0000 Du        
  16175 ****       -11.0000 -14.0000  -9.7500 Du        
  16176 ****       -11.0000 -14.0000  -9.5000 Du        
  16177 ****       -11.0000 -14.0000  -9.2500 Du        
  16178 ****       -11.0000 -13.7500  -9.7500 Du        
  16179 ****       -11.0000 -13.7500  -9.5000 Du        
  16180 ****       -11.0000 -13.7500  -9.2500 Du        
  16181 ****       -11.0000 -13.5000 -10.0000 Du        
  16182 ****       -11.0000 -13.5000  -9.7500 Du        
  16183 ****       -11.0000 -10.2500 -12.0000 Du        
  16184 ****       -11.0000 -10.2500 -11.7500 Du        
  16185 ****       -11.0000 -10.2500 -11.5000 Du        
  16186 ****       -11.0000 -10.2500 -11.2500 Du        
  16187 ****       -11.0000 -10.0000 -12.2500 Du        
  16188 ****       -11.0000 -10.0000 -12.0000 Du        
  16189 ****       -11.0000 -10.0000 -11.7500 Du        
  16190 ****       -11.0000 -10.0000 -11.5000 Du        
  16191 ****       -11.0000 -10.0000 -11.2500 Du        
  16192 ****       -11.0000  -9.7500 -12.2500 Du        
  16193 ****       -11.0000  -9.7500 -12.0000 Du        
  16194 ****       -11.0000  -9.7500 -11.7500 Du        
  16195 ****       -11.0000  -9.7500 -11.5000 Du        
  16196 ****       -11.0000  -9.7500 -11.2500 Du        
  16197 ****       -11.0000  -9.5000 -12.7500 Du        
  16198 ****       -11.0000  -9.5000 -12.5000 Du        
  16199 ****       -11.0000  -9.5000 -12.2500 Du        
  16200 ****       -11.0000  -9.5000 -12.0000 Du        
  16201 ****       -11.0000  -9.5000 -11.7500 Du        
  16202 ****       -11.0000  -9.5000 -11.5000 Du        
  16203 ****       -11.0000  -9.5000 -11.2500 Du        
  16204 ****       -11.0000  -9.5000 -11.0000 Du        
  16205 ****       -11.0000  -9.2500 -13.0000 Du        
  16206 ****       -11.0000  -9.2500 -12.7500 Du        
  16207 ****       -11.0000  -9.2500 -12.5000 Du        
  16208 ****       -11.0000  -9.2500 -12.2500 Du        
  16209 ****       -11.0000  -9.2500 -12.0000 Du        
  16210 ****       -11.0000  -9.2500 -11.7500 Du        
  16211 ****       -11.0000  -9.2500 -11.5000 Du        
  16212 ****       -11.0000  -9.2500 -11.2500 Du        
  16213 ****       -11.0000  -9.2500 -11.0000 Du        
  16214 ****       -11.0000  -9.0000 -13.7500 Du        
  16215 ****       -11.0000  -9.0000 -13.5000 Du        
  16216 ****       -11.0000  -9.0000 -13.2500 Du        
  16217 ****       -11.0000  -9.0000 -13.0000 Du        
  16218 ****       -11.0000  -9.0000 -12.7500 Du        
  16219 ****       -11.0000  -9.0000 -12.5000 Du        
  16220 ****       -11.0000  -9.0000 -12.2500 Du        
  16221 ****       -11.0000  -9.0000 -12.0000 Du        
  16222 ****       -11.0000  -9.0000 -11.7500 Du        
  16223 ****       -11.0000  -9.0000 -11.5000 Du        
  16224 ****       -11.0000  -9.0000 -11.2500 Du        
  16225 ****       -11.0000  -9.0000 -11.0000 Du        
  16226 ****       -11.0000  -8.7500 -14.0000 Du        
  16227 ****       -11.0000  -8.7500 -13.7500 Du        
  16228 ****       -11.0000  -8.7500 -13.5000 Du        
  16229 ****       -11.0000  -8.7500 -13.2500 Du        
  16230 ****       -11.0000  -8.7500 -13.0000 Du        
  16231 ****       -11.0000  -8.7500 -12.7500 Du        
  16232 ****       -11.0000  -8.7500 -12.5000 Du        
  16233 ****       -11.0000  -8.5000 -14.2500 Du        
  16234 ****       -11.0000  -8.5000 -14.0000 Du        
  16235 ****       -11.0000  -8.5000 -13.7500 Du        
  16236 ****       -11.0000  -8.5000 -13.5000 Du        
  16237 ****       -11.0000  -8.5000 -13.2500 Du        
  16238 ****       -11.0000  -8.5000 -13.0000 Du        
  16239 ****       -11.0000  -8.2500 -14.7500 Du        
  16240 ****       -11.0000  -8.2500 -14.5000 Du        
  16241 ****       -11.0000  -8.2500 -14.2500 Du        
  16242 ****       -11.0000  -8.2500 -14.0000 Du        
  16243 ****       -11.0000  -8.2500 -13.7500 Du        
  16244 ****       -11.0000  -8.2500 -13.5000 Du        
  16245 ****       -11.0000  -8.2500 -13.2500 Du        
  16246 ****       -11.0000  -8.2500 -13.0000 Du        
  16247 ****       -11.0000  -8.0000 -15.0000 Du        
  16248 ****       -11.0000  -8.0000 -14.7500 Du        
  16249 ****       -11.0000  -8.0000 -14.5000 Du        
  16250 ****       -11.0000  -8.0000 -14.2500 Du        
  16251 ****       -11.0000  -8.0000 -14.0000 Du        
  16252 ****       -11.0000  -8.0000 -13.7500 Du        
  16253 ****       -11.0000  -8.0000 -13.5000 Du        
  16254 ****       -11.0000  -8.0000 -13.2500 Du        
  16255 ****       -11.0000  -7.7500 -15.0000 Du        
  16256 ****       -11.0000  -7.7500 -14.7500 Du        
  16257 ****       -11.0000  -7.7500 -14.5000 Du        
  16258 ****       -11.0000  -7.7500 -14.2500 Du        
  16259 ****       -11.0000  -7.7500 -14.0000 Du        
  16260 ****       -11.0000  -7.7500 -13.7500 Du        
  16261 ****       -11.0000  -7.7500 -13.5000 Du        
  16262 ****       -11.0000  -7.7500 -13.2500 Du        
  16263 ****       -11.0000  -7.5000 -15.0000 Du        
  16264 ****       -11.0000  -7.5000 -14.7500 Du        
  16265 ****       -11.0000  -7.5000 -14.5000 Du        
  16266 ****       -11.0000  -7.5000 -14.2500 Du        
  16267 ****       -11.0000  -7.5000 -14.0000 Du        
  16268 ****       -11.0000  -7.5000 -13.7500 Du        
  16269 ****       -11.0000  -7.5000 -13.5000 Du        
  16270 ****       -11.0000  -7.2500 -14.7500 Du        
  16271 ****       -11.0000  -7.2500 -14.5000 Du        
  16272 ****       -11.0000  -7.2500 -14.2500 Du        
  16273 ****       -11.0000  -7.2500 -14.0000 Du        
  16274 ****       -11.0000  -7.2500 -13.7500 Du        
  16275 ****       -11.0000  -7.2500 -13.5000 Du        
  16276 ****       -11.0000  -7.0000 -14.2500 Du        
  16277 ****       -11.0000  -7.0000 -14.0000 Du        
  16278 ****       -11.0000  -7.0000 -13.7500 Du        
  16279 ****       -11.0000  -5.5000 -18.0000 Du        
  16280 ****       -11.0000  -5.5000 -17.7500 Du        
  16281 ****       -11.0000  -5.5000 -17.5000 Du        
  16282 ****       -11.0000  -5.2500 -18.2500 Du        
  16283 ****       -11.0000  -5.2500 -18.0000 Du        
  16284 ****       -11.0000  -5.2500 -17.7500 Du        
  16285 ****       -11.0000  -5.2500 -17.5000 Du        
  16286 ****       -11.0000  -5.0000 -18.0000 Du        
  16287 ****       -11.0000  -5.0000 -17.7500 Du        
  16288 ****       -11.0000  -5.0000 -17.5000 Du        
  16289 ****       -11.0000   0.7500 -28.7500 Du        
  16290 ****       -11.0000   0.7500 -28.5000 Du        
  16291 ****       -11.0000   0.7500 -28.2500 Du        
  16292 ****       -11.0000   1.0000 -29.2500 Du        
  16293 ****       -11.0000   1.0000 -29.0000 Du        
  16294 ****       -11.0000   1.0000 -28.7500 Du        
  16295 ****       -11.0000   1.0000 -28.5000 Du        
  16296 ****       -11.0000   1.0000 -28.2500 Du        
  16297 ****       -11.0000   1.2500 -30.2500 Du        
  16298 ****       -11.0000   1.2500 -30.0000 Du        
  16299 ****       -11.0000   1.2500 -29.7500 Du        
  16300 ****       -11.0000   1.2500 -29.5000 Du        
  16301 ****       -11.0000   1.2500 -29.2500 Du        
  16302 ****       -11.0000   1.2500 -29.0000 Du        
  16303 ****       -11.0000   1.2500 -28.7500 Du        
  16304 ****       -11.0000   1.5000 -30.2500 Du        
  16305 ****       -11.0000   1.5000 -30.0000 Du        
  16306 ****       -11.0000   1.5000 -29.7500 Du        
  16307 ****       -11.0000   1.5000 -29.5000 Du        
  16308 ****       -11.0000   1.5000 -29.2500 Du        
  16309 ****       -11.0000   1.5000 -29.0000 Du        
  16310 ****       -11.0000   1.7500 -30.2500 Du        
  16311 ****       -11.0000   1.7500 -30.0000 Du        
  16312 ****       -11.0000   1.7500 -29.7500 Du        
  16313 ****       -11.0000   1.7500 -29.5000 Du        
  16314 ****       -11.0000   1.7500 -29.2500 Du        
  16315 ****       -11.0000   2.0000 -29.7500 Du        
  16316 ****       -11.0000   2.2500 -29.7500 Du        
  16317 ****       -10.7500 -25.5000 -28.7500 Du        
  16318 ****       -10.7500 -25.2500 -28.7500 Du        
  16319 ****       -10.7500 -25.0000 -28.7500 Du        
  16320 ****       -10.7500 -24.7500 -28.7500 Du        
  16321 ****       -10.7500 -24.5000 -29.2500 Du        
  16322 ****       -10.7500 -24.5000 -29.0000 Du        
  16323 ****       -10.7500 -24.5000 -28.7500 Du        
  16324 ****       -10.7500 -24.2500 -29.2500 Du        
  16325 ****       -10.7500 -24.2500 -29.0000 Du        
  16326 ****       -10.7500 -24.2500 -28.7500 Du        
  16327 ****       -10.7500 -24.0000 -29.7500 Du        
  16328 ****       -10.7500 -24.0000 -29.5000 Du        
  16329 ****       -10.7500 -24.0000 -29.2500 Du        
  16330 ****       -10.7500 -24.0000 -29.0000 Du        
  16331 ****       -10.7500 -24.0000 -28.7500 Du        
  16332 ****       -10.7500 -23.7500 -29.7500 Du        
  16333 ****       -10.7500 -23.7500 -29.5000 Du        
  16334 ****       -10.7500 -23.7500 -29.2500 Du        
  16335 ****       -10.7500 -23.7500 -29.0000 Du        
  16336 ****       -10.7500 -23.7500 -28.7500 Du        
  16337 ****       -10.7500 -23.7500 -28.5000 Du        
  16338 ****       -10.7500 -23.5000 -29.2500 Du        
  16339 ****       -10.7500 -23.5000 -29.0000 Du        
  16340 ****       -10.7500 -23.5000 -28.7500 Du        
  16341 ****       -10.7500 -23.2500 -29.0000 Du        
  16342 ****       -10.7500 -23.2500 -28.7500 Du        
  16343 ****       -10.7500 -21.5000 -26.2500 Du        
  16344 ****       -10.7500 -21.2500 -26.5000 Du        
  16345 ****       -10.7500 -21.2500 -26.2500 Du        
  16346 ****       -10.7500 -21.2500 -26.0000 Du        
  16347 ****       -10.7500 -21.2500 -25.7500 Du        
  16348 ****       -10.7500 -21.2500 -25.5000 Du        
  16349 ****       -10.7500 -21.2500 -25.2500 Du        
  16350 ****       -10.7500 -21.2500 -25.0000 Du        
  16351 ****       -10.7500 -21.2500 -24.7500 Du        
  16352 ****       -10.7500 -21.2500 -24.5000 Du        
  16353 ****       -10.7500 -21.2500 -24.2500 Du        
  16354 ****       -10.7500 -21.2500 -24.0000 Du        
  16355 ****       -10.7500 -21.0000 -26.2500 Du        
  16356 ****       -10.7500 -21.0000 -26.0000 Du        
  16357 ****       -10.7500 -21.0000 -25.7500 Du        
  16358 ****       -10.7500 -21.0000 -25.5000 Du        
  16359 ****       -10.7500 -21.0000 -25.2500 Du        
  16360 ****       -10.7500 -21.0000 -25.0000 Du        
  16361 ****       -10.7500 -21.0000 -24.7500 Du        
  16362 ****       -10.7500 -21.0000 -24.5000 Du        
  16363 ****       -10.7500 -21.0000 -24.2500 Du        
  16364 ****       -10.7500 -21.0000 -24.0000 Du        
  16365 ****       -10.7500 -20.7500 -26.0000 Du        
  16366 ****       -10.7500 -20.7500 -25.7500 Du        
  16367 ****       -10.7500 -20.7500 -25.5000 Du        
  16368 ****       -10.7500 -20.7500 -25.2500 Du        
  16369 ****       -10.7500 -20.7500 -25.0000 Du        
  16370 ****       -10.7500 -20.7500 -24.7500 Du        
  16371 ****       -10.7500 -20.7500 -24.5000 Du        
  16372 ****       -10.7500 -20.7500 -24.2500 Du        
  16373 ****       -10.7500 -20.7500 -24.0000 Du        
  16374 ****       -10.7500 -20.7500 -16.0000 Du        
  16375 ****       -10.7500 -20.5000 -25.7500 Du        
  16376 ****       -10.7500 -20.5000 -25.5000 Du        
  16377 ****       -10.7500 -20.5000 -25.2500 Du        
  16378 ****       -10.7500 -20.5000 -25.0000 Du        
  16379 ****       -10.7500 -20.5000 -24.7500 Du        
  16380 ****       -10.7500 -20.5000 -24.5000 Du        
  16381 ****       -10.7500 -20.5000 -24.2500 Du        
  16382 ****       -10.7500 -20.5000 -16.2500 Du        
  16383 ****       -10.7500 -20.5000 -16.0000 Du        
  16384 ****       -10.7500 -20.2500 -25.7500 Du        
  16385 ****       -10.7500 -20.2500 -25.5000 Du        
  16386 ****       -10.7500 -20.2500 -25.2500 Du        
  16387 ****       -10.7500 -20.2500 -25.0000 Du        
  16388 ****       -10.7500 -20.2500 -24.7500 Du        
  16389 ****       -10.7500 -20.2500 -24.5000 Du        
  16390 ****       -10.7500 -20.2500 -24.2500 Du        
  16391 ****       -10.7500 -20.2500 -16.2500 Du        
  16392 ****       -10.7500 -20.0000 -25.5000 Du        
  16393 ****       -10.7500 -20.0000 -25.2500 Du        
  16394 ****       -10.7500 -20.0000 -25.0000 Du        
  16395 ****       -10.7500 -20.0000 -24.7500 Du        
  16396 ****       -10.7500 -20.0000 -24.5000 Du        
  16397 ****       -10.7500 -20.0000 -16.5000 Du        
  16398 ****       -10.7500 -20.0000 -16.2500 Du        
  16399 ****       -10.7500 -19.7500 -25.5000 Du        
  16400 ****       -10.7500 -19.7500 -25.2500 Du        
  16401 ****       -10.7500 -19.7500 -25.0000 Du        
  16402 ****       -10.7500 -19.7500 -24.7500 Du        
  16403 ****       -10.7500 -19.7500 -16.5000 Du        
  16404 ****       -10.7500 -19.7500 -16.2500 Du        
  16405 ****       -10.7500 -19.5000 -25.0000 Du        
  16406 ****       -10.7500 -17.2500  -8.5000 Du        
  16407 ****       -10.7500 -17.2500  -8.2500 Du        
  16408 ****       -10.7500 -17.0000  -8.5000 Du        
  16409 ****       -10.7500 -17.0000  -8.2500 Du        
  16410 ****       -10.7500 -17.0000  -8.0000 Du        
  16411 ****       -10.7500 -16.7500  -8.7500 Du        
  16412 ****       -10.7500 -16.7500  -8.5000 Du        
  16413 ****       -10.7500 -16.7500  -8.2500 Du        
  16414 ****       -10.7500 -16.7500  -8.0000 Du        
  16415 ****       -10.7500 -16.5000  -8.5000 Du        
  16416 ****       -10.7500 -16.5000  -8.2500 Du        
  16417 ****       -10.7500 -16.5000  -8.0000 Du        
  16418 ****       -10.7500 -16.2500  -8.7500 Du        
  16419 ****       -10.7500 -16.2500  -8.5000 Du        
  16420 ****       -10.7500 -16.2500  -8.2500 Du        
  16421 ****       -10.7500 -16.0000  -8.7500 Du        
  16422 ****       -10.7500 -16.0000  -8.5000 Du        
  16423 ****       -10.7500 -14.5000  -9.2500 Du        
  16424 ****       -10.7500 -14.2500  -9.5000 Du        
  16425 ****       -10.7500 -14.2500  -9.2500 Du        
  16426 ****       -10.7500 -14.0000  -9.5000 Du        
  16427 ****       -10.7500 -14.0000  -9.2500 Du        
  16428 ****       -10.7500 -10.5000 -11.5000 Du        
  16429 ****       -10.7500 -10.2500 -12.0000 Du        
  16430 ****       -10.7500 -10.2500 -11.7500 Du        
  16431 ****       -10.7500 -10.2500 -11.5000 Du        
  16432 ****       -10.7500 -10.2500 -11.2500 Du        
  16433 ****       -10.7500 -10.0000 -12.2500 Du        
  16434 ****       -10.7500 -10.0000 -12.0000 Du        
  16435 ****       -10.7500 -10.0000 -11.7500 Du        
  16436 ****       -10.7500 -10.0000 -11.5000 Du        
  16437 ****       -10.7500 -10.0000 -11.2500 Du        
  16438 ****       -10.7500 -10.0000 -11.0000 Du        
  16439 ****       -10.7500  -9.7500 -12.2500 Du        
  16440 ****       -10.7500  -9.7500 -12.0000 Du        
  16441 ****       -10.7500  -9.7500 -11.7500 Du        
  16442 ****       -10.7500  -9.7500 -11.5000 Du        
  16443 ****       -10.7500  -9.7500 -11.2500 Du        
  16444 ****       -10.7500  -9.7500 -11.0000 Du        
  16445 ****       -10.7500  -9.5000 -12.7500 Du        
  16446 ****       -10.7500  -9.5000 -12.5000 Du        
  16447 ****       -10.7500  -9.5000 -12.2500 Du        
  16448 ****       -10.7500  -9.5000 -12.0000 Du        
  16449 ****       -10.7500  -9.5000 -11.7500 Du        
  16450 ****       -10.7500  -9.5000 -11.5000 Du        
  16451 ****       -10.7500  -9.5000 -11.2500 Du        
  16452 ****       -10.7500  -9.5000 -11.0000 Du        
  16453 ****       -10.7500  -9.5000 -10.7500 Du        
  16454 ****       -10.7500  -9.2500 -13.2500 Du        
  16455 ****       -10.7500  -9.2500 -13.0000 Du        
  16456 ****       -10.7500  -9.2500 -12.7500 Du        
  16457 ****       -10.7500  -9.2500 -12.5000 Du        
  16458 ****       -10.7500  -9.2500 -12.2500 Du        
  16459 ****       -10.7500  -9.2500 -12.0000 Du        
  16460 ****       -10.7500  -9.2500 -11.7500 Du        
  16461 ****       -10.7500  -9.2500 -11.5000 Du        
  16462 ****       -10.7500  -9.2500 -11.2500 Du        
  16463 ****       -10.7500  -9.2500 -11.0000 Du        
  16464 ****       -10.7500  -9.2500 -10.7500 Du        
  16465 ****       -10.7500  -9.0000 -13.7500 Du        
  16466 ****       -10.7500  -9.0000 -13.2500 Du        
  16467 ****       -10.7500  -9.0000 -13.0000 Du        
  16468 ****       -10.7500  -9.0000 -12.7500 Du        
  16469 ****       -10.7500  -9.0000 -12.5000 Du        
  16470 ****       -10.7500  -9.0000 -11.0000 Du        
  16471 ****       -10.7500  -8.7500 -13.7500 Du        
  16472 ****       -10.7500  -8.7500 -13.5000 Du        
  16473 ****       -10.7500  -8.7500 -13.2500 Du        
  16474 ****       -10.7500  -8.5000 -14.2500 Du        
  16475 ****       -10.7500  -8.5000 -14.0000 Du        
  16476 ****       -10.7500  -8.5000 -13.7500 Du        
  16477 ****       -10.7500  -8.5000 -13.5000 Du        
  16478 ****       -10.7500  -8.5000 -13.2500 Du        
  16479 ****       -10.7500  -8.2500 -14.5000 Du        
  16480 ****       -10.7500  -8.2500 -14.2500 Du        
  16481 ****       -10.7500  -8.2500 -14.0000 Du        
  16482 ****       -10.7500  -8.2500 -13.7500 Du        
  16483 ****       -10.7500  -8.2500 -13.5000 Du        
  16484 ****       -10.7500  -8.0000 -14.7500 Du        
  16485 ****       -10.7500  -8.0000 -14.5000 Du        
  16486 ****       -10.7500  -8.0000 -14.2500 Du        
  16487 ****       -10.7500  -8.0000 -14.0000 Du        
  16488 ****       -10.7500  -8.0000 -13.7500 Du        
  16489 ****       -10.7500  -8.0000 -13.5000 Du        
  16490 ****       -10.7500  -7.7500 -14.5000 Du        
  16491 ****       -10.7500  -7.7500 -14.2500 Du        
  16492 ****       -10.7500  -7.7500 -14.0000 Du        
  16493 ****       -10.7500  -7.7500 -13.7500 Du        
  16494 ****       -10.7500  -7.5000 -14.5000 Du        
  16495 ****       -10.7500  -7.5000 -14.2500 Du        
  16496 ****       -10.7500   0.7500 -28.7500 Du        
  16497 ****       -10.7500   1.0000 -29.7500 Du        
  16498 ****       -10.7500   1.0000 -29.2500 Du        
  16499 ****       -10.7500   1.0000 -29.0000 Du        
  16500 ****       -10.7500   1.0000 -28.7500 Du        
  16501 ****       -10.7500   1.2500 -30.7500 Du        
  16502 ****       -10.7500   1.2500 -30.5000 Du        
  16503 ****       -10.7500   1.2500 -30.2500 Du        
  16504 ****       -10.7500   1.2500 -30.0000 Du        
  16505 ****       -10.7500   1.2500 -29.7500 Du        
  16506 ****       -10.7500   1.2500 -29.5000 Du        
  16507 ****       -10.7500   1.2500 -29.2500 Du        
  16508 ****       -10.7500   1.2500 -29.0000 Du        
  16509 ****       -10.7500   1.2500 -28.7500 Du        
  16510 ****       -10.7500   1.5000 -30.2500 Du        
  16511 ****       -10.7500   1.5000 -30.0000 Du        
  16512 ****       -10.7500   1.5000 -29.7500 Du        
  16513 ****       -10.7500   1.5000 -29.5000 Du        
  16514 ****       -10.7500   1.5000 -29.2500 Du        
  16515 ****       -10.7500   1.7500 -30.2500 Du        
  16516 ****       -10.7500   1.7500 -30.0000 Du        
  16517 ****       -10.7500   1.7500 -29.7500 Du        
  16518 ****       -10.7500   1.7500 -29.5000 Du        
  16519 ****       -10.7500   1.7500 -29.2500 Du        
  16520 ****       -10.7500   2.0000 -29.7500 Du        
  16521 ****       -10.7500   2.0000 -29.5000 Du        
  16522 ****       -10.7500   2.2500 -29.7500 Du        
  16523 ****       -10.5000 -25.0000 -29.2500 Du        
  16524 ****       -10.5000 -25.0000 -29.0000 Du        
  16525 ****       -10.5000 -24.7500 -29.2500 Du        
  16526 ****       -10.5000 -24.7500 -29.0000 Du        
  16527 ****       -10.5000 -24.5000 -29.5000 Du        
  16528 ****       -10.5000 -24.5000 -29.2500 Du        
  16529 ****       -10.5000 -24.2500 -29.5000 Du        
  16530 ****       -10.5000 -24.2500 -29.2500 Du        
  16531 ****       -10.5000 -24.2500 -29.0000 Du        
  16532 ****       -10.5000 -24.0000 -29.5000 Du        
  16533 ****       -10.5000 -24.0000 -29.2500 Du        
  16534 ****       -10.5000 -24.0000 -29.0000 Du        
  16535 ****       -10.5000 -23.7500 -29.5000 Du        
  16536 ****       -10.5000 -23.7500 -29.2500 Du        
  16537 ****       -10.5000 -23.7500 -29.0000 Du        
  16538 ****       -10.5000 -21.2500 -26.0000 Du        
  16539 ****       -10.5000 -21.2500 -25.7500 Du        
  16540 ****       -10.5000 -21.2500 -25.5000 Du        
  16541 ****       -10.5000 -21.2500 -25.2500 Du        
  16542 ****       -10.5000 -21.2500 -25.0000 Du        
  16543 ****       -10.5000 -21.2500 -24.7500 Du        
  16544 ****       -10.5000 -21.2500 -24.5000 Du        
  16545 ****       -10.5000 -21.2500 -24.2500 Du        
  16546 ****       -10.5000 -21.0000 -26.0000 Du        
  16547 ****       -10.5000 -21.0000 -25.7500 Du        
  16548 ****       -10.5000 -21.0000 -25.5000 Du        
  16549 ****       -10.5000 -21.0000 -25.2500 Du        
  16550 ****       -10.5000 -21.0000 -25.0000 Du        
  16551 ****       -10.5000 -21.0000 -24.7500 Du        
  16552 ****       -10.5000 -21.0000 -24.5000 Du        
  16553 ****       -10.5000 -21.0000 -24.2500 Du        
  16554 ****       -10.5000 -20.7500 -26.0000 Du        
  16555 ****       -10.5000 -20.7500 -25.7500 Du        
  16556 ****       -10.5000 -20.7500 -25.5000 Du        
  16557 ****       -10.5000 -20.7500 -25.2500 Du        
  16558 ****       -10.5000 -20.7500 -25.0000 Du        
  16559 ****       -10.5000 -20.7500 -24.7500 Du        
  16560 ****       -10.5000 -20.7500 -24.5000 Du        
  16561 ****       -10.5000 -20.7500 -24.2500 Du        
  16562 ****       -10.5000 -20.7500 -16.0000 Du        
  16563 ****       -10.5000 -20.5000 -25.7500 Du        
  16564 ****       -10.5000 -20.5000 -25.5000 Du        
  16565 ****       -10.5000 -20.5000 -25.2500 Du        
  16566 ****       -10.5000 -20.5000 -25.0000 Du        
  16567 ****       -10.5000 -20.5000 -24.7500 Du        
  16568 ****       -10.5000 -20.5000 -24.5000 Du        
  16569 ****       -10.5000 -20.5000 -16.2500 Du        
  16570 ****       -10.5000 -20.5000 -16.0000 Du        
  16571 ****       -10.5000 -20.2500 -25.7500 Du        
  16572 ****       -10.5000 -20.2500 -25.5000 Du        
  16573 ****       -10.5000 -20.2500 -25.2500 Du        
  16574 ****       -10.5000 -20.2500 -25.0000 Du        
  16575 ****       -10.5000 -20.2500 -24.7500 Du        
  16576 ****       -10.5000 -20.2500 -24.5000 Du        
  16577 ****       -10.5000 -20.2500 -16.5000 Du        
  16578 ****       -10.5000 -20.2500 -16.2500 Du        
  16579 ****       -10.5000 -20.0000 -25.5000 Du        
  16580 ****       -10.5000 -20.0000 -25.2500 Du        
  16581 ****       -10.5000 -20.0000 -25.0000 Du        
  16582 ****       -10.5000 -20.0000 -24.7500 Du        
  16583 ****       -10.5000 -20.0000 -16.5000 Du        
  16584 ****       -10.5000 -20.0000 -16.2500 Du        
  16585 ****       -10.5000 -19.7500 -25.2500 Du        
  16586 ****       -10.5000 -19.7500 -25.0000 Du        
  16587 ****       -10.5000 -19.7500 -16.5000 Du        
  16588 ****       -10.5000 -19.7500 -16.2500 Du        
  16589 ****       -10.5000 -19.5000 -16.2500 Du        
  16590 ****       -10.5000 -17.0000  -8.5000 Du        
  16591 ****       -10.5000 -17.0000  -8.2500 Du        
  16592 ****       -10.5000 -16.7500  -8.5000 Du        
  16593 ****       -10.5000 -16.7500  -8.2500 Du        
  16594 ****       -10.5000 -16.7500  -8.0000 Du        
  16595 ****       -10.5000 -16.5000  -8.5000 Du        
  16596 ****       -10.5000 -16.5000  -8.2500 Du        
  16597 ****       -10.5000 -16.5000  -8.0000 Du        
  16598 ****       -10.5000 -16.2500  -8.5000 Du        
  16599 ****       -10.5000 -16.2500  -8.2500 Du        
  16600 ****       -10.5000 -10.0000 -12.2500 Du        
  16601 ****       -10.5000 -10.0000 -12.0000 Du        
  16602 ****       -10.5000 -10.0000 -11.7500 Du        
  16603 ****       -10.5000 -10.0000 -11.5000 Du        
  16604 ****       -10.5000  -9.7500 -12.2500 Du        
  16605 ****       -10.5000  -9.7500 -12.0000 Du        
  16606 ****       -10.5000  -9.7500 -11.7500 Du        
  16607 ****       -10.5000  -9.7500 -11.5000 Du        
  16608 ****       -10.5000  -9.7500 -11.2500 Du        
  16609 ****       -10.5000  -9.5000 -12.5000 Du        
  16610 ****       -10.5000  -9.5000 -12.2500 Du        
  16611 ****       -10.5000  -9.5000 -12.0000 Du        
  16612 ****       -10.5000  -9.5000 -11.7500 Du        
  16613 ****       -10.5000  -9.5000 -11.5000 Du        
  16614 ****       -10.5000  -9.5000 -11.2500 Du        
  16615 ****       -10.5000  -9.5000 -11.0000 Du        
  16616 ****       -10.5000  -9.2500 -13.5000 Du        
  16617 ****       -10.5000  -9.2500 -13.2500 Du        
  16618 ****       -10.5000  -9.0000 -13.5000 Du        
  16619 ****       -10.5000  -9.0000 -13.2500 Du        
  16620 ****       -10.5000  -8.7500 -13.5000 Du        
  16621 ****       -10.5000  -8.5000 -13.5000 Du        
  16622 ****       -10.5000  -8.2500 -14.2500 Du        
  16623 ****       -10.5000  -8.2500 -14.0000 Du        
  16624 ****       -10.5000   1.2500 -30.2500 Du        
  16625 ****       -10.5000   1.2500 -30.0000 Du        
  16626 ****       -10.5000   1.2500 -29.7500 Du        
  16627 ****       -10.5000   1.2500 -29.2500 Du        
  16628 ****       -10.5000   1.2500 -29.0000 Du        
  16629 ****       -10.5000   1.5000 -30.2500 Du        
  16630 ****       -10.5000   1.5000 -30.0000 Du        
  16631 ****       -10.5000   1.5000 -29.7500 Du        
  16632 ****       -10.5000   1.5000 -29.5000 Du        
  16633 ****       -10.5000   1.5000 -29.2500 Du        
  16634 ****       -10.5000   1.7500 -30.2500 Du        
  16635 ****       -10.5000   1.7500 -30.0000 Du        
  16636 ****       -10.5000   1.7500 -29.7500 Du        
  16637 ****       -10.5000   1.7500 -29.5000 Du        
  16638 ****       -10.5000   1.7500 -29.2500 Du        
  16639 ****       -10.5000   2.0000 -29.7500 Du        
  16640 ****       -10.5000   2.0000 -29.5000 Du        
  16641 ****       -10.5000   2.0000 -29.2500 Du        
  16642 ****       -10.5000   2.2500 -29.7500 Du        
  16643 ****       -10.2500 -25.0000 -29.2500 Du        
  16644 ****       -10.2500 -25.0000 -29.0000 Du        
  16645 ****       -10.2500 -24.7500 -29.2500 Du        
  16646 ****       -10.2500 -24.7500 -29.0000 Du        
  16647 ****       -10.2500 -24.5000 -29.2500 Du        
  16648 ****       -10.2500 -24.2500 -29.2500 Du        
  16649 ****       -10.2500 -24.0000 -29.5000 Du        
  16650 ****       -10.2500 -24.0000 -29.2500 Du        
  16651 ****       -10.2500 -24.0000 -29.0000 Du        
  16652 ****       -10.2500 -23.7500 -29.2500 Du        
  16653 ****       -10.2500 -23.7500 -29.0000 Du        
  16654 ****       -10.2500 -21.2500 -26.0000 Du        
  16655 ****       -10.2500 -21.2500 -25.7500 Du        
  16656 ****       -10.2500 -21.2500 -25.5000 Du        
  16657 ****       -10.2500 -21.2500 -25.2500 Du        
  16658 ****       -10.2500 -21.2500 -25.0000 Du        
  16659 ****       -10.2500 -21.2500 -24.7500 Du        
  16660 ****       -10.2500 -21.2500 -24.5000 Du        
  16661 ****       -10.2500 -21.0000 -26.0000 Du        
  16662 ****       -10.2500 -21.0000 -25.7500 Du        
  16663 ****       -10.2500 -21.0000 -25.5000 Du        
  16664 ****       -10.2500 -21.0000 -25.2500 Du        
  16665 ****       -10.2500 -21.0000 -25.0000 Du        
  16666 ****       -10.2500 -21.0000 -24.7500 Du        
  16667 ****       -10.2500 -21.0000 -24.5000 Du        
  16668 ****       -10.2500 -21.0000 -24.2500 Du        
  16669 ****       -10.2500 -20.7500 -26.0000 Du        
  16670 ****       -10.2500 -20.7500 -25.7500 Du        
  16671 ****       -10.2500 -20.7500 -25.5000 Du        
  16672 ****       -10.2500 -20.7500 -25.2500 Du        
  16673 ****       -10.2500 -20.7500 -25.0000 Du        
  16674 ****       -10.2500 -20.7500 -24.7500 Du        
  16675 ****       -10.2500 -20.7500 -24.5000 Du        
  16676 ****       -10.2500 -20.7500 -16.0000 Du        
  16677 ****       -10.2500 -20.5000 -25.7500 Du        
  16678 ****       -10.2500 -20.5000 -25.5000 Du        
  16679 ****       -10.2500 -20.5000 -25.2500 Du        
  16680 ****       -10.2500 -20.5000 -25.0000 Du        
  16681 ****       -10.2500 -20.5000 -24.7500 Du        
  16682 ****       -10.2500 -20.5000 -16.2500 Du        
  16683 ****       -10.2500 -20.5000 -16.0000 Du        
  16684 ****       -10.2500 -20.2500 -25.5000 Du        
  16685 ****       -10.2500 -20.2500 -25.2500 Du        
  16686 ****       -10.2500 -20.2500 -25.0000 Du        
  16687 ****       -10.2500 -20.2500 -16.5000 Du        
  16688 ****       -10.2500 -20.2500 -16.2500 Du        
  16689 ****       -10.2500 -20.2500 -16.0000 Du        
  16690 ****       -10.2500 -20.0000 -25.5000 Du        
  16691 ****       -10.2500 -20.0000 -25.2500 Du        
  16692 ****       -10.2500 -20.0000 -25.0000 Du        
  16693 ****       -10.2500 -20.0000 -16.5000 Du        
  16694 ****       -10.2500 -20.0000 -16.2500 Du        
  16695 ****       -10.2500 -19.7500 -16.5000 Du        
  16696 ****       -10.2500 -19.7500 -16.2500 Du        
  16697 ****       -10.2500 -19.5000 -16.5000 Du        
  16698 ****       -10.2500 -19.5000 -16.2500 Du        
  16699 ****       -10.2500 -19.2500 -16.2500 Du        
  16700 ****       -10.2500 -16.7500  -8.2500 Du        
  16701 ****       -10.2500 -16.7500  -8.0000 Du        
  16702 ****       -10.2500 -16.5000  -8.2500 Du        
  16703 ****       -10.2500  -9.5000 -13.5000 Du        
  16704 ****       -10.2500  -9.2500 -13.5000 Du        
  16705 ****       -10.2500  -9.2500 -13.2500 Du        
  16706 ****       -10.2500  -9.2500 -13.0000 Du        
  16707 ****       -10.2500  -9.0000 -13.5000 Du        
  16708 ****       -10.2500  -9.0000 -13.2500 Du        
  16709 ****       -10.2500  -8.7500 -14.2500 Du        
  16710 ****       -10.2500   1.7500 -30.2500 Du        
  16711 ****       -10.2500   1.7500 -30.0000 Du        
  16712 ****       -10.2500   1.7500 -29.7500 Du        
  16713 ****       -10.2500   2.0000 -29.7500 Du        
  16714 ****       -10.2500   2.2500 -29.7500 Du        
  16715 ****       -10.2500   2.7500 -21.0000 Du        
  16716 ****       -10.0000 -25.0000 -29.2500 Du        
  16717 ****       -10.0000 -25.0000 -29.0000 Du        
  16718 ****       -10.0000 -24.7500 -29.2500 Du        
  16719 ****       -10.0000 -24.0000 -29.2500 Du        
  16720 ****       -10.0000 -24.0000 -29.0000 Du        
  16721 ****       -10.0000 -21.2500 -26.0000 Du        
  16722 ****       -10.0000 -21.2500 -25.7500 Du        
  16723 ****       -10.0000 -21.2500 -25.5000 Du        
  16724 ****       -10.0000 -21.2500 -25.2500 Du        
  16725 ****       -10.0000 -21.2500 -25.0000 Du        
  16726 ****       -10.0000 -21.2500 -24.7500 Du        
  16727 ****       -10.0000 -21.2500 -24.5000 Du        
  16728 ****       -10.0000 -21.0000 -26.0000 Du        
  16729 ****       -10.0000 -21.0000 -25.7500 Du        
  16730 ****       -10.0000 -21.0000 -25.5000 Du        
  16731 ****       -10.0000 -21.0000 -25.2500 Du        
  16732 ****       -10.0000 -21.0000 -25.0000 Du        
  16733 ****       -10.0000 -21.0000 -24.7500 Du        
  16734 ****       -10.0000 -21.0000 -24.5000 Du        
  16735 ****       -10.0000 -20.7500 -25.7500 Du        
  16736 ****       -10.0000 -20.7500 -25.5000 Du        
  16737 ****       -10.0000 -20.7500 -25.2500 Du        
  16738 ****       -10.0000 -20.7500 -25.0000 Du        
  16739 ****       -10.0000 -20.7500 -24.7500 Du        
  16740 ****       -10.0000 -20.7500 -16.0000 Du        
  16741 ****       -10.0000 -20.7500 -15.7500 Du        
  16742 ****       -10.0000 -20.5000 -25.2500 Du        
  16743 ****       -10.0000 -20.5000 -25.0000 Du        
  16744 ****       -10.0000 -20.5000 -16.5000 Du        
  16745 ****       -10.0000 -20.5000 -16.2500 Du        
  16746 ****       -10.0000 -20.5000 -16.0000 Du        
  16747 ****       -10.0000 -20.2500 -25.2500 Du        
  16748 ****       -10.0000 -20.2500 -16.7500 Du        
  16749 ****       -10.0000 -20.2500 -16.5000 Du        
  16750 ****       -10.0000 -20.2500 -16.2500 Du        
  16751 ****       -10.0000 -20.2500 -16.0000 Du        
  16752 ****       -10.0000 -20.0000 -16.7500 Du        
  16753 ****       -10.0000 -20.0000 -16.5000 Du        
  16754 ****       -10.0000 -20.0000 -16.2500 Du        
  16755 ****       -10.0000 -20.0000 -16.0000 Du        
  16756 ****       -10.0000 -19.7500 -16.5000 Du        
  16757 ****       -10.0000 -19.7500 -16.2500 Du        
  16758 ****       -10.0000 -19.7500 -16.0000 Du        
  16759 ****       -10.0000 -19.5000 -16.5000 Du        
  16760 ****       -10.0000 -19.5000 -16.2500 Du        
  16761 ****       -10.0000 -19.2500 -16.2500 Du        
  16762 ****       -10.0000 -11.2500 -28.2500 Du        
  16763 ****       -10.0000 -11.2500 -28.0000 Du        
  16764 ****       -10.0000 -11.0000 -28.2500 Du        
  16765 ****       -10.0000 -11.0000 -28.0000 Du        
  16766 ****       -10.0000 -11.0000 -27.7500 Du        
  16767 ****       -10.0000 -10.7500 -28.0000 Du        
  16768 ****       -10.0000 -10.7500 -27.7500 Du        
  16769 ****       -10.0000  -9.5000 -13.5000 Du        
  16770 ****       -10.0000  -9.5000 -13.2500 Du        
  16771 ****       -10.0000  -9.2500 -14.0000 Du        
  16772 ****       -10.0000  -9.2500 -13.7500 Du        
  16773 ****       -10.0000  -9.2500 -13.5000 Du        
  16774 ****       -10.0000  -9.2500 -13.2500 Du        
  16775 ****       -10.0000  -9.0000 -14.0000 Du        
  16776 ****       -10.0000  -9.0000 -13.7500 Du        
  16777 ****       -10.0000  -9.0000 -13.5000 Du        
  16778 ****       -10.0000  -6.2500 -28.0000 Du        
  16779 ****       -10.0000  -6.2500 -27.7500 Du        
  16780 ****       -10.0000   2.7500 -21.2500 Du        
  16781 ****       -10.0000   2.7500 -21.0000 Du        
  16782 ****       -10.0000   2.7500 -20.7500 Du        
  16783 ****       -10.0000   2.7500 -20.5000 Du        
  16784 ****       -10.0000   2.7500 -20.2500 Du        
  16785 ****       -10.0000   3.0000 -21.0000 Du        
  16786 ****       -10.0000   3.0000 -20.7500 Du        
  16787 ****       -10.0000   3.0000 -20.5000 Du        
  16788 ****        -9.7500 -25.0000 -29.2500 Du        
  16789 ****        -9.7500 -21.5000 -25.5000 Du        
  16790 ****        -9.7500 -21.5000 -25.2500 Du        
  16791 ****        -9.7500 -21.2500 -26.0000 Du        
  16792 ****        -9.7500 -21.2500 -25.7500 Du        
  16793 ****        -9.7500 -21.2500 -25.5000 Du        
  16794 ****        -9.7500 -21.2500 -25.2500 Du        
  16795 ****        -9.7500 -21.2500 -25.0000 Du        
  16796 ****        -9.7500 -21.2500 -24.7500 Du        
  16797 ****        -9.7500 -21.0000 -25.7500 Du        
  16798 ****        -9.7500 -21.0000 -25.5000 Du        
  16799 ****        -9.7500 -21.0000 -25.2500 Du        
  16800 ****        -9.7500 -21.0000 -25.0000 Du        
  16801 ****        -9.7500 -21.0000 -24.7500 Du        
  16802 ****        -9.7500 -20.7500 -25.5000 Du        
  16803 ****        -9.7500 -20.7500 -25.2500 Du        
  16804 ****        -9.7500 -20.7500 -25.0000 Du        
  16805 ****        -9.7500 -20.7500 -16.2500 Du        
  16806 ****        -9.7500 -20.7500 -16.0000 Du        
  16807 ****        -9.7500 -20.7500 -15.7500 Du        
  16808 ****        -9.7500 -20.5000 -16.5000 Du        
  16809 ****        -9.7500 -20.5000 -16.2500 Du        
  16810 ****        -9.7500 -20.5000 -16.0000 Du        
  16811 ****        -9.7500 -20.5000 -15.7500 Du        
  16812 ****        -9.7500 -20.2500 -16.7500 Du        
  16813 ****        -9.7500 -20.2500 -16.5000 Du        
  16814 ****        -9.7500 -20.2500 -16.2500 Du        
  16815 ****        -9.7500 -20.2500 -16.0000 Du        
  16816 ****        -9.7500 -20.2500 -15.7500 Du        
  16817 ****        -9.7500 -20.0000 -16.7500 Du        
  16818 ****        -9.7500 -20.0000 -16.5000 Du        
  16819 ****        -9.7500 -20.0000 -16.2500 Du        
  16820 ****        -9.7500 -20.0000 -16.0000 Du        
  16821 ****        -9.7500 -19.7500 -16.7500 Du        
  16822 ****        -9.7500 -19.7500 -16.5000 Du        
  16823 ****        -9.7500 -19.7500 -16.2500 Du        
  16824 ****        -9.7500 -19.7500 -16.0000 Du        
  16825 ****        -9.7500 -19.5000 -16.5000 Du        
  16826 ****        -9.7500 -19.5000 -16.2500 Du        
  16827 ****        -9.7500 -19.5000 -16.0000 Du        
  16828 ****        -9.7500 -19.2500 -16.5000 Du        
  16829 ****        -9.7500 -19.2500 -16.2500 Du        
  16830 ****        -9.7500 -19.2500 -16.0000 Du        
  16831 ****        -9.7500 -19.0000 -16.2500 Du        
  16832 ****        -9.7500 -19.0000 -16.0000 Du        
  16833 ****        -9.7500 -12.0000 -28.0000 Du        
  16834 ****        -9.7500 -11.7500 -28.2500 Du        
  16835 ****        -9.7500 -11.7500 -28.0000 Du        
  16836 ****        -9.7500 -11.7500 -27.7500 Du        
  16837 ****        -9.7500 -11.5000 -28.5000 Du        
  16838 ****        -9.7500 -11.5000 -28.2500 Du        
  16839 ****        -9.7500 -11.5000 -28.0000 Du        
  16840 ****        -9.7500 -11.5000 -27.7500 Du        
  16841 ****        -9.7500 -11.2500 -28.7500 Du        
  16842 ****        -9.7500 -11.2500 -28.5000 Du        
  16843 ****        -9.7500 -11.2500 -28.2500 Du        
  16844 ****        -9.7500 -11.2500 -28.0000 Du        
  16845 ****        -9.7500 -11.2500 -27.7500 Du        
  16846 ****        -9.7500 -11.0000 -28.5000 Du        
  16847 ****        -9.7500 -11.0000 -28.2500 Du        
  16848 ****        -9.7500 -11.0000 -28.0000 Du        
  16849 ****        -9.7500 -11.0000 -27.7500 Du        
  16850 ****        -9.7500 -10.7500 -28.2500 Du        
  16851 ****        -9.7500 -10.7500 -28.0000 Du        
  16852 ****        -9.7500 -10.7500 -27.7500 Du        
  16853 ****        -9.7500 -10.5000 -27.7500 Du        
  16854 ****        -9.7500  -9.2500 -14.2500 Du        
  16855 ****        -9.7500  -9.2500 -13.5000 Du        
  16856 ****        -9.7500  -9.0000 -14.2500 Du        
  16857 ****        -9.7500  -6.0000 -28.2500 Du        
  16858 ****        -9.7500  -6.0000 -28.0000 Du        
  16859 ****        -9.7500  -6.0000 -27.7500 Du        
  16860 ****        -9.7500   2.7500 -21.0000 Du        
  16861 ****        -9.7500   2.7500 -20.7500 Du        
  16862 ****        -9.7500   2.7500 -20.5000 Du        
  16863 ****        -9.7500   2.7500 -20.2500 Du        
  16864 ****        -9.7500   2.7500 -20.0000 Du        
  16865 ****        -9.7500   3.0000 -21.0000 Du        
  16866 ****        -9.7500   3.0000 -20.7500 Du        
  16867 ****        -9.7500   3.0000 -20.5000 Du        
  16868 ****        -9.7500   3.0000 -20.2500 Du        
  16869 ****        -9.7500   3.0000 -20.0000 Du        
  16870 ****        -9.7500   3.2500 -21.0000 Du        
  16871 ****        -9.7500   3.2500 -20.7500 Du        
  16872 ****        -9.7500   3.2500 -20.5000 Du        
  16873 ****        -9.7500   3.2500 -20.2500 Du        
  16874 ****        -9.5000 -21.2500 -25.5000 Du        
  16875 ****        -9.5000 -21.2500 -25.2500 Du        
  16876 ****        -9.5000 -21.0000 -25.5000 Du        
  16877 ****        -9.5000 -21.0000 -25.2500 Du        
  16878 ****        -9.5000 -21.0000 -15.7500 Du        
  16879 ****        -9.5000 -21.0000 -15.5000 Du        
  16880 ****        -9.5000 -20.7500 -16.2500 Du        
  16881 ****        -9.5000 -20.7500 -16.0000 Du        
  16882 ****        -9.5000 -20.7500 -15.7500 Du        
  16883 ****        -9.5000 -20.7500 -15.5000 Du        
  16884 ****        -9.5000 -20.5000 -16.7500 Du        
  16885 ****        -9.5000 -20.5000 -16.5000 Du        
  16886 ****        -9.5000 -20.5000 -16.2500 Du        
  16887 ****        -9.5000 -20.5000 -16.0000 Du        
  16888 ****        -9.5000 -20.5000 -15.7500 Du        
  16889 ****        -9.5000 -20.2500 -17.0000 Du        
  16890 ****        -9.5000 -20.2500 -16.7500 Du        
  16891 ****        -9.5000 -20.2500 -16.5000 Du        
  16892 ****        -9.5000 -20.2500 -16.2500 Du        
  16893 ****        -9.5000 -20.2500 -16.0000 Du        
  16894 ****        -9.5000 -20.2500 -15.7500 Du        
  16895 ****        -9.5000 -20.0000 -17.0000 Du        
  16896 ****        -9.5000 -20.0000 -16.7500 Du        
  16897 ****        -9.5000 -20.0000 -16.5000 Du        
  16898 ****        -9.5000 -20.0000 -16.2500 Du        
  16899 ****        -9.5000 -20.0000 -16.0000 Du        
  16900 ****        -9.5000 -20.0000 -15.7500 Du        
  16901 ****        -9.5000 -19.7500 -16.7500 Du        
  16902 ****        -9.5000 -19.7500 -16.5000 Du        
  16903 ****        -9.5000 -19.7500 -16.2500 Du        
  16904 ****        -9.5000 -19.7500 -16.0000 Du        
  16905 ****        -9.5000 -19.5000 -16.7500 Du        
  16906 ****        -9.5000 -19.5000 -16.5000 Du        
  16907 ****        -9.5000 -19.5000 -16.2500 Du        
  16908 ****        -9.5000 -19.5000 -16.0000 Du        
  16909 ****        -9.5000 -19.2500 -16.5000 Du        
  16910 ****        -9.5000 -19.2500 -16.2500 Du        
  16911 ****        -9.5000 -19.2500 -16.0000 Du        
  16912 ****        -9.5000 -19.0000 -16.2500 Du        
  16913 ****        -9.5000 -19.0000 -16.0000 Du        
  16914 ****        -9.5000 -18.7500 -16.2500 Du        
  16915 ****        -9.5000 -18.7500 -16.0000 Du        
  16916 ****        -9.5000 -18.5000 -16.2500 Du        
  16917 ****        -9.5000 -18.5000 -16.0000 Du        
  16918 ****        -9.5000 -18.2500 -16.0000 Du        
  16919 ****        -9.5000 -18.0000 -16.0000 Du        
  16920 ****        -9.5000 -17.7500 -16.0000 Du        
  16921 ****        -9.5000 -17.5000 -16.0000 Du        
  16922 ****        -9.5000 -17.2500 -16.0000 Du        
  16923 ****        -9.5000 -17.0000 -16.0000 Du        
  16924 ****        -9.5000 -17.0000 -15.7500 Du        
  16925 ****        -9.5000 -16.7500 -16.0000 Du        
  16926 ****        -9.5000 -16.7500 -15.7500 Du        
  16927 ****        -9.5000 -16.5000 -15.7500 Du        
  16928 ****        -9.5000 -16.2500 -15.7500 Du        
  16929 ****        -9.5000 -16.0000 -15.7500 Du        
  16930 ****        -9.5000 -15.7500 -15.7500 Du        
  16931 ****        -9.5000 -15.7500 -15.5000 Du        
  16932 ****        -9.5000 -15.0000 -15.2500 Du        
  16933 ****        -9.5000 -13.0000 -13.0000 Du        
  16934 ****        -9.5000 -13.0000 -12.7500 Du        
  16935 ****        -9.5000 -13.0000 -12.5000 Du        
  16936 ****        -9.5000 -12.7500 -13.0000 Du        
  16937 ****        -9.5000 -12.2500 -28.0000 Du        
  16938 ****        -9.5000 -12.2500 -27.7500 Du        
  16939 ****        -9.5000 -12.0000 -28.2500 Du        
  16940 ****        -9.5000 -12.0000 -28.0000 Du        
  16941 ****        -9.5000 -12.0000 -27.7500 Du        
  16942 ****        -9.5000 -11.7500 -28.5000 Du        
  16943 ****        -9.5000 -11.7500 -28.2500 Du        
  16944 ****        -9.5000 -11.7500 -28.0000 Du        
  16945 ****        -9.5000 -11.7500 -27.7500 Du        
  16946 ****        -9.5000 -11.5000 -28.5000 Du        
  16947 ****        -9.5000 -11.5000 -28.2500 Du        
  16948 ****        -9.5000 -11.5000 -28.0000 Du        
  16949 ****        -9.5000 -11.5000 -27.7500 Du        
  16950 ****        -9.5000 -11.2500 -28.5000 Du        
  16951 ****        -9.5000 -11.2500 -28.2500 Du        
  16952 ****        -9.5000 -11.2500 -28.0000 Du        
  16953 ****        -9.5000 -11.2500 -27.7500 Du        
  16954 ****        -9.5000 -11.0000 -28.5000 Du        
  16955 ****        -9.5000 -11.0000 -28.2500 Du        
  16956 ****        -9.5000 -11.0000 -28.0000 Du        
  16957 ****        -9.5000 -11.0000 -27.7500 Du        
  16958 ****        -9.5000 -10.7500 -28.2500 Du        
  16959 ****        -9.5000 -10.7500 -28.0000 Du        
  16960 ****        -9.5000 -10.7500 -27.7500 Du        
  16961 ****        -9.5000 -10.5000 -27.7500 Du        
  16962 ****        -9.5000  -9.5000 -14.2500 Du        
  16963 ****        -9.5000  -9.5000 -14.0000 Du        
  16964 ****        -9.5000  -9.2500 -15.0000 Du        
  16965 ****        -9.5000  -9.2500 -14.7500 Du        
  16966 ****        -9.5000  -9.2500 -14.5000 Du        
  16967 ****        -9.5000  -9.2500 -14.2500 Du        
  16968 ****        -9.5000  -9.2500 -14.0000 Du        
  16969 ****        -9.5000  -9.0000 -14.7500 Du        
  16970 ****        -9.5000  -9.0000 -14.5000 Du        
  16971 ****        -9.5000  -6.2500 -27.7500 Du        
  16972 ****        -9.5000  -6.0000 -28.2500 Du        
  16973 ****        -9.5000  -6.0000 -28.0000 Du        
  16974 ****        -9.5000  -6.0000 -27.7500 Du        
  16975 ****        -9.5000  -5.7500 -28.0000 Du        
  16976 ****        -9.5000  -5.7500 -27.7500 Du        
  16977 ****        -9.5000   2.7500 -20.5000 Du        
  16978 ****        -9.5000   2.7500 -20.2500 Du        
  16979 ****        -9.5000   2.7500 -20.0000 Du        
  16980 ****        -9.5000   2.7500 -19.7500 Du        
  16981 ****        -9.5000   3.0000 -20.7500 Du        
  16982 ****        -9.5000   3.0000 -20.5000 Du        
  16983 ****        -9.5000   3.0000 -20.2500 Du        
  16984 ****        -9.5000   3.0000 -20.0000 Du        
  16985 ****        -9.5000   3.0000 -19.7500 Du        
  16986 ****        -9.5000   3.2500 -20.7500 Du        
  16987 ****        -9.5000   3.2500 -20.5000 Du        
  16988 ****        -9.5000   3.2500 -20.2500 Du        
  16989 ****        -9.5000   3.2500 -20.0000 Du        
  16990 ****        -9.5000   3.5000 -20.5000 Du        
  16991 ****        -9.5000   3.5000 -20.2500 Du        
  16992 ****        -9.5000   3.7500 -20.5000 Du        
  16993 ****        -9.2500 -23.0000 -29.7500 Du        
  16994 ****        -9.2500 -21.5000 -25.5000 Du        
  16995 ****        -9.2500 -21.5000 -25.2500 Du        
  16996 ****        -9.2500 -21.2500 -25.7500 Du        
  16997 ****        -9.2500 -21.2500 -25.5000 Du        
  16998 ****        -9.2500 -21.2500 -25.2500 Du        
  16999 ****        -9.2500 -21.2500 -15.5000 Du        
  17000 ****        -9.2500 -21.0000 -25.7500 Du        
  17001 ****        -9.2500 -21.0000 -25.5000 Du        
  17002 ****        -9.2500 -21.0000 -25.2500 Du        
  17003 ****        -9.2500 -21.0000 -16.0000 Du        
  17004 ****        -9.2500 -21.0000 -15.7500 Du        
  17005 ****        -9.2500 -21.0000 -15.5000 Du        
  17006 ****        -9.2500 -20.7500 -16.5000 Du        
  17007 ****        -9.2500 -20.7500 -16.2500 Du        
  17008 ****        -9.2500 -20.7500 -16.0000 Du        
  17009 ****        -9.2500 -20.7500 -15.7500 Du        
  17010 ****        -9.2500 -20.7500 -15.5000 Du        
  17011 ****        -9.2500 -20.5000 -17.0000 Du        
  17012 ****        -9.2500 -20.5000 -16.7500 Du        
  17013 ****        -9.2500 -20.5000 -16.5000 Du        
  17014 ****        -9.2500 -20.5000 -16.2500 Du        
  17015 ****        -9.2500 -20.5000 -16.0000 Du        
  17016 ****        -9.2500 -20.5000 -15.7500 Du        
  17017 ****        -9.2500 -20.5000 -15.5000 Du        
  17018 ****        -9.2500 -20.2500 -17.0000 Du        
  17019 ****        -9.2500 -20.2500 -16.7500 Du        
  17020 ****        -9.2500 -20.2500 -16.5000 Du        
  17021 ****        -9.2500 -20.2500 -16.2500 Du        
  17022 ****        -9.2500 -20.2500 -16.0000 Du        
  17023 ****        -9.2500 -20.2500 -15.7500 Du        
  17024 ****        -9.2500 -20.0000 -17.0000 Du        
  17025 ****        -9.2500 -20.0000 -16.7500 Du        
  17026 ****        -9.2500 -20.0000 -16.5000 Du        
  17027 ****        -9.2500 -20.0000 -16.2500 Du        
  17028 ****        -9.2500 -20.0000 -16.0000 Du        
  17029 ****        -9.2500 -20.0000 -15.7500 Du        
  17030 ****        -9.2500 -19.7500 -17.0000 Du        
  17031 ****        -9.2500 -19.7500 -16.7500 Du        
  17032 ****        -9.2500 -19.7500 -16.5000 Du        
  17033 ****        -9.2500 -19.7500 -16.2500 Du        
  17034 ****        -9.2500 -19.7500 -16.0000 Du        
  17035 ****        -9.2500 -19.7500 -15.7500 Du        
  17036 ****        -9.2500 -19.5000 -16.7500 Du        
  17037 ****        -9.2500 -19.5000 -16.5000 Du        
  17038 ****        -9.2500 -19.5000 -16.2500 Du        
  17039 ****        -9.2500 -19.5000 -16.0000 Du        
  17040 ****        -9.2500 -19.5000 -15.7500 Du        
  17041 ****        -9.2500 -19.2500 -16.7500 Du        
  17042 ****        -9.2500 -19.2500 -16.5000 Du        
  17043 ****        -9.2500 -19.2500 -16.2500 Du        
  17044 ****        -9.2500 -19.2500 -16.0000 Du        
  17045 ****        -9.2500 -19.2500 -15.7500 Du        
  17046 ****        -9.2500 -19.0000 -16.5000 Du        
  17047 ****        -9.2500 -19.0000 -16.2500 Du        
  17048 ****        -9.2500 -19.0000 -16.0000 Du        
  17049 ****        -9.2500 -19.0000 -15.7500 Du        
  17050 ****        -9.2500 -18.7500 -16.5000 Du        
  17051 ****        -9.2500 -18.7500 -16.2500 Du        
  17052 ****        -9.2500 -18.7500 -16.0000 Du        
  17053 ****        -9.2500 -18.7500 -15.7500 Du        
  17054 ****        -9.2500 -18.5000 -16.2500 Du        
  17055 ****        -9.2500 -18.5000 -16.0000 Du        
  17056 ****        -9.2500 -18.5000 -15.7500 Du        
  17057 ****        -9.2500 -18.2500 -16.2500 Du        
  17058 ****        -9.2500 -18.2500 -16.0000 Du        
  17059 ****        -9.2500 -18.2500 -15.7500 Du        
  17060 ****        -9.2500 -18.0000 -16.2500 Du        
  17061 ****        -9.2500 -18.0000 -16.0000 Du        
  17062 ****        -9.2500 -18.0000 -15.7500 Du        
  17063 ****        -9.2500 -17.7500 -16.2500 Du        
  17064 ****        -9.2500 -17.7500 -16.0000 Du        
  17065 ****        -9.2500 -17.7500 -15.7500 Du        
  17066 ****        -9.2500 -17.5000 -16.2500 Du        
  17067 ****        -9.2500 -17.5000 -16.0000 Du        
  17068 ****        -9.2500 -17.5000 -15.7500 Du        
  17069 ****        -9.2500 -17.2500 -16.2500 Du        
  17070 ****        -9.2500 -17.2500 -16.0000 Du        
  17071 ****        -9.2500 -17.2500 -15.7500 Du        
  17072 ****        -9.2500 -17.0000 -16.2500 Du        
  17073 ****        -9.2500 -17.0000 -16.0000 Du        
  17074 ****        -9.2500 -17.0000 -15.7500 Du        
  17075 ****        -9.2500 -16.7500 -16.2500 Du        
  17076 ****        -9.2500 -16.7500 -16.0000 Du        
  17077 ****        -9.2500 -16.7500 -15.7500 Du        
  17078 ****        -9.2500 -16.7500 -15.5000 Du        
  17079 ****        -9.2500 -16.5000 -16.2500 Du        
  17080 ****        -9.2500 -16.5000 -16.0000 Du        
  17081 ****        -9.2500 -16.5000 -15.7500 Du        
  17082 ****        -9.2500 -16.5000 -15.5000 Du        
  17083 ****        -9.2500 -16.2500 -16.2500 Du        
  17084 ****        -9.2500 -16.2500 -16.0000 Du        
  17085 ****        -9.2500 -16.2500 -15.7500 Du        
  17086 ****        -9.2500 -16.2500 -15.5000 Du        
  17087 ****        -9.2500 -16.0000 -16.2500 Du        
  17088 ****        -9.2500 -16.0000 -16.0000 Du        
  17089 ****        -9.2500 -16.0000 -15.7500 Du        
  17090 ****        -9.2500 -16.0000 -15.5000 Du        
  17091 ****        -9.2500 -16.0000 -15.2500 Du        
  17092 ****        -9.2500 -15.7500 -16.0000 Du        
  17093 ****        -9.2500 -15.7500 -15.7500 Du        
  17094 ****        -9.2500 -15.7500 -15.5000 Du        
  17095 ****        -9.2500 -15.7500 -15.2500 Du        
  17096 ****        -9.2500 -15.5000 -16.0000 Du        
  17097 ****        -9.2500 -15.5000 -15.7500 Du        
  17098 ****        -9.2500 -15.5000 -15.5000 Du        
  17099 ****        -9.2500 -15.5000 -15.2500 Du        
  17100 ****        -9.2500 -15.2500 -15.7500 Du        
  17101 ****        -9.2500 -15.2500 -15.5000 Du        
  17102 ****        -9.2500 -15.2500 -15.2500 Du        
  17103 ****        -9.2500 -15.0000 -15.7500 Du        
  17104 ****        -9.2500 -15.0000 -15.2500 Du        
  17105 ****        -9.2500 -13.2500 -13.0000 Du        
  17106 ****        -9.2500 -13.0000 -13.2500 Du        
  17107 ****        -9.2500 -13.0000 -13.0000 Du        
  17108 ****        -9.2500 -13.0000 -12.7500 Du        
  17109 ****        -9.2500 -13.0000 -12.5000 Du        
  17110 ****        -9.2500 -12.7500 -13.0000 Du        
  17111 ****        -9.2500 -12.2500 -28.0000 Du        
  17112 ****        -9.2500 -12.2500 -27.7500 Du        
  17113 ****        -9.2500 -12.0000 -28.2500 Du        
  17114 ****        -9.2500 -12.0000 -28.0000 Du        
  17115 ****        -9.2500 -12.0000 -27.7500 Du        
  17116 ****        -9.2500 -11.7500 -28.5000 Du        
  17117 ****        -9.2500 -11.7500 -28.2500 Du        
  17118 ****        -9.2500 -11.7500 -28.0000 Du        
  17119 ****        -9.2500 -11.7500 -27.7500 Du        
  17120 ****        -9.2500 -11.5000 -28.5000 Du        
  17121 ****        -9.2500 -11.5000 -28.2500 Du        
  17122 ****        -9.2500 -11.5000 -28.0000 Du        
  17123 ****        -9.2500 -11.5000 -27.7500 Du        
  17124 ****        -9.2500 -11.2500 -28.5000 Du        
  17125 ****        -9.2500 -11.2500 -28.2500 Du        
  17126 ****        -9.2500 -11.2500 -28.0000 Du        
  17127 ****        -9.2500 -11.2500 -27.7500 Du        
  17128 ****        -9.2500 -11.0000 -28.5000 Du        
  17129 ****        -9.2500 -11.0000 -28.2500 Du        
  17130 ****        -9.2500 -11.0000 -28.0000 Du        
  17131 ****        -9.2500 -11.0000 -27.7500 Du        
  17132 ****        -9.2500 -10.7500 -28.2500 Du        
  17133 ****        -9.2500 -10.7500 -28.0000 Du        
  17134 ****        -9.2500 -10.7500 -27.7500 Du        
  17135 ****        -9.2500 -10.5000 -28.0000 Du        
  17136 ****        -9.2500 -10.5000 -27.7500 Du        
  17137 ****        -9.2500 -10.0000 -14.2500 Du        
  17138 ****        -9.2500  -9.7500 -14.5000 Du        
  17139 ****        -9.2500  -9.7500 -14.2500 Du        
  17140 ****        -9.2500  -9.5000 -15.0000 Du        
  17141 ****        -9.2500  -9.5000 -14.7500 Du        
  17142 ****        -9.2500  -9.5000 -14.5000 Du        
  17143 ****        -9.2500  -9.5000 -14.2500 Du        
  17144 ****        -9.2500  -9.2500 -15.2500 Du        
  17145 ****        -9.2500  -9.2500 -15.0000 Du        
  17146 ****        -9.2500  -9.2500 -14.7500 Du        
  17147 ****        -9.2500  -9.2500 -14.5000 Du        
  17148 ****        -9.2500  -9.2500 -14.2500 Du        
  17149 ****        -9.2500  -9.0000 -15.2500 Du        
  17150 ****        -9.2500  -9.0000 -15.0000 Du        
  17151 ****        -9.2500  -9.0000 -14.7500 Du        
  17152 ****        -9.2500  -9.0000 -14.5000 Du        
  17153 ****        -9.2500  -8.7500 -15.2500 Du        
  17154 ****        -9.2500  -6.2500 -27.7500 Du        
  17155 ****        -9.2500  -6.0000 -28.2500 Du        
  17156 ****        -9.2500  -6.0000 -28.0000 Du        
  17157 ****        -9.2500  -6.0000 -27.7500 Du        
  17158 ****        -9.2500  -5.7500 -28.2500 Du        
  17159 ****        -9.2500  -5.7500 -28.0000 Du        
  17160 ****        -9.2500  -5.7500 -27.7500 Du        
  17161 ****        -9.2500  -5.5000 -28.2500 Du        
  17162 ****        -9.2500  -5.5000 -28.0000 Du        
  17163 ****        -9.2500  -5.5000 -27.7500 Du        
  17164 ****        -9.2500   2.7500 -20.5000 Du        
  17165 ****        -9.2500   2.7500 -20.2500 Du        
  17166 ****        -9.2500   2.7500 -20.0000 Du        
  17167 ****        -9.2500   3.0000 -20.7500 Du        
  17168 ****        -9.2500   3.0000 -20.5000 Du        
  17169 ****        -9.2500   3.0000 -20.2500 Du        
  17170 ****        -9.2500   3.0000 -20.0000 Du        
  17171 ****        -9.2500   3.0000 -19.7500 Du        
  17172 ****        -9.2500   3.2500 -20.7500 Du        
  17173 ****        -9.2500   3.2500 -20.5000 Du        
  17174 ****        -9.2500   3.2500 -20.2500 Du        
  17175 ****        -9.2500   3.2500 -20.0000 Du        
  17176 ****        -9.2500   3.2500 -19.7500 Du        
  17177 ****        -9.2500   3.5000 -20.5000 Du        
  17178 ****        -9.2500   3.5000 -20.2500 Du        
  17179 ****        -9.2500   3.5000 -20.0000 Du        
  17180 ****        -9.2500   3.7500 -20.5000 Du        
  17181 ****        -9.2500   3.7500 -20.2500 Du        
  17182 ****        -9.0000 -23.0000 -30.0000 Du        
  17183 ****        -9.0000 -23.0000 -29.7500 Du        
  17184 ****        -9.0000 -22.7500 -30.0000 Du        
  17185 ****        -9.0000 -22.7500 -29.7500 Du        
  17186 ****        -9.0000 -21.7500 -25.7500 Du        
  17187 ****        -9.0000 -21.5000 -25.7500 Du        
  17188 ****        -9.0000 -21.5000 -25.5000 Du        
  17189 ****        -9.0000 -21.5000 -25.2500 Du        
  17190 ****        -9.0000 -21.2500 -25.7500 Du        
  17191 ****        -9.0000 -21.2500 -25.5000 Du        
  17192 ****        -9.0000 -21.2500 -25.2500 Du        
  17193 ****        -9.0000 -21.2500 -15.7500 Du        
  17194 ****        -9.0000 -21.2500 -15.5000 Du        
  17195 ****        -9.0000 -21.2500 -15.2500 Du        
  17196 ****        -9.0000 -21.0000 -25.7500 Du        
  17197 ****        -9.0000 -21.0000 -25.5000 Du        
  17198 ****        -9.0000 -21.0000 -16.0000 Du        
  17199 ****        -9.0000 -21.0000 -15.7500 Du        
  17200 ****        -9.0000 -21.0000 -15.5000 Du        
  17201 ****        -9.0000 -21.0000 -15.2500 Du        
  17202 ****        -9.0000 -20.7500 -16.7500 Du        
  17203 ****        -9.0000 -20.7500 -16.5000 Du        
  17204 ****        -9.0000 -20.7500 -16.2500 Du        
  17205 ****        -9.0000 -20.7500 -16.0000 Du        
  17206 ****        -9.0000 -20.7500 -15.7500 Du        
  17207 ****        -9.0000 -20.7500 -15.5000 Du        
  17208 ****        -9.0000 -20.7500 -15.2500 Du        
  17209 ****        -9.0000 -20.5000 -17.0000 Du        
  17210 ****        -9.0000 -20.5000 -16.7500 Du        
  17211 ****        -9.0000 -20.5000 -16.5000 Du        
  17212 ****        -9.0000 -20.5000 -16.2500 Du        
  17213 ****        -9.0000 -20.5000 -16.0000 Du        
  17214 ****        -9.0000 -20.5000 -15.7500 Du        
  17215 ****        -9.0000 -20.5000 -15.5000 Du        
  17216 ****        -9.0000 -20.2500 -17.0000 Du        
  17217 ****        -9.0000 -20.2500 -16.7500 Du        
  17218 ****        -9.0000 -20.2500 -16.5000 Du        
  17219 ****        -9.0000 -20.2500 -16.2500 Du        
  17220 ****        -9.0000 -20.2500 -16.0000 Du        
  17221 ****        -9.0000 -20.2500 -15.7500 Du        
  17222 ****        -9.0000 -20.2500 -15.5000 Du        
  17223 ****        -9.0000 -20.0000 -17.0000 Du        
  17224 ****        -9.0000 -20.0000 -16.7500 Du        
  17225 ****        -9.0000 -20.0000 -16.5000 Du        
  17226 ****        -9.0000 -20.0000 -16.2500 Du        
  17227 ****        -9.0000 -20.0000 -16.0000 Du        
  17228 ****        -9.0000 -20.0000 -15.7500 Du        
  17229 ****        -9.0000 -20.0000 -15.5000 Du        
  17230 ****        -9.0000 -19.7500 -17.0000 Du        
  17231 ****        -9.0000 -19.7500 -16.7500 Du        
  17232 ****        -9.0000 -19.7500 -16.5000 Du        
  17233 ****        -9.0000 -19.7500 -16.2500 Du        
  17234 ****        -9.0000 -19.7500 -16.0000 Du        
  17235 ****        -9.0000 -19.7500 -15.7500 Du        
  17236 ****        -9.0000 -19.7500 -15.5000 Du        
  17237 ****        -9.0000 -19.5000 -17.0000 Du        
  17238 ****        -9.0000 -19.5000 -16.7500 Du        
  17239 ****        -9.0000 -19.5000 -16.5000 Du        
  17240 ****        -9.0000 -19.5000 -16.2500 Du        
  17241 ****        -9.0000 -19.5000 -16.0000 Du        
  17242 ****        -9.0000 -19.5000 -15.7500 Du        
  17243 ****        -9.0000 -19.2500 -16.7500 Du        
  17244 ****        -9.0000 -19.2500 -16.5000 Du        
  17245 ****        -9.0000 -19.2500 -16.2500 Du        
  17246 ****        -9.0000 -19.2500 -16.0000 Du        
  17247 ****        -9.0000 -19.2500 -15.7500 Du        
  17248 ****        -9.0000 -19.0000 -16.7500 Du        
  17249 ****        -9.0000 -19.0000 -16.5000 Du        
  17250 ****        -9.0000 -19.0000 -16.2500 Du        
  17251 ****        -9.0000 -19.0000 -16.0000 Du        
  17252 ****        -9.0000 -19.0000 -15.7500 Du        
  17253 ****        -9.0000 -18.7500 -16.5000 Du        
  17254 ****        -9.0000 -18.7500 -16.2500 Du        
  17255 ****        -9.0000 -18.7500 -16.0000 Du        
  17256 ****        -9.0000 -18.7500 -15.7500 Du        
  17257 ****        -9.0000 -18.5000 -16.5000 Du        
  17258 ****        -9.0000 -18.5000 -16.2500 Du        
  17259 ****        -9.0000 -18.5000 -16.0000 Du        
  17260 ****        -9.0000 -18.5000 -15.7500 Du        
  17261 ****        -9.0000 -18.2500 -16.5000 Du        
  17262 ****        -9.0000 -18.2500 -16.2500 Du        
  17263 ****        -9.0000 -18.2500 -16.0000 Du        
  17264 ****        -9.0000 -18.2500 -15.7500 Du        
  17265 ****        -9.0000 -18.0000 -16.5000 Du        
  17266 ****        -9.0000 -18.0000 -16.2500 Du        
  17267 ****        -9.0000 -18.0000 -16.0000 Du        
  17268 ****        -9.0000 -18.0000 -15.7500 Du        
  17269 ****        -9.0000 -17.7500 -16.5000 Du        
  17270 ****        -9.0000 -17.7500 -16.2500 Du        
  17271 ****        -9.0000 -17.7500 -16.0000 Du        
  17272 ****        -9.0000 -17.7500 -15.7500 Du        
  17273 ****        -9.0000 -17.5000 -16.5000 Du        
  17274 ****        -9.0000 -17.5000 -16.2500 Du        
  17275 ****        -9.0000 -17.5000 -16.0000 Du        
  17276 ****        -9.0000 -17.5000 -15.7500 Du        
  17277 ****        -9.0000 -17.2500 -16.5000 Du        
  17278 ****        -9.0000 -17.2500 -16.2500 Du        
  17279 ****        -9.0000 -17.2500 -16.0000 Du        
  17280 ****        -9.0000 -17.2500 -15.7500 Du        
  17281 ****        -9.0000 -17.2500 -15.5000 Du        
  17282 ****        -9.0000 -17.0000 -16.5000 Du        
  17283 ****        -9.0000 -17.0000 -16.2500 Du        
  17284 ****        -9.0000 -17.0000 -16.0000 Du        
  17285 ****        -9.0000 -17.0000 -15.7500 Du        
  17286 ****        -9.0000 -17.0000 -15.5000 Du        
  17287 ****        -9.0000 -16.7500 -16.5000 Du        
  17288 ****        -9.0000 -16.7500 -16.2500 Du        
  17289 ****        -9.0000 -16.7500 -16.0000 Du        
  17290 ****        -9.0000 -16.7500 -15.7500 Du        
  17291 ****        -9.0000 -16.7500 -15.5000 Du        
  17292 ****        -9.0000 -16.5000 -16.5000 Du        
  17293 ****        -9.0000 -16.5000 -16.2500 Du        
  17294 ****        -9.0000 -16.5000 -16.0000 Du        
  17295 ****        -9.0000 -16.5000 -15.7500 Du        
  17296 ****        -9.0000 -16.5000 -15.5000 Du        
  17297 ****        -9.0000 -16.5000 -15.2500 Du        
  17298 ****        -9.0000 -16.2500 -16.5000 Du        
  17299 ****        -9.0000 -16.2500 -16.2500 Du        
  17300 ****        -9.0000 -16.2500 -16.0000 Du        
  17301 ****        -9.0000 -16.2500 -15.7500 Du        
  17302 ****        -9.0000 -16.2500 -15.5000 Du        
  17303 ****        -9.0000 -16.2500 -15.2500 Du        
  17304 ****        -9.0000 -16.0000 -16.5000 Du        
  17305 ****        -9.0000 -16.0000 -16.2500 Du        
  17306 ****        -9.0000 -16.0000 -16.0000 Du        
  17307 ****        -9.0000 -16.0000 -15.7500 Du        
  17308 ****        -9.0000 -16.0000 -15.5000 Du        
  17309 ****        -9.0000 -16.0000 -15.2500 Du        
  17310 ****        -9.0000 -15.7500 -16.5000 Du        
  17311 ****        -9.0000 -15.7500 -16.2500 Du        
  17312 ****        -9.0000 -15.7500 -16.0000 Du        
  17313 ****        -9.0000 -15.7500 -15.7500 Du        
  17314 ****        -9.0000 -15.7500 -15.5000 Du        
  17315 ****        -9.0000 -15.7500 -15.2500 Du        
  17316 ****        -9.0000 -15.5000 -16.2500 Du        
  17317 ****        -9.0000 -15.5000 -16.0000 Du        
  17318 ****        -9.0000 -15.5000 -15.7500 Du        
  17319 ****        -9.0000 -15.5000 -15.5000 Du        
  17320 ****        -9.0000 -15.5000 -15.2500 Du        
  17321 ****        -9.0000 -15.2500 -16.0000 Du        
  17322 ****        -9.0000 -15.2500 -15.7500 Du        
  17323 ****        -9.0000 -15.2500 -15.5000 Du        
  17324 ****        -9.0000 -13.0000 -13.0000 Du        
  17325 ****        -9.0000 -13.0000 -12.7500 Du        
  17326 ****        -9.0000 -13.0000 -12.5000 Du        
  17327 ****        -9.0000 -12.2500 -28.0000 Du        
  17328 ****        -9.0000 -12.2500 -27.7500 Du        
  17329 ****        -9.0000 -12.0000 -28.2500 Du        
  17330 ****        -9.0000 -12.0000 -28.0000 Du        
  17331 ****        -9.0000 -12.0000 -27.7500 Du        
  17332 ****        -9.0000 -11.7500 -28.2500 Du        
  17333 ****        -9.0000 -11.7500 -28.0000 Du        
  17334 ****        -9.0000 -11.7500 -27.7500 Du        
  17335 ****        -9.0000 -11.5000 -28.2500 Du        
  17336 ****        -9.0000 -11.5000 -28.0000 Du        
  17337 ****        -9.0000 -11.5000 -27.7500 Du        
  17338 ****        -9.0000 -11.2500 -28.2500 Du        
  17339 ****        -9.0000 -11.2500 -28.0000 Du        
  17340 ****        -9.0000 -11.2500 -27.7500 Du        
  17341 ****        -9.0000 -11.0000 -28.2500 Du        
  17342 ****        -9.0000 -11.0000 -28.0000 Du        
  17343 ****        -9.0000 -11.0000 -27.7500 Du        
  17344 ****        -9.0000 -10.7500 -28.2500 Du        
  17345 ****        -9.0000 -10.7500 -28.0000 Du        
  17346 ****        -9.0000 -10.7500 -27.7500 Du        
  17347 ****        -9.0000 -10.5000 -28.0000 Du        
  17348 ****        -9.0000 -10.5000 -27.7500 Du        
  17349 ****        -9.0000 -10.2500 -27.7500 Du        
  17350 ****        -9.0000 -10.0000 -14.5000 Du        
  17351 ****        -9.0000  -9.7500 -14.7500 Du        
  17352 ****        -9.0000  -9.7500 -14.5000 Du        
  17353 ****        -9.0000  -9.7500 -14.2500 Du        
  17354 ****        -9.0000  -9.5000 -15.2500 Du        
  17355 ****        -9.0000  -9.5000 -15.0000 Du        
  17356 ****        -9.0000  -9.5000 -14.7500 Du        
  17357 ****        -9.0000  -9.5000 -14.5000 Du        
  17358 ****        -9.0000  -9.2500 -15.2500 Du        
  17359 ****        -9.0000  -9.2500 -15.0000 Du        
  17360 ****        -9.0000  -9.2500 -14.7500 Du        
  17361 ****        -9.0000  -9.2500 -14.5000 Du        
  17362 ****        -9.0000  -9.0000 -15.5000 Du        
  17363 ****        -9.0000  -9.0000 -15.2500 Du        
  17364 ****        -9.0000  -9.0000 -15.0000 Du        
  17365 ****        -9.0000  -9.0000 -14.7500 Du        
  17366 ****        -9.0000  -6.0000 -28.0000 Du        
  17367 ****        -9.0000  -6.0000 -27.7500 Du        
  17368 ****        -9.0000  -5.7500 -28.2500 Du        
  17369 ****        -9.0000  -5.7500 -28.0000 Du        
  17370 ****        -9.0000  -5.7500 -27.7500 Du        
  17371 ****        -9.0000  -5.5000 -28.2500 Du        
  17372 ****        -9.0000  -5.5000 -28.0000 Du        
  17373 ****        -9.0000  -5.5000 -27.7500 Du        
  17374 ****        -9.0000  -5.2500 -28.2500 Du        
  17375 ****        -9.0000  -5.2500 -28.0000 Du        
  17376 ****        -9.0000  -5.2500 -27.7500 Du        
  17377 ****        -9.0000  -5.0000 -27.7500 Du        
  17378 ****        -9.0000   2.7500 -20.2500 Du        
  17379 ****        -9.0000   2.7500 -20.0000 Du        
  17380 ****        -9.0000   3.0000 -20.5000 Du        
  17381 ****        -9.0000   3.0000 -20.2500 Du        
  17382 ****        -9.0000   3.0000 -20.0000 Du        
  17383 ****        -9.0000   3.0000 -19.7500 Du        
  17384 ****        -9.0000   3.2500 -20.5000 Du        
  17385 ****        -9.0000   3.2500 -20.2500 Du        
  17386 ****        -9.0000   3.2500 -20.0000 Du        
  17387 ****        -9.0000   3.2500 -19.7500 Du        
  17388 ****        -9.0000   3.5000 -20.5000 Du        
  17389 ****        -9.0000   3.5000 -20.2500 Du        
  17390 ****        -9.0000   3.5000 -20.0000 Du        
  17391 ****        -9.0000   3.7500 -20.5000 Du        
  17392 ****        -9.0000   3.7500 -20.2500 Du        
  17393 ****        -8.7500 -27.5000  -8.7500 Du        
  17394 ****        -8.7500 -27.5000  -8.5000 Du        
  17395 ****        -8.7500 -27.2500  -9.0000 Du        
  17396 ****        -8.7500 -27.2500  -8.7500 Du        
  17397 ****        -8.7500 -27.2500  -8.5000 Du        
  17398 ****        -8.7500 -23.0000 -30.0000 Du        
  17399 ****        -8.7500 -23.0000 -29.7500 Du        
  17400 ****        -8.7500 -22.7500 -30.2500 Du        
  17401 ****        -8.7500 -22.7500 -30.0000 Du        
  17402 ****        -8.7500 -22.7500 -29.7500 Du        
  17403 ****        -8.7500 -22.5000 -30.5000 Du        
  17404 ****        -8.7500 -22.5000 -30.2500 Du        
  17405 ****        -8.7500 -22.5000 -30.0000 Du        
  17406 ****        -8.7500 -22.5000 -29.7500 Du        
  17407 ****        -8.7500 -22.2500 -30.2500 Du        
  17408 ****        -8.7500 -22.2500 -30.0000 Du        
  17409 ****        -8.7500 -21.5000 -25.5000 Du        
  17410 ****        -8.7500 -21.5000 -15.5000 Du        
  17411 ****        -8.7500 -21.2500 -25.5000 Du        
  17412 ****        -8.7500 -21.2500 -16.0000 Du        
  17413 ****        -8.7500 -21.2500 -15.7500 Du        
  17414 ****        -8.7500 -21.2500 -15.5000 Du        
  17415 ****        -8.7500 -21.2500 -15.2500 Du        
  17416 ****        -8.7500 -21.0000 -16.2500 Du        
  17417 ****        -8.7500 -21.0000 -16.0000 Du        
  17418 ****        -8.7500 -21.0000 -15.7500 Du        
  17419 ****        -8.7500 -21.0000 -15.5000 Du        
  17420 ****        -8.7500 -21.0000 -15.2500 Du        
  17421 ****        -8.7500 -20.7500 -16.7500 Du        
  17422 ****        -8.7500 -20.7500 -16.5000 Du        
  17423 ****        -8.7500 -20.7500 -16.2500 Du        
  17424 ****        -8.7500 -20.7500 -16.0000 Du        
  17425 ****        -8.7500 -20.7500 -15.7500 Du        
  17426 ****        -8.7500 -20.7500 -15.5000 Du        
  17427 ****        -8.7500 -20.7500 -15.2500 Du        
  17428 ****        -8.7500 -20.5000 -17.0000 Du        
  17429 ****        -8.7500 -20.5000 -16.7500 Du        
  17430 ****        -8.7500 -20.5000 -16.5000 Du        
  17431 ****        -8.7500 -20.5000 -16.2500 Du        
  17432 ****        -8.7500 -20.5000 -16.0000 Du        
  17433 ****        -8.7500 -20.5000 -15.7500 Du        
  17434 ****        -8.7500 -20.5000 -15.5000 Du        
  17435 ****        -8.7500 -20.5000 -15.2500 Du        
  17436 ****        -8.7500 -20.2500 -17.0000 Du        
  17437 ****        -8.7500 -20.2500 -16.7500 Du        
  17438 ****        -8.7500 -20.2500 -16.5000 Du        
  17439 ****        -8.7500 -20.2500 -16.2500 Du        
  17440 ****        -8.7500 -20.2500 -16.0000 Du        
  17441 ****        -8.7500 -20.2500 -15.7500 Du        
  17442 ****        -8.7500 -20.2500 -15.5000 Du        
  17443 ****        -8.7500 -20.2500 -15.2500 Du        
  17444 ****        -8.7500 -20.0000 -17.0000 Du        
  17445 ****        -8.7500 -20.0000 -16.7500 Du        
  17446 ****        -8.7500 -20.0000 -16.5000 Du        
  17447 ****        -8.7500 -20.0000 -16.2500 Du        
  17448 ****        -8.7500 -20.0000 -16.0000 Du        
  17449 ****        -8.7500 -20.0000 -15.7500 Du        
  17450 ****        -8.7500 -20.0000 -15.5000 Du        
  17451 ****        -8.7500 -19.7500 -17.0000 Du        
  17452 ****        -8.7500 -19.7500 -16.7500 Du        
  17453 ****        -8.7500 -19.7500 -16.5000 Du        
  17454 ****        -8.7500 -19.7500 -16.2500 Du        
  17455 ****        -8.7500 -19.7500 -16.0000 Du        
  17456 ****        -8.7500 -19.7500 -15.7500 Du        
  17457 ****        -8.7500 -19.7500 -15.5000 Du        
  17458 ****        -8.7500 -19.5000 -17.0000 Du        
  17459 ****        -8.7500 -19.5000 -16.7500 Du        
  17460 ****        -8.7500 -19.5000 -16.5000 Du        
  17461 ****        -8.7500 -19.5000 -16.2500 Du        
  17462 ****        -8.7500 -19.5000 -16.0000 Du        
  17463 ****        -8.7500 -19.5000 -15.7500 Du        
  17464 ****        -8.7500 -19.5000 -15.5000 Du        
  17465 ****        -8.7500 -19.2500 -17.0000 Du        
  17466 ****        -8.7500 -19.2500 -16.7500 Du        
  17467 ****        -8.7500 -19.2500 -16.5000 Du        
  17468 ****        -8.7500 -19.2500 -16.2500 Du        
  17469 ****        -8.7500 -19.2500 -16.0000 Du        
  17470 ****        -8.7500 -19.2500 -15.7500 Du        
  17471 ****        -8.7500 -19.2500 -15.5000 Du        
  17472 ****        -8.7500 -19.0000 -16.7500 Du        
  17473 ****        -8.7500 -19.0000 -16.5000 Du        
  17474 ****        -8.7500 -19.0000 -16.2500 Du        
  17475 ****        -8.7500 -19.0000 -16.0000 Du        
  17476 ****        -8.7500 -19.0000 -15.7500 Du        
  17477 ****        -8.7500 -19.0000 -15.5000 Du        
  17478 ****        -8.7500 -18.7500 -16.7500 Du        
  17479 ****        -8.7500 -18.7500 -16.5000 Du        
  17480 ****        -8.7500 -18.7500 -16.2500 Du        
  17481 ****        -8.7500 -18.7500 -16.0000 Du        
  17482 ****        -8.7500 -18.7500 -15.7500 Du        
  17483 ****        -8.7500 -18.7500 -15.5000 Du        
  17484 ****        -8.7500 -18.5000 -16.7500 Du        
  17485 ****        -8.7500 -18.5000 -16.5000 Du        
  17486 ****        -8.7500 -18.5000 -16.2500 Du        
  17487 ****        -8.7500 -18.5000 -16.0000 Du        
  17488 ****        -8.7500 -18.5000 -15.7500 Du        
  17489 ****        -8.7500 -18.5000 -15.5000 Du        
  17490 ****        -8.7500 -18.2500 -16.5000 Du        
  17491 ****        -8.7500 -18.2500 -16.2500 Du        
  17492 ****        -8.7500 -18.2500 -16.0000 Du        
  17493 ****        -8.7500 -18.2500 -15.7500 Du        
  17494 ****        -8.7500 -18.2500 -15.5000 Du        
  17495 ****        -8.7500 -18.0000 -16.5000 Du        
  17496 ****        -8.7500 -18.0000 -16.2500 Du        
  17497 ****        -8.7500 -18.0000 -16.0000 Du        
  17498 ****        -8.7500 -18.0000 -15.7500 Du        
  17499 ****        -8.7500 -18.0000 -15.5000 Du        
  17500 ****        -8.7500 -17.7500 -16.5000 Du        
  17501 ****        -8.7500 -17.7500 -16.2500 Du        
  17502 ****        -8.7500 -17.7500 -16.0000 Du        
  17503 ****        -8.7500 -17.7500 -15.7500 Du        
  17504 ****        -8.7500 -17.7500 -15.5000 Du        
  17505 ****        -8.7500 -17.5000 -16.5000 Du        
  17506 ****        -8.7500 -17.5000 -16.2500 Du        
  17507 ****        -8.7500 -17.5000 -16.0000 Du        
  17508 ****        -8.7500 -17.5000 -15.7500 Du        
  17509 ****        -8.7500 -17.5000 -15.5000 Du        
  17510 ****        -8.7500 -17.2500 -16.7500 Du        
  17511 ****        -8.7500 -17.2500 -16.5000 Du        
  17512 ****        -8.7500 -17.2500 -16.2500 Du        
  17513 ****        -8.7500 -17.2500 -16.0000 Du        
  17514 ****        -8.7500 -17.2500 -15.7500 Du        
  17515 ****        -8.7500 -17.2500 -15.5000 Du        
  17516 ****        -8.7500 -17.0000 -16.7500 Du        
  17517 ****        -8.7500 -17.0000 -16.5000 Du        
  17518 ****        -8.7500 -17.0000 -16.2500 Du        
  17519 ****        -8.7500 -17.0000 -16.0000 Du        
  17520 ****        -8.7500 -17.0000 -15.7500 Du        
  17521 ****        -8.7500 -17.0000 -15.5000 Du        
  17522 ****        -8.7500 -16.7500 -16.7500 Du        
  17523 ****        -8.7500 -16.7500 -16.5000 Du        
  17524 ****        -8.7500 -16.7500 -16.2500 Du        
  17525 ****        -8.7500 -16.7500 -16.0000 Du        
  17526 ****        -8.7500 -16.7500 -15.7500 Du        
  17527 ****        -8.7500 -16.7500 -15.5000 Du        
  17528 ****        -8.7500 -16.7500 -15.2500 Du        
  17529 ****        -8.7500 -16.5000 -16.7500 Du        
  17530 ****        -8.7500 -16.5000 -16.5000 Du        
  17531 ****        -8.7500 -16.5000 -16.2500 Du        
  17532 ****        -8.7500 -16.5000 -16.0000 Du        
  17533 ****        -8.7500 -16.5000 -15.7500 Du        
  17534 ****        -8.7500 -16.5000 -15.5000 Du        
  17535 ****        -8.7500 -16.5000 -15.2500 Du        
  17536 ****        -8.7500 -16.2500 -16.7500 Du        
  17537 ****        -8.7500 -16.2500 -16.5000 Du        
  17538 ****        -8.7500 -16.2500 -16.2500 Du        
  17539 ****        -8.7500 -16.2500 -16.0000 Du        
  17540 ****        -8.7500 -16.2500 -15.7500 Du        
  17541 ****        -8.7500 -16.2500 -15.5000 Du        
  17542 ****        -8.7500 -16.2500 -15.2500 Du        
  17543 ****        -8.7500 -16.0000 -16.7500 Du        
  17544 ****        -8.7500 -16.0000 -16.5000 Du        
  17545 ****        -8.7500 -16.0000 -16.2500 Du        
  17546 ****        -8.7500 -16.0000 -16.0000 Du        
  17547 ****        -8.7500 -16.0000 -15.7500 Du        
  17548 ****        -8.7500 -16.0000 -15.5000 Du        
  17549 ****        -8.7500 -16.0000 -15.2500 Du        
  17550 ****        -8.7500 -15.7500 -16.7500 Du        
  17551 ****        -8.7500 -15.7500 -16.5000 Du        
  17552 ****        -8.7500 -15.7500 -16.2500 Du        
  17553 ****        -8.7500 -15.7500 -16.0000 Du        
  17554 ****        -8.7500 -15.7500 -15.7500 Du        
  17555 ****        -8.7500 -15.7500 -15.5000 Du        
  17556 ****        -8.7500 -15.5000 -16.2500 Du        
  17557 ****        -8.7500 -15.5000 -16.0000 Du        
  17558 ****        -8.7500 -15.5000 -15.7500 Du        
  17559 ****        -8.7500 -15.2500 -16.0000 Du        
  17560 ****        -8.7500 -12.0000 -28.0000 Du        
  17561 ****        -8.7500 -12.0000 -27.7500 Du        
  17562 ****        -8.7500 -11.7500 -28.2500 Du        
  17563 ****        -8.7500 -11.7500 -28.0000 Du        
  17564 ****        -8.7500 -11.7500 -27.7500 Du        
  17565 ****        -8.7500 -11.5000 -28.2500 Du        
  17566 ****        -8.7500 -11.5000 -28.0000 Du        
  17567 ****        -8.7500 -11.5000 -27.7500 Du        
  17568 ****        -8.7500 -11.2500 -28.2500 Du        
  17569 ****        -8.7500 -11.2500 -28.0000 Du        
  17570 ****        -8.7500 -11.2500 -27.7500 Du        
  17571 ****        -8.7500 -11.0000 -28.2500 Du        
  17572 ****        -8.7500 -11.0000 -28.0000 Du        
  17573 ****        -8.7500 -11.0000 -27.7500 Du        
  17574 ****        -8.7500 -10.7500 -28.2500 Du        
  17575 ****        -8.7500 -10.7500 -28.0000 Du        
  17576 ****        -8.7500 -10.7500 -27.7500 Du        
  17577 ****        -8.7500 -10.5000 -28.0000 Du        
  17578 ****        -8.7500 -10.5000 -27.7500 Du        
  17579 ****        -8.7500 -10.2500 -27.7500 Du        
  17580 ****        -8.7500  -5.5000 -28.0000 Du        
  17581 ****        -8.7500  -5.5000 -27.7500 Du        
  17582 ****        -8.7500  -5.2500 -28.2500 Du        
  17583 ****        -8.7500  -5.2500 -28.0000 Du        
  17584 ****        -8.7500  -5.2500 -27.7500 Du        
  17585 ****        -8.7500  -5.2500 -27.5000 Du        
  17586 ****        -8.7500  -5.0000 -28.2500 Du        
  17587 ****        -8.7500  -5.0000 -28.0000 Du        
  17588 ****        -8.7500  -5.0000 -27.7500 Du        
  17589 ****        -8.7500  -4.7500 -28.0000 Du        
  17590 ****        -8.7500  -4.7500 -27.7500 Du        
  17591 ****        -8.7500   3.0000 -20.5000 Du        
  17592 ****        -8.7500   3.0000 -20.2500 Du        
  17593 ****        -8.7500   3.0000 -20.0000 Du        
  17594 ****        -8.7500   3.2500 -20.5000 Du        
  17595 ****        -8.7500   3.2500 -20.2500 Du        
  17596 ****        -8.7500   3.2500 -20.0000 Du        
  17597 ****        -8.7500   3.2500 -19.7500 Du        
  17598 ****        -8.7500   3.5000 -20.5000 Du        
  17599 ****        -8.7500   3.5000 -20.2500 Du        
  17600 ****        -8.7500   3.5000 -20.0000 Du        
  17601 ****        -8.7500   3.7500 -20.2500 Du        
  17602 ****        -8.7500   3.7500 -20.0000 Du        
  17603 ****        -8.5000 -29.0000  -3.0000 Du        
  17604 ****        -8.5000 -29.0000  -2.7500 Du        
  17605 ****        -8.5000 -29.0000  -2.5000 Du        
  17606 ****        -8.5000 -28.7500  -2.7500 Du        
  17607 ****        -8.5000 -28.7500  -2.5000 Du        
  17608 ****        -8.5000 -28.5000  -2.2500 Du        
  17609 ****        -8.5000 -27.7500 -14.7500 Du        
  17610 ****        -8.5000 -27.7500 -14.5000 Du        
  17611 ****        -8.5000 -27.7500 -14.2500 Du        
  17612 ****        -8.5000 -27.7500 -14.0000 Du        
  17613 ****        -8.5000 -27.7500 -13.7500 Du        
  17614 ****        -8.5000 -27.5000 -15.0000 Du        
  17615 ****        -8.5000 -27.5000 -14.7500 Du        
  17616 ****        -8.5000 -27.5000 -14.5000 Du        
  17617 ****        -8.5000 -27.5000 -14.2500 Du        
  17618 ****        -8.5000 -27.5000 -14.0000 Du        
  17619 ****        -8.5000 -27.5000 -13.7500 Du        
  17620 ****        -8.5000 -27.5000  -9.0000 Du        
  17621 ****        -8.5000 -27.5000  -8.7500 Du        
  17622 ****        -8.5000 -27.5000  -8.5000 Du        
  17623 ****        -8.5000 -27.2500 -15.0000 Du        
  17624 ****        -8.5000 -27.2500 -14.7500 Du        
  17625 ****        -8.5000 -27.2500 -14.5000 Du        
  17626 ****        -8.5000 -27.2500 -14.2500 Du        
  17627 ****        -8.5000 -27.2500 -14.0000 Du        
  17628 ****        -8.5000 -27.2500  -9.0000 Du        
  17629 ****        -8.5000 -27.2500  -8.7500 Du        
  17630 ****        -8.5000 -27.2500  -8.5000 Du        
  17631 ****        -8.5000 -27.0000  -9.0000 Du        
  17632 ****        -8.5000 -27.0000  -8.7500 Du        
  17633 ****        -8.5000 -27.0000  -8.5000 Du        
  17634 ****        -8.5000 -23.0000 -30.0000 Du        
  17635 ****        -8.5000 -22.7500 -30.2500 Du        
  17636 ****        -8.5000 -22.7500 -30.0000 Du        
  17637 ****        -8.5000 -22.7500 -29.7500 Du        
  17638 ****        -8.5000 -22.5000 -30.7500 Du        
  17639 ****        -8.5000 -22.5000 -30.5000 Du        
  17640 ****        -8.5000 -22.5000 -30.2500 Du        
  17641 ****        -8.5000 -22.5000 -30.0000 Du        
  17642 ****        -8.5000 -22.5000 -29.7500 Du        
  17643 ****        -8.5000 -22.2500 -30.7500 Du        
  17644 ****        -8.5000 -22.2500 -30.5000 Du        
  17645 ****        -8.5000 -22.2500 -30.2500 Du        
  17646 ****        -8.5000 -22.2500 -30.0000 Du        
  17647 ****        -8.5000 -22.2500 -29.7500 Du        
  17648 ****        -8.5000 -22.2500 -29.5000 Du        
  17649 ****        -8.5000 -22.0000 -30.7500 Du        
  17650 ****        -8.5000 -22.0000 -30.5000 Du        
  17651 ****        -8.5000 -22.0000 -30.2500 Du        
  17652 ****        -8.5000 -22.0000 -30.0000 Du        
  17653 ****        -8.5000 -22.0000 -29.7500 Du        
  17654 ****        -8.5000 -21.5000 -15.7500 Du        
  17655 ****        -8.5000 -21.5000 -15.5000 Du        
  17656 ****        -8.5000 -21.5000 -15.2500 Du        
  17657 ****        -8.5000 -21.2500 -16.2500 Du        
  17658 ****        -8.5000 -21.2500 -16.0000 Du        
  17659 ****        -8.5000 -21.2500 -15.7500 Du        
  17660 ****        -8.5000 -21.2500 -15.5000 Du        
  17661 ****        -8.5000 -21.2500 -15.2500 Du        
  17662 ****        -8.5000 -21.0000 -16.5000 Du        
  17663 ****        -8.5000 -21.0000 -16.2500 Du        
  17664 ****        -8.5000 -21.0000 -16.0000 Du        
  17665 ****        -8.5000 -21.0000 -15.7500 Du        
  17666 ****        -8.5000 -21.0000 -15.5000 Du        
  17667 ****        -8.5000 -21.0000 -15.2500 Du        
  17668 ****        -8.5000 -20.7500 -16.7500 Du        
  17669 ****        -8.5000 -20.7500 -16.5000 Du        
  17670 ****        -8.5000 -20.7500 -16.2500 Du        
  17671 ****        -8.5000 -20.7500 -16.0000 Du        
  17672 ****        -8.5000 -20.7500 -15.7500 Du        
  17673 ****        -8.5000 -20.7500 -15.5000 Du        
  17674 ****        -8.5000 -20.7500 -15.2500 Du        
  17675 ****        -8.5000 -20.5000 -17.0000 Du        
  17676 ****        -8.5000 -20.5000 -16.7500 Du        
  17677 ****        -8.5000 -20.5000 -16.5000 Du        
  17678 ****        -8.5000 -20.5000 -16.2500 Du        
  17679 ****        -8.5000 -20.5000 -16.0000 Du        
  17680 ****        -8.5000 -20.5000 -15.7500 Du        
  17681 ****        -8.5000 -20.5000 -15.5000 Du        
  17682 ****        -8.5000 -20.5000 -15.2500 Du        
  17683 ****        -8.5000 -20.2500 -17.0000 Du        
  17684 ****        -8.5000 -20.2500 -16.7500 Du        
  17685 ****        -8.5000 -20.2500 -16.5000 Du        
  17686 ****        -8.5000 -20.2500 -16.2500 Du        
  17687 ****        -8.5000 -20.2500 -16.0000 Du        
  17688 ****        -8.5000 -20.2500 -15.7500 Du        
  17689 ****        -8.5000 -20.2500 -15.5000 Du        
  17690 ****        -8.5000 -20.2500 -15.2500 Du        
  17691 ****        -8.5000 -20.0000 -17.0000 Du        
  17692 ****        -8.5000 -20.0000 -16.7500 Du        
  17693 ****        -8.5000 -20.0000 -16.5000 Du        
  17694 ****        -8.5000 -20.0000 -16.2500 Du        
  17695 ****        -8.5000 -20.0000 -16.0000 Du        
  17696 ****        -8.5000 -20.0000 -15.7500 Du        
  17697 ****        -8.5000 -20.0000 -15.5000 Du        
  17698 ****        -8.5000 -20.0000 -15.2500 Du        
  17699 ****        -8.5000 -19.7500 -17.0000 Du        
  17700 ****        -8.5000 -19.7500 -16.7500 Du        
  17701 ****        -8.5000 -19.7500 -16.5000 Du        
  17702 ****        -8.5000 -19.7500 -16.2500 Du        
  17703 ****        -8.5000 -19.7500 -16.0000 Du        
  17704 ****        -8.5000 -19.7500 -15.7500 Du        
  17705 ****        -8.5000 -19.7500 -15.5000 Du        
  17706 ****        -8.5000 -19.7500 -15.2500 Du        
  17707 ****        -8.5000 -19.5000 -16.7500 Du        
  17708 ****        -8.5000 -19.5000 -16.5000 Du        
  17709 ****        -8.5000 -19.5000 -16.2500 Du        
  17710 ****        -8.5000 -19.5000 -16.0000 Du        
  17711 ****        -8.5000 -19.5000 -15.7500 Du        
  17712 ****        -8.5000 -19.5000 -15.5000 Du        
  17713 ****        -8.5000 -19.2500 -16.7500 Du        
  17714 ****        -8.5000 -19.2500 -16.5000 Du        
  17715 ****        -8.5000 -19.2500 -16.2500 Du        
  17716 ****        -8.5000 -19.2500 -16.0000 Du        
  17717 ****        -8.5000 -19.2500 -15.7500 Du        
  17718 ****        -8.5000 -19.2500 -15.5000 Du        
  17719 ****        -8.5000 -19.0000 -17.0000 Du        
  17720 ****        -8.5000 -19.0000 -16.7500 Du        
  17721 ****        -8.5000 -19.0000 -16.5000 Du        
  17722 ****        -8.5000 -19.0000 -16.2500 Du        
  17723 ****        -8.5000 -19.0000 -16.0000 Du        
  17724 ****        -8.5000 -19.0000 -15.7500 Du        
  17725 ****        -8.5000 -19.0000 -15.5000 Du        
  17726 ****        -8.5000 -18.7500 -16.7500 Du        
  17727 ****        -8.5000 -18.7500 -16.5000 Du        
  17728 ****        -8.5000 -18.7500 -16.2500 Du        
  17729 ****        -8.5000 -18.7500 -16.0000 Du        
  17730 ****        -8.5000 -18.7500 -15.7500 Du        
  17731 ****        -8.5000 -18.7500 -15.5000 Du        
  17732 ****        -8.5000 -18.5000 -16.7500 Du        
  17733 ****        -8.5000 -18.5000 -16.5000 Du        
  17734 ****        -8.5000 -18.5000 -16.2500 Du        
  17735 ****        -8.5000 -18.5000 -16.0000 Du        
  17736 ****        -8.5000 -18.5000 -15.7500 Du        
  17737 ****        -8.5000 -18.5000 -15.5000 Du        
  17738 ****        -8.5000 -18.2500 -16.7500 Du        
  17739 ****        -8.5000 -18.2500 -16.5000 Du        
  17740 ****        -8.5000 -18.2500 -16.2500 Du        
  17741 ****        -8.5000 -18.2500 -16.0000 Du        
  17742 ****        -8.5000 -18.2500 -15.7500 Du        
  17743 ****        -8.5000 -18.2500 -15.5000 Du        
  17744 ****        -8.5000 -18.0000 -16.7500 Du        
  17745 ****        -8.5000 -18.0000 -16.5000 Du        
  17746 ****        -8.5000 -18.0000 -16.2500 Du        
  17747 ****        -8.5000 -18.0000 -16.0000 Du        
  17748 ****        -8.5000 -18.0000 -15.7500 Du        
  17749 ****        -8.5000 -18.0000 -15.5000 Du        
  17750 ****        -8.5000 -17.7500 -16.7500 Du        
  17751 ****        -8.5000 -17.7500 -16.5000 Du        
  17752 ****        -8.5000 -17.7500 -16.2500 Du        
  17753 ****        -8.5000 -17.7500 -16.0000 Du        
  17754 ****        -8.5000 -17.7500 -15.7500 Du        
  17755 ****        -8.5000 -17.7500 -15.5000 Du        
  17756 ****        -8.5000 -17.5000 -16.7500 Du        
  17757 ****        -8.5000 -17.5000 -16.5000 Du        
  17758 ****        -8.5000 -17.5000 -16.2500 Du        
  17759 ****        -8.5000 -17.5000 -16.0000 Du        
  17760 ****        -8.5000 -17.5000 -15.7500 Du        
  17761 ****        -8.5000 -17.5000 -15.5000 Du        
  17762 ****        -8.5000 -17.2500 -17.0000 Du        
  17763 ****        -8.5000 -17.2500 -16.7500 Du        
  17764 ****        -8.5000 -17.2500 -16.5000 Du        
  17765 ****        -8.5000 -17.2500 -16.2500 Du        
  17766 ****        -8.5000 -17.2500 -16.0000 Du        
  17767 ****        -8.5000 -17.2500 -15.7500 Du        
  17768 ****        -8.5000 -17.2500 -15.5000 Du        
  17769 ****        -8.5000 -17.0000 -17.0000 Du        
  17770 ****        -8.5000 -17.0000 -16.7500 Du        
  17771 ****        -8.5000 -17.0000 -16.5000 Du        
  17772 ****        -8.5000 -17.0000 -16.2500 Du        
  17773 ****        -8.5000 -17.0000 -16.0000 Du        
  17774 ****        -8.5000 -17.0000 -15.7500 Du        
  17775 ****        -8.5000 -17.0000 -15.5000 Du        
  17776 ****        -8.5000 -16.7500 -17.0000 Du        
  17777 ****        -8.5000 -16.7500 -16.7500 Du        
  17778 ****        -8.5000 -16.7500 -16.5000 Du        
  17779 ****        -8.5000 -16.7500 -16.2500 Du        
  17780 ****        -8.5000 -16.7500 -16.0000 Du        
  17781 ****        -8.5000 -16.7500 -15.7500 Du        
  17782 ****        -8.5000 -16.7500 -15.5000 Du        
  17783 ****        -8.5000 -16.5000 -17.0000 Du        
  17784 ****        -8.5000 -16.5000 -16.7500 Du        
  17785 ****        -8.5000 -16.5000 -16.5000 Du        
  17786 ****        -8.5000 -16.5000 -16.2500 Du        
  17787 ****        -8.5000 -16.5000 -16.0000 Du        
  17788 ****        -8.5000 -16.5000 -15.7500 Du        
  17789 ****        -8.5000 -16.2500 -17.2500 Du        
  17790 ****        -8.5000 -16.2500 -17.0000 Du        
  17791 ****        -8.5000 -16.2500 -16.7500 Du        
  17792 ****        -8.5000 -16.2500 -16.5000 Du        
  17793 ****        -8.5000 -16.2500 -16.2500 Du        
  17794 ****        -8.5000 -16.2500 -16.0000 Du        
  17795 ****        -8.5000 -16.2500 -15.7500 Du        
  17796 ****        -8.5000 -16.0000 -17.2500 Du        
  17797 ****        -8.5000 -16.0000 -17.0000 Du        
  17798 ****        -8.5000 -16.0000 -16.7500 Du        
  17799 ****        -8.5000 -16.0000 -16.5000 Du        
  17800 ****        -8.5000 -16.0000 -16.2500 Du        
  17801 ****        -8.5000 -16.0000 -16.0000 Du        
  17802 ****        -8.5000 -16.0000 -15.7500 Du        
  17803 ****        -8.5000 -15.7500 -17.0000 Du        
  17804 ****        -8.5000 -15.7500 -16.7500 Du        
  17805 ****        -8.5000 -15.7500 -16.5000 Du        
  17806 ****        -8.5000 -15.7500 -16.2500 Du        
  17807 ****        -8.5000 -15.7500 -16.0000 Du        
  17808 ****        -8.5000 -11.5000 -28.0000 Du        
  17809 ****        -8.5000 -11.5000 -27.7500 Du        
  17810 ****        -8.5000 -11.2500 -28.0000 Du        
  17811 ****        -8.5000 -11.2500 -27.7500 Du        
  17812 ****        -8.5000 -11.0000 -28.0000 Du        
  17813 ****        -8.5000 -11.0000 -27.7500 Du        
  17814 ****        -8.5000 -10.7500 -28.0000 Du        
  17815 ****        -8.5000 -10.7500 -27.7500 Du        
  17816 ****        -8.5000 -10.5000 -28.0000 Du        
  17817 ****        -8.5000 -10.5000 -27.7500 Du        
  17818 ****        -8.5000 -10.2500 -27.7500 Du        
  17819 ****        -8.5000  -5.2500 -27.7500 Du        
  17820 ****        -8.5000  -5.0000 -28.0000 Du        
  17821 ****        -8.5000  -5.0000 -27.7500 Du        
  17822 ****        -8.5000  -5.0000 -27.5000 Du        
  17823 ****        -8.5000  -5.0000 -27.2500 Du        
  17824 ****        -8.5000  -4.7500 -28.0000 Du        
  17825 ****        -8.5000  -4.7500 -27.7500 Du        
  17826 ****        -8.5000  -4.7500 -27.5000 Du        
  17827 ****        -8.5000  -4.7500 -27.2500 Du        
  17828 ****        -8.5000  -4.5000 -27.7500 Du        
  17829 ****        -8.2500 -29.0000  -3.2500 Du        
  17830 ****        -8.2500 -29.0000  -3.0000 Du        
  17831 ****        -8.2500 -29.0000  -2.7500 Du        
  17832 ****        -8.2500 -29.0000  -2.5000 Du        
  17833 ****        -8.2500 -28.7500  -2.7500 Du        
  17834 ****        -8.2500 -28.7500  -2.5000 Du        
  17835 ****        -8.2500 -28.5000  -2.7500 Du        
  17836 ****        -8.2500 -28.5000  -2.5000 Du        
  17837 ****        -8.2500 -28.5000  -2.2500 Du        
  17838 ****        -8.2500 -28.5000  -2.0000 Du        
  17839 ****        -8.2500 -28.0000 -15.0000 Du        
  17840 ****        -8.2500 -28.0000 -14.7500 Du        
  17841 ****        -8.2500 -28.0000 -14.5000 Du        
  17842 ****        -8.2500 -28.0000 -14.2500 Du        
  17843 ****        -8.2500 -28.0000 -14.0000 Du        
  17844 ****        -8.2500 -28.0000 -13.7500 Du        
  17845 ****        -8.2500 -27.7500 -15.2500 Du        
  17846 ****        -8.2500 -27.7500 -15.0000 Du        
  17847 ****        -8.2500 -27.7500 -14.7500 Du        
  17848 ****        -8.2500 -27.7500 -14.5000 Du        
  17849 ****        -8.2500 -27.7500 -14.2500 Du        
  17850 ****        -8.2500 -27.7500 -14.0000 Du        
  17851 ****        -8.2500 -27.7500 -13.7500 Du        
  17852 ****        -8.2500 -27.5000 -15.2500 Du        
  17853 ****        -8.2500 -27.5000 -15.0000 Du        
  17854 ****        -8.2500 -27.5000 -14.7500 Du        
  17855 ****        -8.2500 -27.5000 -14.5000 Du        
  17856 ****        -8.2500 -27.5000 -14.2500 Du        
  17857 ****        -8.2500 -27.5000 -14.0000 Du        
  17858 ****        -8.2500 -27.5000 -13.7500 Du        
  17859 ****        -8.2500 -27.5000  -9.2500 Du        
  17860 ****        -8.2500 -27.5000  -9.0000 Du        
  17861 ****        -8.2500 -27.5000  -8.7500 Du        
  17862 ****        -8.2500 -27.5000  -8.5000 Du        
  17863 ****        -8.2500 -27.5000  -8.2500 Du        
  17864 ****        -8.2500 -27.2500 -15.2500 Du        
  17865 ****        -8.2500 -27.2500 -15.0000 Du        
  17866 ****        -8.2500 -27.2500 -14.7500 Du        
  17867 ****        -8.2500 -27.2500 -14.5000 Du        
  17868 ****        -8.2500 -27.2500 -14.2500 Du        
  17869 ****        -8.2500 -27.2500 -14.0000 Du        
  17870 ****        -8.2500 -27.2500 -13.7500 Du        
  17871 ****        -8.2500 -27.2500  -9.5000 Du        
  17872 ****        -8.2500 -27.2500  -9.2500 Du        
  17873 ****        -8.2500 -27.2500  -9.0000 Du        
  17874 ****        -8.2500 -27.2500  -8.7500 Du        
  17875 ****        -8.2500 -27.2500  -8.5000 Du        
  17876 ****        -8.2500 -27.2500  -8.2500 Du        
  17877 ****        -8.2500 -27.0000 -15.0000 Du        
  17878 ****        -8.2500 -27.0000 -14.7500 Du        
  17879 ****        -8.2500 -27.0000 -14.5000 Du        
  17880 ****        -8.2500 -27.0000  -9.2500 Du        
  17881 ****        -8.2500 -27.0000  -9.0000 Du        
  17882 ****        -8.2500 -27.0000  -8.7500 Du        
  17883 ****        -8.2500 -27.0000  -8.5000 Du        
  17884 ****        -8.2500 -27.0000  -8.2500 Du        
  17885 ****        -8.2500 -26.7500  -9.0000 Du        
  17886 ****        -8.2500 -26.7500  -8.7500 Du        
  17887 ****        -8.2500 -23.0000 -30.0000 Du        
  17888 ****        -8.2500 -23.0000 -29.7500 Du        
  17889 ****        -8.2500 -22.7500 -30.2500 Du        
  17890 ****        -8.2500 -22.7500 -30.0000 Du        
  17891 ****        -8.2500 -22.7500 -29.7500 Du        
  17892 ****        -8.2500 -22.5000 -30.7500 Du        
  17893 ****        -8.2500 -22.5000 -30.5000 Du        
  17894 ****        -8.2500 -22.5000 -30.2500 Du        
  17895 ****        -8.2500 -22.5000 -30.0000 Du        
  17896 ****        -8.2500 -22.5000 -29.7500 Du        
  17897 ****        -8.2500 -22.5000 -29.5000 Du        
  17898 ****        -8.2500 -22.2500 -31.0000 Du        
  17899 ****        -8.2500 -22.2500 -30.7500 Du        
  17900 ****        -8.2500 -22.2500 -30.5000 Du        
  17901 ****        -8.2500 -22.2500 -30.2500 Du        
  17902 ****        -8.2500 -22.2500 -30.0000 Du        
  17903 ****        -8.2500 -22.2500 -29.7500 Du        
  17904 ****        -8.2500 -22.2500 -29.5000 Du        
  17905 ****        -8.2500 -22.2500 -29.2500 Du        
  17906 ****        -8.2500 -22.0000 -31.0000 Du        
  17907 ****        -8.2500 -22.0000 -30.7500 Du        
  17908 ****        -8.2500 -22.0000 -30.5000 Du        
  17909 ****        -8.2500 -22.0000 -30.2500 Du        
  17910 ****        -8.2500 -22.0000 -30.0000 Du        
  17911 ****        -8.2500 -22.0000 -29.7500 Du        
  17912 ****        -8.2500 -22.0000 -29.5000 Du        
  17913 ****        -8.2500 -22.0000 -29.2500 Du        
  17914 ****        -8.2500 -21.7500 -31.0000 Du        
  17915 ****        -8.2500 -21.7500 -30.7500 Du        
  17916 ****        -8.2500 -21.7500 -30.5000 Du        
  17917 ****        -8.2500 -21.7500 -30.2500 Du        
  17918 ****        -8.2500 -21.7500 -30.0000 Du        
  17919 ****        -8.2500 -21.7500 -29.7500 Du        
  17920 ****        -8.2500 -21.7500 -29.5000 Du        
  17921 ****        -8.2500 -21.7500 -29.2500 Du        
  17922 ****        -8.2500 -21.7500 -15.7500 Du        
  17923 ****        -8.2500 -21.7500 -15.5000 Du        
  17924 ****        -8.2500 -21.5000 -30.7500 Du        
  17925 ****        -8.2500 -21.5000 -30.5000 Du        
  17926 ****        -8.2500 -21.5000 -30.2500 Du        
  17927 ****        -8.2500 -21.5000 -30.0000 Du        
  17928 ****        -8.2500 -21.5000 -29.7500 Du        
  17929 ****        -8.2500 -21.5000 -16.0000 Du        
  17930 ****        -8.2500 -21.5000 -15.7500 Du        
  17931 ****        -8.2500 -21.5000 -15.5000 Du        
  17932 ****        -8.2500 -21.5000 -15.2500 Du        
  17933 ****        -8.2500 -21.2500 -30.2500 Du        
  17934 ****        -8.2500 -21.2500 -30.0000 Du        
  17935 ****        -8.2500 -21.2500 -29.7500 Du        
  17936 ****        -8.2500 -21.2500 -16.5000 Du        
  17937 ****        -8.2500 -21.2500 -16.2500 Du        
  17938 ****        -8.2500 -21.2500 -16.0000 Du        
  17939 ****        -8.2500 -21.2500 -15.7500 Du        
  17940 ****        -8.2500 -21.2500 -15.5000 Du        
  17941 ****        -8.2500 -21.2500 -15.2500 Du        
  17942 ****        -8.2500 -21.0000 -29.7500 Du        
  17943 ****        -8.2500 -21.0000 -16.7500 Du        
  17944 ****        -8.2500 -21.0000 -16.5000 Du        
  17945 ****        -8.2500 -21.0000 -16.2500 Du        
  17946 ****        -8.2500 -21.0000 -16.0000 Du        
  17947 ****        -8.2500 -21.0000 -15.7500 Du        
  17948 ****        -8.2500 -21.0000 -15.5000 Du        
  17949 ****        -8.2500 -21.0000 -15.2500 Du        
  17950 ****        -8.2500 -21.0000 -15.0000 Du        
  17951 ****        -8.2500 -20.7500 -16.7500 Du        
  17952 ****        -8.2500 -20.7500 -16.5000 Du        
  17953 ****        -8.2500 -20.7500 -16.2500 Du        
  17954 ****        -8.2500 -20.7500 -16.0000 Du        
  17955 ****        -8.2500 -20.7500 -15.7500 Du        
  17956 ****        -8.2500 -20.7500 -15.5000 Du        
  17957 ****        -8.2500 -20.7500 -15.2500 Du        
  17958 ****        -8.2500 -20.7500 -15.0000 Du        
  17959 ****        -8.2500 -20.5000 -16.7500 Du        
  17960 ****        -8.2500 -20.5000 -16.5000 Du        
  17961 ****        -8.2500 -20.5000 -16.2500 Du        
  17962 ****        -8.2500 -20.5000 -16.0000 Du        
  17963 ****        -8.2500 -20.5000 -15.7500 Du        
  17964 ****        -8.2500 -20.5000 -15.5000 Du        
  17965 ****        -8.2500 -20.5000 -15.2500 Du        
  17966 ****        -8.2500 -20.2500 -16.7500 Du        
  17967 ****        -8.2500 -20.2500 -16.5000 Du        
  17968 ****        -8.2500 -20.2500 -16.2500 Du        
  17969 ****        -8.2500 -20.2500 -16.0000 Du        
  17970 ****        -8.2500 -20.2500 -15.7500 Du        
  17971 ****        -8.2500 -20.2500 -15.5000 Du        
  17972 ****        -8.2500 -20.2500 -15.2500 Du        
  17973 ****        -8.2500 -20.0000 -16.7500 Du        
  17974 ****        -8.2500 -20.0000 -16.5000 Du        
  17975 ****        -8.2500 -20.0000 -16.2500 Du        
  17976 ****        -8.2500 -20.0000 -16.0000 Du        
  17977 ****        -8.2500 -20.0000 -15.7500 Du        
  17978 ****        -8.2500 -20.0000 -15.5000 Du        
  17979 ****        -8.2500 -20.0000 -15.2500 Du        
  17980 ****        -8.2500 -19.7500 -16.7500 Du        
  17981 ****        -8.2500 -19.7500 -16.5000 Du        
  17982 ****        -8.2500 -19.7500 -16.2500 Du        
  17983 ****        -8.2500 -19.7500 -16.0000 Du        
  17984 ****        -8.2500 -19.7500 -15.7500 Du        
  17985 ****        -8.2500 -19.7500 -15.5000 Du        
  17986 ****        -8.2500 -19.7500 -15.2500 Du        
  17987 ****        -8.2500 -19.5000 -16.7500 Du        
  17988 ****        -8.2500 -19.5000 -16.5000 Du        
  17989 ****        -8.2500 -19.5000 -16.2500 Du        
  17990 ****        -8.2500 -19.5000 -16.0000 Du        
  17991 ****        -8.2500 -19.5000 -15.7500 Du        
  17992 ****        -8.2500 -19.5000 -15.5000 Du        
  17993 ****        -8.2500 -19.5000 -15.2500 Du        
  17994 ****        -8.2500 -19.2500 -16.7500 Du        
  17995 ****        -8.2500 -19.2500 -16.5000 Du        
  17996 ****        -8.2500 -19.2500 -16.2500 Du        
  17997 ****        -8.2500 -19.2500 -16.0000 Du        
  17998 ****        -8.2500 -19.2500 -15.7500 Du        
  17999 ****        -8.2500 -19.2500 -15.5000 Du        
  18000 ****        -8.2500 -19.2500 -15.2500 Du        
  18001 ****        -8.2500 -19.0000 -17.0000 Du        
  18002 ****        -8.2500 -19.0000 -16.7500 Du        
  18003 ****        -8.2500 -19.0000 -16.5000 Du        
  18004 ****        -8.2500 -19.0000 -16.2500 Du        
  18005 ****        -8.2500 -19.0000 -16.0000 Du        
  18006 ****        -8.2500 -19.0000 -15.7500 Du        
  18007 ****        -8.2500 -19.0000 -15.5000 Du        
  18008 ****        -8.2500 -19.0000 -15.2500 Du        
  18009 ****        -8.2500 -18.7500 -17.0000 Du        
  18010 ****        -8.2500 -18.7500 -16.7500 Du        
  18011 ****        -8.2500 -18.7500 -16.5000 Du        
  18012 ****        -8.2500 -18.7500 -16.2500 Du        
  18013 ****        -8.2500 -18.7500 -16.0000 Du        
  18014 ****        -8.2500 -18.7500 -15.7500 Du        
  18015 ****        -8.2500 -18.7500 -15.5000 Du        
  18016 ****        -8.2500 -18.7500 -15.2500 Du        
  18017 ****        -8.2500 -18.5000 -17.0000 Du        
  18018 ****        -8.2500 -18.5000 -16.7500 Du        
  18019 ****        -8.2500 -18.5000 -16.5000 Du        
  18020 ****        -8.2500 -18.5000 -16.2500 Du        
  18021 ****        -8.2500 -18.5000 -16.0000 Du        
  18022 ****        -8.2500 -18.5000 -15.7500 Du        
  18023 ****        -8.2500 -18.5000 -15.5000 Du        
  18024 ****        -8.2500 -18.5000 -15.2500 Du        
  18025 ****        -8.2500 -18.2500 -17.0000 Du        
  18026 ****        -8.2500 -18.2500 -16.7500 Du        
  18027 ****        -8.2500 -18.2500 -16.5000 Du        
  18028 ****        -8.2500 -18.2500 -16.2500 Du        
  18029 ****        -8.2500 -18.2500 -16.0000 Du        
  18030 ****        -8.2500 -18.2500 -15.7500 Du        
  18031 ****        -8.2500 -18.2500 -15.5000 Du        
  18032 ****        -8.2500 -18.2500 -15.2500 Du        
  18033 ****        -8.2500 -18.0000 -17.0000 Du        
  18034 ****        -8.2500 -18.0000 -16.7500 Du        
  18035 ****        -8.2500 -18.0000 -16.5000 Du        
  18036 ****        -8.2500 -18.0000 -16.2500 Du        
  18037 ****        -8.2500 -18.0000 -16.0000 Du        
  18038 ****        -8.2500 -18.0000 -15.7500 Du        
  18039 ****        -8.2500 -18.0000 -15.5000 Du        
  18040 ****        -8.2500 -18.0000 -15.2500 Du        
  18041 ****        -8.2500 -17.7500 -17.0000 Du        
  18042 ****        -8.2500 -17.7500 -16.7500 Du        
  18043 ****        -8.2500 -17.7500 -16.5000 Du        
  18044 ****        -8.2500 -17.7500 -16.2500 Du        
  18045 ****        -8.2500 -17.7500 -16.0000 Du        
  18046 ****        -8.2500 -17.7500 -15.7500 Du        
  18047 ****        -8.2500 -17.7500 -15.5000 Du        
  18048 ****        -8.2500 -17.5000 -17.0000 Du        
  18049 ****        -8.2500 -17.5000 -16.7500 Du        
  18050 ****        -8.2500 -17.5000 -16.5000 Du        
  18051 ****        -8.2500 -17.5000 -16.2500 Du        
  18052 ****        -8.2500 -17.5000 -16.0000 Du        
  18053 ****        -8.2500 -17.5000 -15.7500 Du        
  18054 ****        -8.2500 -17.5000 -15.5000 Du        
  18055 ****        -8.2500 -17.2500 -17.2500 Du        
  18056 ****        -8.2500 -17.2500 -17.0000 Du        
  18057 ****        -8.2500 -17.2500 -16.7500 Du        
  18058 ****        -8.2500 -17.2500 -16.5000 Du        
  18059 ****        -8.2500 -17.2500 -16.2500 Du        
  18060 ****        -8.2500 -17.2500 -16.0000 Du        
  18061 ****        -8.2500 -17.2500 -15.7500 Du        
  18062 ****        -8.2500 -17.0000 -17.2500 Du        
  18063 ****        -8.2500 -17.0000 -17.0000 Du        
  18064 ****        -8.2500 -17.0000 -16.7500 Du        
  18065 ****        -8.2500 -17.0000 -16.5000 Du        
  18066 ****        -8.2500 -17.0000 -16.2500 Du        
  18067 ****        -8.2500 -17.0000 -16.0000 Du        
  18068 ****        -8.2500 -17.0000 -15.7500 Du        
  18069 ****        -8.2500 -16.7500 -17.2500 Du        
  18070 ****        -8.2500 -16.7500 -17.0000 Du        
  18071 ****        -8.2500 -16.7500 -16.7500 Du        
  18072 ****        -8.2500 -16.7500 -16.5000 Du        
  18073 ****        -8.2500 -16.7500 -16.2500 Du        
  18074 ****        -8.2500 -16.7500 -16.0000 Du        
  18075 ****        -8.2500 -16.7500 -15.7500 Du        
  18076 ****        -8.2500 -16.5000 -17.2500 Du        
  18077 ****        -8.2500 -16.5000 -17.0000 Du        
  18078 ****        -8.2500 -16.5000 -16.7500 Du        
  18079 ****        -8.2500 -16.5000 -16.5000 Du        
  18080 ****        -8.2500 -16.5000 -16.2500 Du        
  18081 ****        -8.2500 -16.5000 -16.0000 Du        
  18082 ****        -8.2500 -16.5000 -15.7500 Du        
  18083 ****        -8.2500 -16.2500 -17.2500 Du        
  18084 ****        -8.2500 -16.2500 -17.0000 Du        
  18085 ****        -8.2500 -16.2500 -16.7500 Du        
  18086 ****        -8.2500 -16.2500 -16.5000 Du        
  18087 ****        -8.2500 -16.2500 -16.2500 Du        
  18088 ****        -8.2500 -16.2500 -16.0000 Du        
  18089 ****        -8.2500 -16.0000 -17.5000 Du        
  18090 ****        -8.2500 -16.0000 -17.2500 Du        
  18091 ****        -8.2500 -16.0000 -17.0000 Du        
  18092 ****        -8.2500 -16.0000 -16.7500 Du        
  18093 ****        -8.2500 -16.0000 -16.5000 Du        
  18094 ****        -8.2500 -16.0000 -16.2500 Du        
  18095 ****        -8.2500 -15.7500 -17.2500 Du        
  18096 ****        -8.2500 -15.7500 -17.0000 Du        
  18097 ****        -8.2500 -15.7500 -16.7500 Du        
  18098 ****        -8.2500 -15.7500 -16.5000 Du        
  18099 ****        -8.2500 -11.5000 -27.7500 Du        
  18100 ****        -8.2500 -11.2500 -28.0000 Du        
  18101 ****        -8.2500 -11.2500 -27.7500 Du        
  18102 ****        -8.2500 -11.0000 -28.0000 Du        
  18103 ****        -8.2500 -11.0000 -27.7500 Du        
  18104 ****        -8.2500 -10.7500 -28.0000 Du        
  18105 ****        -8.2500 -10.7500 -27.7500 Du        
  18106 ****        -8.2500 -10.5000 -28.0000 Du        
  18107 ****        -8.2500 -10.5000 -27.7500 Du        
  18108 ****        -8.2500 -10.2500 -27.7500 Du        
  18109 ****        -8.2500 -10.0000 -27.7500 Du        
  18110 ****        -8.2500  -5.0000 -27.2500 Du        
  18111 ****        -8.2500  -4.7500 -27.7500 Du        
  18112 ****        -8.2500  -4.7500 -27.2500 Du        
  18113 ****        -8.2500  -4.7500 -27.0000 Du        
  18114 ****        -8.0000 -29.0000  -3.5000 Du        
  18115 ****        -8.0000 -29.0000  -3.2500 Du        
  18116 ****        -8.0000 -29.0000  -3.0000 Du        
  18117 ****        -8.0000 -29.0000  -2.7500 Du        
  18118 ****        -8.0000 -29.0000  -2.5000 Du        
  18119 ****        -8.0000 -28.7500  -3.2500 Du        
  18120 ****        -8.0000 -28.7500  -3.0000 Du        
  18121 ****        -8.0000 -28.7500  -2.7500 Du        
  18122 ****        -8.0000 -28.7500  -2.5000 Du        
  18123 ****        -8.0000 -28.5000  -2.7500 Du        
  18124 ****        -8.0000 -28.5000  -2.5000 Du        
  18125 ****        -8.0000 -28.5000  -2.2500 Du        
  18126 ****        -8.0000 -28.5000  -2.0000 Du        
  18127 ****        -8.0000 -28.2500 -15.0000 Du        
  18128 ****        -8.0000 -28.2500 -14.7500 Du        
  18129 ****        -8.0000 -28.2500 -14.5000 Du        
  18130 ****        -8.0000 -28.2500 -14.2500 Du        
  18131 ****        -8.0000 -28.2500  -2.5000 Du        
  18132 ****        -8.0000 -28.2500  -2.2500 Du        
  18133 ****        -8.0000 -28.2500  -2.0000 Du        
  18134 ****        -8.0000 -28.0000 -15.5000 Du        
  18135 ****        -8.0000 -28.0000 -15.2500 Du        
  18136 ****        -8.0000 -28.0000 -15.0000 Du        
  18137 ****        -8.0000 -28.0000 -14.7500 Du        
  18138 ****        -8.0000 -28.0000 -14.5000 Du        
  18139 ****        -8.0000 -28.0000 -14.2500 Du        
  18140 ****        -8.0000 -28.0000 -14.0000 Du        
  18141 ****        -8.0000 -28.0000 -13.7500 Du        
  18142 ****        -8.0000 -28.0000  -8.2500 Du        
  18143 ****        -8.0000 -27.7500 -15.5000 Du        
  18144 ****        -8.0000 -27.7500 -15.2500 Du        
  18145 ****        -8.0000 -27.7500 -15.0000 Du        
  18146 ****        -8.0000 -27.7500 -14.7500 Du        
  18147 ****        -8.0000 -27.7500 -14.5000 Du        
  18148 ****        -8.0000 -27.7500 -14.2500 Du        
  18149 ****        -8.0000 -27.7500 -14.0000 Du        
  18150 ****        -8.0000 -27.7500 -13.7500 Du        
  18151 ****        -8.0000 -27.7500  -8.2500 Du        
  18152 ****        -8.0000 -27.7500  -8.0000 Du        
  18153 ****        -8.0000 -27.7500  -7.7500 Du        
  18154 ****        -8.0000 -27.5000 -15.5000 Du        
  18155 ****        -8.0000 -27.5000 -15.2500 Du        
  18156 ****        -8.0000 -27.5000 -15.0000 Du        
  18157 ****        -8.0000 -27.5000 -14.7500 Du        
  18158 ****        -8.0000 -27.5000 -14.5000 Du        
  18159 ****        -8.0000 -27.5000 -14.2500 Du        
  18160 ****        -8.0000 -27.5000 -14.0000 Du        
  18161 ****        -8.0000 -27.5000 -13.7500 Du        
  18162 ****        -8.0000 -27.5000  -9.5000 Du        
  18163 ****        -8.0000 -27.5000  -9.2500 Du        
  18164 ****        -8.0000 -27.5000  -9.0000 Du        
  18165 ****        -8.0000 -27.5000  -8.7500 Du        
  18166 ****        -8.0000 -27.5000  -8.5000 Du        
  18167 ****        -8.0000 -27.5000  -8.2500 Du        
  18168 ****        -8.0000 -27.5000  -8.0000 Du        
  18169 ****        -8.0000 -27.2500 -15.2500 Du        
  18170 ****        -8.0000 -27.2500 -15.0000 Du        
  18171 ****        -8.0000 -27.2500 -14.7500 Du        
  18172 ****        -8.0000 -27.2500 -14.5000 Du        
  18173 ****        -8.0000 -27.2500 -14.2500 Du        
  18174 ****        -8.0000 -27.2500 -14.0000 Du        
  18175 ****        -8.0000 -27.2500 -13.7500 Du        
  18176 ****        -8.0000 -27.2500  -9.5000 Du        
  18177 ****        -8.0000 -27.2500  -9.2500 Du        
  18178 ****        -8.0000 -27.2500  -9.0000 Du        
  18179 ****        -8.0000 -27.2500  -8.7500 Du        
  18180 ****        -8.0000 -27.2500  -8.5000 Du        
  18181 ****        -8.0000 -27.2500  -8.2500 Du        
  18182 ****        -8.0000 -27.2500  -8.0000 Du        
  18183 ****        -8.0000 -27.0000 -15.0000 Du        
  18184 ****        -8.0000 -27.0000 -14.7500 Du        
  18185 ****        -8.0000 -27.0000 -14.5000 Du        
  18186 ****        -8.0000 -27.0000 -14.2500 Du        
  18187 ****        -8.0000 -27.0000 -14.0000 Du        
  18188 ****        -8.0000 -27.0000  -9.2500 Du        
  18189 ****        -8.0000 -27.0000  -9.0000 Du        
  18190 ****        -8.0000 -27.0000  -8.7500 Du        
  18191 ****        -8.0000 -27.0000  -8.5000 Du        
  18192 ****        -8.0000 -27.0000  -8.2500 Du        
  18193 ****        -8.0000 -27.0000  -8.0000 Du        
  18194 ****        -8.0000 -26.7500  -9.0000 Du        
  18195 ****        -8.0000 -26.7500  -8.7500 Du        
  18196 ****        -8.0000 -26.7500  -8.5000 Du        
  18197 ****        -8.0000 -26.7500  -8.2500 Du        
  18198 ****        -8.0000 -26.5000  -8.7500 Du        
  18199 ****        -8.0000 -26.5000  -8.5000 Du        
  18200 ****        -8.0000 -23.0000 -30.0000 Du        
  18201 ****        -8.0000 -23.0000 -29.7500 Du        
  18202 ****        -8.0000 -22.7500 -30.2500 Du        
  18203 ****        -8.0000 -22.7500 -30.0000 Du        
  18204 ****        -8.0000 -22.7500 -29.7500 Du        
  18205 ****        -8.0000 -22.5000 -30.7500 Du        
  18206 ****        -8.0000 -22.5000 -30.5000 Du        
  18207 ****        -8.0000 -22.5000 -30.2500 Du        
  18208 ****        -8.0000 -22.5000 -30.0000 Du        
  18209 ****        -8.0000 -22.5000 -29.7500 Du        
  18210 ****        -8.0000 -22.5000 -29.5000 Du        
  18211 ****        -8.0000 -22.2500 -31.0000 Du        
  18212 ****        -8.0000 -22.2500 -30.7500 Du        
  18213 ****        -8.0000 -22.2500 -30.5000 Du        
  18214 ****        -8.0000 -22.2500 -30.2500 Du        
  18215 ****        -8.0000 -22.2500 -30.0000 Du        
  18216 ****        -8.0000 -22.2500 -29.7500 Du        
  18217 ****        -8.0000 -22.2500 -29.5000 Du        
  18218 ****        -8.0000 -22.2500 -29.2500 Du        
  18219 ****        -8.0000 -22.0000 -31.0000 Du        
  18220 ****        -8.0000 -22.0000 -30.7500 Du        
  18221 ****        -8.0000 -22.0000 -30.5000 Du        
  18222 ****        -8.0000 -22.0000 -30.2500 Du        
  18223 ****        -8.0000 -22.0000 -30.0000 Du        
  18224 ****        -8.0000 -22.0000 -29.7500 Du        
  18225 ****        -8.0000 -22.0000 -29.5000 Du        
  18226 ****        -8.0000 -22.0000 -29.2500 Du        
  18227 ****        -8.0000 -22.0000 -15.7500 Du        
  18228 ****        -8.0000 -22.0000 -15.5000 Du        
  18229 ****        -8.0000 -21.7500 -31.0000 Du        
  18230 ****        -8.0000 -21.7500 -30.7500 Du        
  18231 ****        -8.0000 -21.7500 -30.5000 Du        
  18232 ****        -8.0000 -21.7500 -30.2500 Du        
  18233 ****        -8.0000 -21.7500 -30.0000 Du        
  18234 ****        -8.0000 -21.7500 -29.7500 Du        
  18235 ****        -8.0000 -21.7500 -29.5000 Du        
  18236 ****        -8.0000 -21.7500 -29.2500 Du        
  18237 ****        -8.0000 -21.7500 -29.0000 Du        
  18238 ****        -8.0000 -21.7500 -16.0000 Du        
  18239 ****        -8.0000 -21.7500 -15.7500 Du        
  18240 ****        -8.0000 -21.7500 -15.5000 Du        
  18241 ****        -8.0000 -21.7500 -15.2500 Du        
  18242 ****        -8.0000 -21.5000 -30.7500 Du        
  18243 ****        -8.0000 -21.5000 -30.5000 Du        
  18244 ****        -8.0000 -21.5000 -30.2500 Du        
  18245 ****        -8.0000 -21.5000 -30.0000 Du        
  18246 ****        -8.0000 -21.5000 -29.7500 Du        
  18247 ****        -8.0000 -21.5000 -29.5000 Du        
  18248 ****        -8.0000 -21.5000 -29.2500 Du        
  18249 ****        -8.0000 -21.5000 -16.2500 Du        
  18250 ****        -8.0000 -21.5000 -16.0000 Du        
  18251 ****        -8.0000 -21.5000 -15.7500 Du        
  18252 ****        -8.0000 -21.5000 -15.5000 Du        
  18253 ****        -8.0000 -21.5000 -15.2500 Du        
  18254 ****        -8.0000 -21.2500 -30.5000 Du        
  18255 ****        -8.0000 -21.2500 -30.2500 Du        
  18256 ****        -8.0000 -21.2500 -30.0000 Du        
  18257 ****        -8.0000 -21.2500 -29.7500 Du        
  18258 ****        -8.0000 -21.2500 -29.5000 Du        
  18259 ****        -8.0000 -21.2500 -29.2500 Du        
  18260 ****        -8.0000 -21.2500 -16.5000 Du        
  18261 ****        -8.0000 -21.2500 -16.2500 Du        
  18262 ****        -8.0000 -21.2500 -16.0000 Du        
  18263 ****        -8.0000 -21.2500 -15.7500 Du        
  18264 ****        -8.0000 -21.2500 -15.5000 Du        
  18265 ****        -8.0000 -21.2500 -15.2500 Du        
  18266 ****        -8.0000 -21.2500 -15.0000 Du        
  18267 ****        -8.0000 -21.0000 -30.2500 Du        
  18268 ****        -8.0000 -21.0000 -30.0000 Du        
  18269 ****        -8.0000 -21.0000 -29.7500 Du        
  18270 ****        -8.0000 -21.0000 -29.5000 Du        
  18271 ****        -8.0000 -21.0000 -29.2500 Du        
  18272 ****        -8.0000 -21.0000 -16.5000 Du        
  18273 ****        -8.0000 -21.0000 -16.2500 Du        
  18274 ****        -8.0000 -21.0000 -16.0000 Du        
  18275 ****        -8.0000 -21.0000 -15.7500 Du        
  18276 ****        -8.0000 -21.0000 -15.5000 Du        
  18277 ****        -8.0000 -21.0000 -15.2500 Du        
  18278 ****        -8.0000 -21.0000 -15.0000 Du        
  18279 ****        -8.0000 -20.7500 -30.0000 Du        
  18280 ****        -8.0000 -20.7500 -29.7500 Du        
  18281 ****        -8.0000 -20.7500 -29.5000 Du        
  18282 ****        -8.0000 -20.7500 -29.2500 Du        
  18283 ****        -8.0000 -20.7500 -16.7500 Du        
  18284 ****        -8.0000 -20.7500 -16.5000 Du        
  18285 ****        -8.0000 -20.7500 -16.2500 Du        
  18286 ****        -8.0000 -20.7500 -16.0000 Du        
  18287 ****        -8.0000 -20.7500 -15.7500 Du        
  18288 ****        -8.0000 -20.7500 -15.5000 Du        
  18289 ****        -8.0000 -20.7500 -15.2500 Du        
  18290 ****        -8.0000 -20.7500 -15.0000 Du        
  18291 ****        -8.0000 -20.5000 -16.7500 Du        
  18292 ****        -8.0000 -20.5000 -16.5000 Du        
  18293 ****        -8.0000 -20.5000 -16.2500 Du        
  18294 ****        -8.0000 -20.5000 -16.0000 Du        
  18295 ****        -8.0000 -20.5000 -15.7500 Du        
  18296 ****        -8.0000 -20.5000 -15.5000 Du        
  18297 ****        -8.0000 -20.5000 -15.2500 Du        
  18298 ****        -8.0000 -20.2500 -16.7500 Du        
  18299 ****        -8.0000 -20.2500 -16.5000 Du        
  18300 ****        -8.0000 -20.2500 -16.2500 Du        
  18301 ****        -8.0000 -20.2500 -16.0000 Du        
  18302 ****        -8.0000 -20.2500 -15.7500 Du        
  18303 ****        -8.0000 -20.2500 -15.5000 Du        
  18304 ****        -8.0000 -20.2500 -15.2500 Du        
  18305 ****        -8.0000 -20.0000 -16.7500 Du        
  18306 ****        -8.0000 -20.0000 -16.5000 Du        
  18307 ****        -8.0000 -20.0000 -16.2500 Du        
  18308 ****        -8.0000 -20.0000 -16.0000 Du        
  18309 ****        -8.0000 -20.0000 -15.7500 Du        
  18310 ****        -8.0000 -20.0000 -15.5000 Du        
  18311 ****        -8.0000 -20.0000 -15.2500 Du        
  18312 ****        -8.0000 -19.7500 -16.7500 Du        
  18313 ****        -8.0000 -19.7500 -16.5000 Du        
  18314 ****        -8.0000 -19.7500 -16.2500 Du        
  18315 ****        -8.0000 -19.7500 -16.0000 Du        
  18316 ****        -8.0000 -19.7500 -15.7500 Du        
  18317 ****        -8.0000 -19.7500 -15.5000 Du        
  18318 ****        -8.0000 -19.7500 -15.2500 Du        
  18319 ****        -8.0000 -19.5000 -16.7500 Du        
  18320 ****        -8.0000 -19.5000 -16.5000 Du        
  18321 ****        -8.0000 -19.5000 -16.2500 Du        
  18322 ****        -8.0000 -19.5000 -16.0000 Du        
  18323 ****        -8.0000 -19.5000 -15.7500 Du        
  18324 ****        -8.0000 -19.5000 -15.5000 Du        
  18325 ****        -8.0000 -19.5000 -15.2500 Du        
  18326 ****        -8.0000 -19.2500 -16.7500 Du        
  18327 ****        -8.0000 -19.2500 -16.5000 Du        
  18328 ****        -8.0000 -19.2500 -16.2500 Du        
  18329 ****        -8.0000 -19.2500 -16.0000 Du        
  18330 ****        -8.0000 -19.2500 -15.7500 Du        
  18331 ****        -8.0000 -19.2500 -15.5000 Du        
  18332 ****        -8.0000 -19.2500 -15.2500 Du        
  18333 ****        -8.0000 -19.0000 -16.7500 Du        
  18334 ****        -8.0000 -19.0000 -16.5000 Du        
  18335 ****        -8.0000 -19.0000 -16.2500 Du        
  18336 ****        -8.0000 -19.0000 -16.0000 Du        
  18337 ****        -8.0000 -19.0000 -15.7500 Du        
  18338 ****        -8.0000 -19.0000 -15.5000 Du        
  18339 ****        -8.0000 -19.0000 -15.2500 Du        
  18340 ****        -8.0000 -18.7500 -17.0000 Du        
  18341 ****        -8.0000 -18.7500 -16.7500 Du        
  18342 ****        -8.0000 -18.7500 -16.5000 Du        
  18343 ****        -8.0000 -18.7500 -16.2500 Du        
  18344 ****        -8.0000 -18.7500 -16.0000 Du        
  18345 ****        -8.0000 -18.7500 -15.7500 Du        
  18346 ****        -8.0000 -18.7500 -15.5000 Du        
  18347 ****        -8.0000 -18.7500 -15.2500 Du        
  18348 ****        -8.0000 -18.5000 -17.0000 Du        
  18349 ****        -8.0000 -18.5000 -16.7500 Du        
  18350 ****        -8.0000 -18.5000 -16.5000 Du        
  18351 ****        -8.0000 -18.5000 -16.2500 Du        
  18352 ****        -8.0000 -18.5000 -16.0000 Du        
  18353 ****        -8.0000 -18.5000 -15.7500 Du        
  18354 ****        -8.0000 -18.5000 -15.5000 Du        
  18355 ****        -8.0000 -18.5000 -15.2500 Du        
  18356 ****        -8.0000 -18.2500 -17.2500 Du        
  18357 ****        -8.0000 -18.2500 -17.0000 Du        
  18358 ****        -8.0000 -18.2500 -16.7500 Du        
  18359 ****        -8.0000 -18.2500 -16.5000 Du        
  18360 ****        -8.0000 -18.2500 -16.2500 Du        
  18361 ****        -8.0000 -18.2500 -16.0000 Du        
  18362 ****        -8.0000 -18.2500 -15.7500 Du        
  18363 ****        -8.0000 -18.2500 -15.5000 Du        
  18364 ****        -8.0000 -18.2500 -15.2500 Du        
  18365 ****        -8.0000 -18.0000 -17.2500 Du        
  18366 ****        -8.0000 -18.0000 -17.0000 Du        
  18367 ****        -8.0000 -18.0000 -16.7500 Du        
  18368 ****        -8.0000 -18.0000 -16.5000 Du        
  18369 ****        -8.0000 -18.0000 -16.2500 Du        
  18370 ****        -8.0000 -18.0000 -16.0000 Du        
  18371 ****        -8.0000 -18.0000 -15.7500 Du        
  18372 ****        -8.0000 -18.0000 -15.5000 Du        
  18373 ****        -8.0000 -18.0000 -15.2500 Du        
  18374 ****        -8.0000 -17.7500 -17.2500 Du        
  18375 ****        -8.0000 -17.7500 -17.0000 Du        
  18376 ****        -8.0000 -17.7500 -16.7500 Du        
  18377 ****        -8.0000 -17.7500 -16.5000 Du        
  18378 ****        -8.0000 -17.7500 -16.2500 Du        
  18379 ****        -8.0000 -17.7500 -16.0000 Du        
  18380 ****        -8.0000 -17.7500 -15.7500 Du        
  18381 ****        -8.0000 -17.7500 -15.5000 Du        
  18382 ****        -8.0000 -17.5000 -17.5000 Du        
  18383 ****        -8.0000 -17.5000 -17.2500 Du        
  18384 ****        -8.0000 -17.5000 -17.0000 Du        
  18385 ****        -8.0000 -17.5000 -16.7500 Du        
  18386 ****        -8.0000 -17.5000 -16.5000 Du        
  18387 ****        -8.0000 -17.5000 -16.2500 Du        
  18388 ****        -8.0000 -17.5000 -16.0000 Du        
  18389 ****        -8.0000 -17.5000 -15.7500 Du        
  18390 ****        -8.0000 -17.2500 -17.5000 Du        
  18391 ****        -8.0000 -17.2500 -17.2500 Du        
  18392 ****        -8.0000 -17.2500 -17.0000 Du        
  18393 ****        -8.0000 -17.2500 -16.7500 Du        
  18394 ****        -8.0000 -17.2500 -16.5000 Du        
  18395 ****        -8.0000 -17.2500 -16.2500 Du        
  18396 ****        -8.0000 -17.2500 -16.0000 Du        
  18397 ****        -8.0000 -17.0000 -28.7500 Du        
  18398 ****        -8.0000 -17.0000 -17.5000 Du        
  18399 ****        -8.0000 -17.0000 -17.2500 Du        
  18400 ****        -8.0000 -17.0000 -17.0000 Du        
  18401 ****        -8.0000 -17.0000 -16.7500 Du        
  18402 ****        -8.0000 -17.0000 -16.5000 Du        
  18403 ****        -8.0000 -17.0000 -16.2500 Du        
  18404 ****        -8.0000 -17.0000 -16.0000 Du        
  18405 ****        -8.0000 -16.7500 -17.7500 Du        
  18406 ****        -8.0000 -16.7500 -17.5000 Du        
  18407 ****        -8.0000 -16.7500 -17.2500 Du        
  18408 ****        -8.0000 -16.7500 -17.0000 Du        
  18409 ****        -8.0000 -16.7500 -16.7500 Du        
  18410 ****        -8.0000 -16.7500 -16.5000 Du        
  18411 ****        -8.0000 -16.7500 -16.2500 Du        
  18412 ****        -8.0000 -16.5000 -17.7500 Du        
  18413 ****        -8.0000 -16.5000 -17.5000 Du        
  18414 ****        -8.0000 -16.5000 -17.2500 Du        
  18415 ****        -8.0000 -16.5000 -17.0000 Du        
  18416 ****        -8.0000 -16.5000 -16.7500 Du        
  18417 ****        -8.0000 -16.5000 -16.5000 Du        
  18418 ****        -8.0000 -16.5000 -16.2500 Du        
  18419 ****        -8.0000 -16.2500 -17.7500 Du        
  18420 ****        -8.0000 -16.2500 -17.5000 Du        
  18421 ****        -8.0000 -16.2500 -17.2500 Du        
  18422 ****        -8.0000 -16.2500 -17.0000 Du        
  18423 ****        -8.0000 -16.2500 -16.7500 Du        
  18424 ****        -8.0000 -16.2500 -16.5000 Du        
  18425 ****        -8.0000 -16.0000 -18.0000 Du        
  18426 ****        -8.0000 -16.0000 -17.7500 Du        
  18427 ****        -8.0000 -16.0000 -17.5000 Du        
  18428 ****        -8.0000 -16.0000 -17.2500 Du        
  18429 ****        -8.0000 -16.0000 -17.0000 Du        
  18430 ****        -8.0000 -16.0000 -16.7500 Du        
  18431 ****        -8.0000 -15.7500 -17.2500 Du        
  18432 ****        -8.0000 -15.7500 -17.0000 Du        
  18433 ****        -8.0000 -15.7500 -16.7500 Du        
  18434 ****        -8.0000 -11.2500 -27.7500 Du        
  18435 ****        -8.0000 -11.0000 -28.0000 Du        
  18436 ****        -8.0000 -11.0000 -27.7500 Du        
  18437 ****        -8.0000 -10.7500 -28.0000 Du        
  18438 ****        -8.0000 -10.7500 -27.7500 Du        
  18439 ****        -8.0000 -10.5000 -28.0000 Du        
  18440 ****        -8.0000 -10.5000 -27.7500 Du        
  18441 ****        -8.0000 -10.2500 -27.7500 Du        
  18442 ****        -8.0000 -10.0000 -27.7500 Du        
  18443 ****        -7.7500 -29.0000  -3.5000 Du        
  18444 ****        -7.7500 -29.0000  -3.2500 Du        
  18445 ****        -7.7500 -29.0000  -3.0000 Du        
  18446 ****        -7.7500 -29.0000  -2.7500 Du        
  18447 ****        -7.7500 -29.0000  -2.5000 Du        
  18448 ****        -7.7500 -28.7500  -3.2500 Du        
  18449 ****        -7.7500 -28.7500  -3.0000 Du        
  18450 ****        -7.7500 -28.7500  -2.7500 Du        
  18451 ****        -7.7500 -28.7500  -2.5000 Du        
  18452 ****        -7.7500 -28.5000 -15.0000 Du        
  18453 ****        -7.7500 -28.5000 -14.7500 Du        
  18454 ****        -7.7500 -28.5000 -14.5000 Du        
  18455 ****        -7.7500 -28.5000  -3.0000 Du        
  18456 ****        -7.7500 -28.5000  -2.7500 Du        
  18457 ****        -7.7500 -28.5000  -2.5000 Du        
  18458 ****        -7.7500 -28.5000  -2.2500 Du        
  18459 ****        -7.7500 -28.2500 -15.7500 Du        
  18460 ****        -7.7500 -28.2500 -15.5000 Du        
  18461 ****        -7.7500 -28.2500 -15.2500 Du        
  18462 ****        -7.7500 -28.2500 -15.0000 Du        
  18463 ****        -7.7500 -28.2500 -14.7500 Du        
  18464 ****        -7.7500 -28.2500 -14.5000 Du        
  18465 ****        -7.7500 -28.2500 -14.2500 Du        
  18466 ****        -7.7500 -28.2500 -14.0000 Du        
  18467 ****        -7.7500 -28.2500 -13.7500 Du        
  18468 ****        -7.7500 -28.2500  -2.7500 Du        
  18469 ****        -7.7500 -28.2500  -2.5000 Du        
  18470 ****        -7.7500 -28.2500  -2.2500 Du        
  18471 ****        -7.7500 -28.2500  -2.0000 Du        
  18472 ****        -7.7500 -28.0000 -15.7500 Du        
  18473 ****        -7.7500 -28.0000 -15.5000 Du        
  18474 ****        -7.7500 -28.0000 -15.2500 Du        
  18475 ****        -7.7500 -28.0000 -15.0000 Du        
  18476 ****        -7.7500 -28.0000 -14.7500 Du        
  18477 ****        -7.7500 -28.0000 -14.5000 Du        
  18478 ****        -7.7500 -28.0000 -14.2500 Du        
  18479 ****        -7.7500 -28.0000 -14.0000 Du        
  18480 ****        -7.7500 -28.0000 -13.7500 Du        
  18481 ****        -7.7500 -28.0000  -8.2500 Du        
  18482 ****        -7.7500 -28.0000  -8.0000 Du        
  18483 ****        -7.7500 -28.0000  -7.7500 Du        
  18484 ****        -7.7500 -28.0000  -7.5000 Du        
  18485 ****        -7.7500 -27.7500 -15.7500 Du        
  18486 ****        -7.7500 -27.7500 -15.5000 Du        
  18487 ****        -7.7500 -27.7500 -15.2500 Du        
  18488 ****        -7.7500 -27.7500 -15.0000 Du        
  18489 ****        -7.7500 -27.7500 -14.7500 Du        
  18490 ****        -7.7500 -27.7500 -14.5000 Du        
  18491 ****        -7.7500 -27.7500 -14.2500 Du        
  18492 ****        -7.7500 -27.7500 -14.0000 Du        
  18493 ****        -7.7500 -27.7500 -13.7500 Du        
  18494 ****        -7.7500 -27.7500  -8.7500 Du        
  18495 ****        -7.7500 -27.7500  -8.5000 Du        
  18496 ****        -7.7500 -27.7500  -8.2500 Du        
  18497 ****        -7.7500 -27.7500  -8.0000 Du        
  18498 ****        -7.7500 -27.7500  -7.7500 Du        
  18499 ****        -7.7500 -27.7500  -7.5000 Du        
  18500 ****        -7.7500 -27.5000 -15.5000 Du        
  18501 ****        -7.7500 -27.5000 -15.2500 Du        
  18502 ****        -7.7500 -27.5000 -15.0000 Du        
  18503 ****        -7.7500 -27.5000 -14.7500 Du        
  18504 ****        -7.7500 -27.5000 -14.5000 Du        
  18505 ****        -7.7500 -27.5000 -14.2500 Du        
  18506 ****        -7.7500 -27.5000 -14.0000 Du        
  18507 ****        -7.7500 -27.5000 -13.7500 Du        
  18508 ****        -7.7500 -27.5000  -9.7500 Du        
  18509 ****        -7.7500 -27.5000  -9.5000 Du        
  18510 ****        -7.7500 -27.5000  -9.2500 Du        
  18511 ****        -7.7500 -27.5000  -9.0000 Du        
  18512 ****        -7.7500 -27.5000  -8.7500 Du        
  18513 ****        -7.7500 -27.5000  -8.5000 Du        
  18514 ****        -7.7500 -27.5000  -8.2500 Du        
  18515 ****        -7.7500 -27.5000  -8.0000 Du        
  18516 ****        -7.7500 -27.5000  -7.7500 Du        
  18517 ****        -7.7500 -27.2500 -15.2500 Du        
  18518 ****        -7.7500 -27.2500 -15.0000 Du        
  18519 ****        -7.7500 -27.2500 -14.7500 Du        
  18520 ****        -7.7500 -27.2500 -14.5000 Du        
  18521 ****        -7.7500 -27.2500 -14.2500 Du        
  18522 ****        -7.7500 -27.2500 -14.0000 Du        
  18523 ****        -7.7500 -27.2500 -13.7500 Du        
  18524 ****        -7.7500 -27.2500  -9.7500 Du        
  18525 ****        -7.7500 -27.2500  -9.5000 Du        
  18526 ****        -7.7500 -27.2500  -9.2500 Du        
  18527 ****        -7.7500 -27.2500  -9.0000 Du        
  18528 ****        -7.7500 -27.2500  -8.7500 Du        
  18529 ****        -7.7500 -27.2500  -8.5000 Du        
  18530 ****        -7.7500 -27.2500  -8.2500 Du        
  18531 ****        -7.7500 -27.2500  -8.0000 Du        
  18532 ****        -7.7500 -27.2500  -7.7500 Du        
  18533 ****        -7.7500 -27.0000 -15.0000 Du        
  18534 ****        -7.7500 -27.0000 -14.7500 Du        
  18535 ****        -7.7500 -27.0000 -14.5000 Du        
  18536 ****        -7.7500 -27.0000 -14.2500 Du        
  18537 ****        -7.7500 -27.0000 -14.0000 Du        
  18538 ****        -7.7500 -27.0000 -13.7500 Du        
  18539 ****        -7.7500 -27.0000  -9.5000 Du        
  18540 ****        -7.7500 -27.0000  -9.2500 Du        
  18541 ****        -7.7500 -27.0000  -9.0000 Du        
  18542 ****        -7.7500 -27.0000  -8.7500 Du        
  18543 ****        -7.7500 -27.0000  -8.5000 Du        
  18544 ****        -7.7500 -27.0000  -8.2500 Du        
  18545 ****        -7.7500 -27.0000  -8.0000 Du        
  18546 ****        -7.7500 -26.7500  -9.2500 Du        
  18547 ****        -7.7500 -26.7500  -9.0000 Du        
  18548 ****        -7.7500 -26.7500  -8.7500 Du        
  18549 ****        -7.7500 -26.7500  -8.5000 Du        
  18550 ****        -7.7500 -26.7500  -8.2500 Du        
  18551 ****        -7.7500 -26.5000  -9.0000 Du        
  18552 ****        -7.7500 -26.5000  -8.7500 Du        
  18553 ****        -7.7500 -26.5000  -8.5000 Du        
  18554 ****        -7.7500 -26.5000  -8.2500 Du        
  18555 ****        -7.7500 -26.0000 -28.2500 Du        
  18556 ****        -7.7500 -25.7500 -28.2500 Du        
  18557 ****        -7.7500 -25.0000 -28.0000 Du        
  18558 ****        -7.7500 -25.0000 -27.7500 Du        
  18559 ****        -7.7500 -25.0000 -27.5000 Du        
  18560 ****        -7.7500 -24.7500 -27.7500 Du        
  18561 ****        -7.7500 -24.7500 -27.2500 Du        
  18562 ****        -7.7500 -24.7500 -27.0000 Du        
  18563 ****        -7.7500 -22.7500 -30.0000 Du        
  18564 ****        -7.7500 -22.7500 -29.7500 Du        
  18565 ****        -7.7500 -22.5000 -30.2500 Du        
  18566 ****        -7.7500 -22.5000 -30.0000 Du        
  18567 ****        -7.7500 -22.5000 -29.7500 Du        
  18568 ****        -7.7500 -22.5000 -29.5000 Du        
  18569 ****        -7.7500 -22.5000 -29.2500 Du        
  18570 ****        -7.7500 -22.2500 -30.7500 Du        
  18571 ****        -7.7500 -22.2500 -30.5000 Du        
  18572 ****        -7.7500 -22.2500 -30.2500 Du        
  18573 ****        -7.7500 -22.2500 -30.0000 Du        
  18574 ****        -7.7500 -22.2500 -29.7500 Du        
  18575 ****        -7.7500 -22.2500 -29.5000 Du        
  18576 ****        -7.7500 -22.2500 -29.2500 Du        
  18577 ****        -7.7500 -22.2500 -29.0000 Du        
  18578 ****        -7.7500 -22.0000 -31.0000 Du        
  18579 ****        -7.7500 -22.0000 -30.7500 Du        
  18580 ****        -7.7500 -22.0000 -30.5000 Du        
  18581 ****        -7.7500 -22.0000 -30.2500 Du        
  18582 ****        -7.7500 -22.0000 -30.0000 Du        
  18583 ****        -7.7500 -22.0000 -29.7500 Du        
  18584 ****        -7.7500 -22.0000 -29.5000 Du        
  18585 ****        -7.7500 -22.0000 -29.2500 Du        
  18586 ****        -7.7500 -22.0000 -29.0000 Du        
  18587 ****        -7.7500 -22.0000 -16.0000 Du        
  18588 ****        -7.7500 -22.0000 -15.7500 Du        
  18589 ****        -7.7500 -22.0000 -15.5000 Du        
  18590 ****        -7.7500 -22.0000 -15.2500 Du        
  18591 ****        -7.7500 -21.7500 -31.0000 Du        
  18592 ****        -7.7500 -21.7500 -30.7500 Du        
  18593 ****        -7.7500 -21.7500 -30.5000 Du        
  18594 ****        -7.7500 -21.7500 -30.2500 Du        
  18595 ****        -7.7500 -21.7500 -30.0000 Du        
  18596 ****        -7.7500 -21.7500 -29.7500 Du        
  18597 ****        -7.7500 -21.7500 -29.5000 Du        
  18598 ****        -7.7500 -21.7500 -29.2500 Du        
  18599 ****        -7.7500 -21.7500 -29.0000 Du        
  18600 ****        -7.7500 -21.7500 -16.0000 Du        
  18601 ****        -7.7500 -21.7500 -15.7500 Du        
  18602 ****        -7.7500 -21.7500 -15.5000 Du        
  18603 ****        -7.7500 -21.7500 -15.2500 Du        
  18604 ****        -7.7500 -21.5000 -30.7500 Du        
  18605 ****        -7.7500 -21.5000 -30.5000 Du        
  18606 ****        -7.7500 -21.5000 -30.2500 Du        
  18607 ****        -7.7500 -21.5000 -30.0000 Du        
  18608 ****        -7.7500 -21.5000 -29.7500 Du        
  18609 ****        -7.7500 -21.5000 -29.5000 Du        
  18610 ****        -7.7500 -21.5000 -29.2500 Du        
  18611 ****        -7.7500 -21.5000 -29.0000 Du        
  18612 ****        -7.7500 -21.5000 -16.2500 Du        
  18613 ****        -7.7500 -21.5000 -16.0000 Du        
  18614 ****        -7.7500 -21.5000 -15.7500 Du        
  18615 ****        -7.7500 -21.5000 -15.5000 Du        
  18616 ****        -7.7500 -21.5000 -15.2500 Du        
  18617 ****        -7.7500 -21.2500 -30.5000 Du        
  18618 ****        -7.7500 -21.2500 -30.2500 Du        
  18619 ****        -7.7500 -21.2500 -30.0000 Du        
  18620 ****        -7.7500 -21.2500 -29.7500 Du        
  18621 ****        -7.7500 -21.2500 -29.5000 Du        
  18622 ****        -7.7500 -21.2500 -29.2500 Du        
  18623 ****        -7.7500 -21.2500 -29.0000 Du        
  18624 ****        -7.7500 -21.2500 -16.2500 Du        
  18625 ****        -7.7500 -21.2500 -16.0000 Du        
  18626 ****        -7.7500 -21.2500 -15.7500 Du        
  18627 ****        -7.7500 -21.2500 -15.5000 Du        
  18628 ****        -7.7500 -21.2500 -15.2500 Du        
  18629 ****        -7.7500 -21.0000 -30.2500 Du        
  18630 ****        -7.7500 -21.0000 -30.0000 Du        
  18631 ****        -7.7500 -21.0000 -29.7500 Du        
  18632 ****        -7.7500 -21.0000 -29.5000 Du        
  18633 ****        -7.7500 -21.0000 -29.2500 Du        
  18634 ****        -7.7500 -21.0000 -29.0000 Du        
  18635 ****        -7.7500 -21.0000 -16.5000 Du        
  18636 ****        -7.7500 -21.0000 -16.2500 Du        
  18637 ****        -7.7500 -21.0000 -16.0000 Du        
  18638 ****        -7.7500 -21.0000 -15.7500 Du        
  18639 ****        -7.7500 -21.0000 -15.5000 Du        
  18640 ****        -7.7500 -21.0000 -15.2500 Du        
  18641 ****        -7.7500 -20.7500 -30.2500 Du        
  18642 ****        -7.7500 -20.7500 -30.0000 Du        
  18643 ****        -7.7500 -20.7500 -29.7500 Du        
  18644 ****        -7.7500 -20.7500 -29.5000 Du        
  18645 ****        -7.7500 -20.7500 -29.2500 Du        
  18646 ****        -7.7500 -20.7500 -29.0000 Du        
  18647 ****        -7.7500 -20.7500 -16.5000 Du        
  18648 ****        -7.7500 -20.7500 -16.2500 Du        
  18649 ****        -7.7500 -20.7500 -16.0000 Du        
  18650 ****        -7.7500 -20.7500 -15.7500 Du        
  18651 ****        -7.7500 -20.7500 -15.5000 Du        
  18652 ****        -7.7500 -20.7500 -15.2500 Du        
  18653 ****        -7.7500 -20.5000 -29.7500 Du        
  18654 ****        -7.7500 -20.5000 -16.5000 Du        
  18655 ****        -7.7500 -20.5000 -16.2500 Du        
  18656 ****        -7.7500 -20.5000 -16.0000 Du        
  18657 ****        -7.7500 -20.5000 -15.7500 Du        
  18658 ****        -7.7500 -20.5000 -15.5000 Du        
  18659 ****        -7.7500 -20.5000 -15.2500 Du        
  18660 ****        -7.7500 -20.2500 -16.5000 Du        
  18661 ****        -7.7500 -20.2500 -16.2500 Du        
  18662 ****        -7.7500 -20.2500 -16.0000 Du        
  18663 ****        -7.7500 -20.2500 -15.7500 Du        
  18664 ****        -7.7500 -20.2500 -15.5000 Du        
  18665 ****        -7.7500 -20.2500 -15.2500 Du        
  18666 ****        -7.7500 -20.0000 -16.5000 Du        
  18667 ****        -7.7500 -20.0000 -16.2500 Du        
  18668 ****        -7.7500 -20.0000 -16.0000 Du        
  18669 ****        -7.7500 -20.0000 -15.7500 Du        
  18670 ****        -7.7500 -20.0000 -15.5000 Du        
  18671 ****        -7.7500 -20.0000 -15.2500 Du        
  18672 ****        -7.7500 -19.7500 -16.5000 Du        
  18673 ****        -7.7500 -19.7500 -16.2500 Du        
  18674 ****        -7.7500 -19.7500 -16.0000 Du        
  18675 ****        -7.7500 -19.7500 -15.7500 Du        
  18676 ****        -7.7500 -19.7500 -15.5000 Du        
  18677 ****        -7.7500 -19.7500 -15.2500 Du        
  18678 ****        -7.7500 -19.5000 -16.7500 Du        
  18679 ****        -7.7500 -19.5000 -16.5000 Du        
  18680 ****        -7.7500 -19.5000 -16.2500 Du        
  18681 ****        -7.7500 -19.5000 -16.0000 Du        
  18682 ****        -7.7500 -19.5000 -15.7500 Du        
  18683 ****        -7.7500 -19.5000 -15.5000 Du        
  18684 ****        -7.7500 -19.5000 -15.2500 Du        
  18685 ****        -7.7500 -19.2500 -16.7500 Du        
  18686 ****        -7.7500 -19.2500 -16.5000 Du        
  18687 ****        -7.7500 -19.2500 -16.2500 Du        
  18688 ****        -7.7500 -19.2500 -16.0000 Du        
  18689 ****        -7.7500 -19.2500 -15.7500 Du        
  18690 ****        -7.7500 -19.2500 -15.5000 Du        
  18691 ****        -7.7500 -19.2500 -15.2500 Du        
  18692 ****        -7.7500 -19.0000 -16.7500 Du        
  18693 ****        -7.7500 -19.0000 -16.5000 Du        
  18694 ****        -7.7500 -19.0000 -16.2500 Du        
  18695 ****        -7.7500 -19.0000 -16.0000 Du        
  18696 ****        -7.7500 -19.0000 -15.7500 Du        
  18697 ****        -7.7500 -19.0000 -15.5000 Du        
  18698 ****        -7.7500 -19.0000 -15.2500 Du        
  18699 ****        -7.7500 -18.7500 -17.0000 Du        
  18700 ****        -7.7500 -18.7500 -16.7500 Du        
  18701 ****        -7.7500 -18.7500 -16.5000 Du        
  18702 ****        -7.7500 -18.7500 -16.2500 Du        
  18703 ****        -7.7500 -18.7500 -16.0000 Du        
  18704 ****        -7.7500 -18.7500 -15.7500 Du        
  18705 ****        -7.7500 -18.7500 -15.5000 Du        
  18706 ****        -7.7500 -18.7500 -15.2500 Du        
  18707 ****        -7.7500 -18.5000 -17.0000 Du        
  18708 ****        -7.7500 -18.5000 -16.7500 Du        
  18709 ****        -7.7500 -18.5000 -16.5000 Du        
  18710 ****        -7.7500 -18.5000 -16.2500 Du        
  18711 ****        -7.7500 -18.5000 -16.0000 Du        
  18712 ****        -7.7500 -18.5000 -15.7500 Du        
  18713 ****        -7.7500 -18.5000 -15.5000 Du        
  18714 ****        -7.7500 -18.5000 -15.2500 Du        
  18715 ****        -7.7500 -18.2500 -17.2500 Du        
  18716 ****        -7.7500 -18.2500 -17.0000 Du        
  18717 ****        -7.7500 -18.2500 -16.7500 Du        
  18718 ****        -7.7500 -18.2500 -16.5000 Du        
  18719 ****        -7.7500 -18.2500 -16.2500 Du        
  18720 ****        -7.7500 -18.2500 -16.0000 Du        
  18721 ****        -7.7500 -18.2500 -15.7500 Du        
  18722 ****        -7.7500 -18.2500 -15.5000 Du        
  18723 ****        -7.7500 -18.2500 -15.2500 Du        
  18724 ****        -7.7500 -18.0000 -17.2500 Du        
  18725 ****        -7.7500 -18.0000 -17.0000 Du        
  18726 ****        -7.7500 -18.0000 -16.7500 Du        
  18727 ****        -7.7500 -18.0000 -16.5000 Du        
  18728 ****        -7.7500 -18.0000 -16.2500 Du        
  18729 ****        -7.7500 -18.0000 -16.0000 Du        
  18730 ****        -7.7500 -18.0000 -15.7500 Du        
  18731 ****        -7.7500 -17.7500 -17.5000 Du        
  18732 ****        -7.7500 -17.7500 -17.2500 Du        
  18733 ****        -7.7500 -17.7500 -17.0000 Du        
  18734 ****        -7.7500 -17.7500 -16.7500 Du        
  18735 ****        -7.7500 -17.7500 -16.5000 Du        
  18736 ****        -7.7500 -17.7500 -16.2500 Du        
  18737 ****        -7.7500 -17.7500 -16.0000 Du        
  18738 ****        -7.7500 -17.7500 -15.7500 Du        
  18739 ****        -7.7500 -17.5000 -17.5000 Du        
  18740 ****        -7.7500 -17.5000 -17.2500 Du        
  18741 ****        -7.7500 -17.5000 -17.0000 Du        
  18742 ****        -7.7500 -17.5000 -16.7500 Du        
  18743 ****        -7.7500 -17.5000 -16.5000 Du        
  18744 ****        -7.7500 -17.5000 -16.2500 Du        
  18745 ****        -7.7500 -17.2500 -28.7500 Du        
  18746 ****        -7.7500 -17.2500 -17.7500 Du        
  18747 ****        -7.7500 -17.2500 -17.5000 Du        
  18748 ****        -7.7500 -17.2500 -17.2500 Du        
  18749 ****        -7.7500 -17.2500 -17.0000 Du        
  18750 ****        -7.7500 -17.2500 -16.7500 Du        
  18751 ****        -7.7500 -17.2500 -16.5000 Du        
  18752 ****        -7.7500 -17.2500 -16.2500 Du        
  18753 ****        -7.7500 -17.0000 -28.7500 Du        
  18754 ****        -7.7500 -17.0000 -18.0000 Du        
  18755 ****        -7.7500 -17.0000 -17.7500 Du        
  18756 ****        -7.7500 -17.0000 -17.5000 Du        
  18757 ****        -7.7500 -17.0000 -17.2500 Du        
  18758 ****        -7.7500 -17.0000 -17.0000 Du        
  18759 ****        -7.7500 -17.0000 -16.7500 Du        
  18760 ****        -7.7500 -17.0000 -16.5000 Du        
  18761 ****        -7.7500 -16.7500 -18.0000 Du        
  18762 ****        -7.7500 -16.7500 -17.7500 Du        
  18763 ****        -7.7500 -16.7500 -17.5000 Du        
  18764 ****        -7.7500 -16.7500 -17.2500 Du        
  18765 ****        -7.7500 -16.7500 -17.0000 Du        
  18766 ****        -7.7500 -16.7500 -16.7500 Du        
  18767 ****        -7.7500 -16.7500 -16.5000 Du        
  18768 ****        -7.7500 -16.5000 -18.0000 Du        
  18769 ****        -7.7500 -16.5000 -17.7500 Du        
  18770 ****        -7.7500 -16.5000 -17.5000 Du        
  18771 ****        -7.7500 -16.5000 -17.2500 Du        
  18772 ****        -7.7500 -16.5000 -17.0000 Du        
  18773 ****        -7.7500 -16.5000 -16.7500 Du        
  18774 ****        -7.7500 -16.2500 -18.0000 Du        
  18775 ****        -7.7500 -16.2500 -17.7500 Du        
  18776 ****        -7.7500 -16.2500 -17.5000 Du        
  18777 ****        -7.7500 -16.2500 -17.2500 Du        
  18778 ****        -7.7500 -16.2500 -17.0000 Du        
  18779 ****        -7.7500 -16.2500 -16.7500 Du        
  18780 ****        -7.7500 -16.0000 -17.7500 Du        
  18781 ****        -7.7500 -16.0000 -17.5000 Du        
  18782 ****        -7.7500 -16.0000 -17.2500 Du        
  18783 ****        -7.7500 -16.0000 -17.0000 Du        
  18784 ****        -7.7500 -16.0000 -16.7500 Du        
  18785 ****        -7.7500 -15.7500 -17.2500 Du        
  18786 ****        -7.7500 -15.7500 -17.0000 Du        
  18787 ****        -7.7500 -11.0000 -27.7500 Du        
  18788 ****        -7.7500 -10.7500 -27.7500 Du        
  18789 ****        -7.7500 -10.5000 -27.7500 Du        
  18790 ****        -7.7500 -10.2500 -27.7500 Du        
  18791 ****        -7.7500 -10.0000 -27.7500 Du        
  18792 ****        -7.7500   5.5000 -16.5000 Du        
  18793 ****        -7.7500   5.5000 -16.2500 Du        
  18794 ****        -7.7500   5.7500 -16.5000 Du        
  18795 ****        -7.7500   5.7500 -16.2500 Du        
  18796 ****        -7.5000 -29.0000  -3.7500 Du        
  18797 ****        -7.5000 -29.0000  -3.5000 Du        
  18798 ****        -7.5000 -29.0000  -3.2500 Du        
  18799 ****        -7.5000 -29.0000  -3.0000 Du        
  18800 ****        -7.5000 -29.0000  -2.7500 Du        
  18801 ****        -7.5000 -28.7500 -15.2500 Du        
  18802 ****        -7.5000 -28.7500 -15.0000 Du        
  18803 ****        -7.5000 -28.7500 -14.7500 Du        
  18804 ****        -7.5000 -28.7500 -14.5000 Du        
  18805 ****        -7.5000 -28.7500 -14.2500 Du        
  18806 ****        -7.5000 -28.7500  -3.5000 Du        
  18807 ****        -7.5000 -28.7500  -3.2500 Du        
  18808 ****        -7.5000 -28.7500  -3.0000 Du        
  18809 ****        -7.5000 -28.7500  -2.7500 Du        
  18810 ****        -7.5000 -28.7500  -2.5000 Du        
  18811 ****        -7.5000 -28.5000 -15.7500 Du        
  18812 ****        -7.5000 -28.5000 -15.5000 Du        
  18813 ****        -7.5000 -28.5000 -15.2500 Du        
  18814 ****        -7.5000 -28.5000 -15.0000 Du        
  18815 ****        -7.5000 -28.5000 -14.7500 Du        
  18816 ****        -7.5000 -28.5000 -14.5000 Du        
  18817 ****        -7.5000 -28.5000 -14.2500 Du        
  18818 ****        -7.5000 -28.5000 -14.0000 Du        
  18819 ****        -7.5000 -28.5000  -3.2500 Du        
  18820 ****        -7.5000 -28.5000  -3.0000 Du        
  18821 ****        -7.5000 -28.5000  -2.7500 Du        
  18822 ****        -7.5000 -28.5000  -2.5000 Du        
  18823 ****        -7.5000 -28.5000  -2.2500 Du        
  18824 ****        -7.5000 -28.2500 -15.7500 Du        
  18825 ****        -7.5000 -28.2500 -15.5000 Du        
  18826 ****        -7.5000 -28.2500 -15.2500 Du        
  18827 ****        -7.5000 -28.2500 -15.0000 Du        
  18828 ****        -7.5000 -28.2500 -14.7500 Du        
  18829 ****        -7.5000 -28.2500 -14.5000 Du        
  18830 ****        -7.5000 -28.2500 -14.2500 Du        
  18831 ****        -7.5000 -28.2500 -14.0000 Du        
  18832 ****        -7.5000 -28.2500 -13.7500 Du        
  18833 ****        -7.5000 -28.2500  -8.0000 Du        
  18834 ****        -7.5000 -28.2500  -7.7500 Du        
  18835 ****        -7.5000 -28.2500  -7.5000 Du        
  18836 ****        -7.5000 -28.2500  -7.2500 Du        
  18837 ****        -7.5000 -28.2500  -3.0000 Du        
  18838 ****        -7.5000 -28.2500  -2.7500 Du        
  18839 ****        -7.5000 -28.2500  -2.5000 Du        
  18840 ****        -7.5000 -28.2500  -2.2500 Du        
  18841 ****        -7.5000 -28.2500  -2.0000 Du        
  18842 ****        -7.5000 -28.0000 -15.7500 Du        
  18843 ****        -7.5000 -28.0000 -15.5000 Du        
  18844 ****        -7.5000 -28.0000 -15.2500 Du        
  18845 ****        -7.5000 -28.0000 -15.0000 Du        
  18846 ****        -7.5000 -28.0000 -14.7500 Du        
  18847 ****        -7.5000 -28.0000 -14.5000 Du        
  18848 ****        -7.5000 -28.0000 -14.2500 Du        
  18849 ****        -7.5000 -28.0000 -14.0000 Du        
  18850 ****        -7.5000 -28.0000 -13.7500 Du        
  18851 ****        -7.5000 -28.0000  -8.0000 Du        
  18852 ****        -7.5000 -28.0000  -7.7500 Du        
  18853 ****        -7.5000 -28.0000  -7.5000 Du        
  18854 ****        -7.5000 -28.0000  -7.2500 Du        
  18855 ****        -7.5000 -28.0000  -2.5000 Du        
  18856 ****        -7.5000 -28.0000  -2.2500 Du        
  18857 ****        -7.5000 -27.7500 -15.7500 Du        
  18858 ****        -7.5000 -27.7500 -15.5000 Du        
  18859 ****        -7.5000 -27.7500 -15.2500 Du        
  18860 ****        -7.5000 -27.7500 -15.0000 Du        
  18861 ****        -7.5000 -27.7500 -14.7500 Du        
  18862 ****        -7.5000 -27.7500 -14.5000 Du        
  18863 ****        -7.5000 -27.7500 -14.2500 Du        
  18864 ****        -7.5000 -27.7500 -14.0000 Du        
  18865 ****        -7.5000 -27.7500 -13.7500 Du        
  18866 ****        -7.5000 -27.7500  -9.0000 Du        
  18867 ****        -7.5000 -27.7500  -8.7500 Du        
  18868 ****        -7.5000 -27.7500  -8.5000 Du        
  18869 ****        -7.5000 -27.7500  -8.2500 Du        
  18870 ****        -7.5000 -27.7500  -8.0000 Du        
  18871 ****        -7.5000 -27.7500  -7.7500 Du        
  18872 ****        -7.5000 -27.7500  -7.5000 Du        
  18873 ****        -7.5000 -27.7500  -7.2500 Du        
  18874 ****        -7.5000 -27.5000 -15.2500 Du        
  18875 ****        -7.5000 -27.5000 -15.0000 Du        
  18876 ****        -7.5000 -27.5000 -14.7500 Du        
  18877 ****        -7.5000 -27.5000 -14.5000 Du        
  18878 ****        -7.5000 -27.5000 -14.2500 Du        
  18879 ****        -7.5000 -27.5000 -14.0000 Du        
  18880 ****        -7.5000 -27.5000 -13.7500 Du        
  18881 ****        -7.5000 -27.5000 -10.0000 Du        
  18882 ****        -7.5000 -27.5000  -9.7500 Du        
  18883 ****        -7.5000 -27.5000  -9.5000 Du        
  18884 ****        -7.5000 -27.5000  -9.2500 Du        
  18885 ****        -7.5000 -27.5000  -9.0000 Du        
  18886 ****        -7.5000 -27.5000  -8.7500 Du        
  18887 ****        -7.5000 -27.5000  -8.5000 Du        
  18888 ****        -7.5000 -27.5000  -8.2500 Du        
  18889 ****        -7.5000 -27.5000  -8.0000 Du        
  18890 ****        -7.5000 -27.5000  -7.7500 Du        
  18891 ****        -7.5000 -27.5000  -7.5000 Du        
  18892 ****        -7.5000 -27.2500 -15.0000 Du        
  18893 ****        -7.5000 -27.2500 -14.7500 Du        
  18894 ****        -7.5000 -27.2500 -14.5000 Du        
  18895 ****        -7.5000 -27.2500 -14.2500 Du        
  18896 ****        -7.5000 -27.2500 -14.0000 Du        
  18897 ****        -7.5000 -27.2500 -13.7500 Du        
  18898 ****        -7.5000 -27.2500 -10.0000 Du        
  18899 ****        -7.5000 -27.2500  -9.7500 Du        
  18900 ****        -7.5000 -27.2500  -9.5000 Du        
  18901 ****        -7.5000 -27.2500  -9.2500 Du        
  18902 ****        -7.5000 -27.2500  -9.0000 Du        
  18903 ****        -7.5000 -27.2500  -8.7500 Du        
  18904 ****        -7.5000 -27.2500  -8.5000 Du        
  18905 ****        -7.5000 -27.2500  -8.2500 Du        
  18906 ****        -7.5000 -27.2500  -8.0000 Du        
  18907 ****        -7.5000 -27.2500  -7.7500 Du        
  18908 ****        -7.5000 -27.2500  -7.5000 Du        
  18909 ****        -7.5000 -27.0000 -14.7500 Du        
  18910 ****        -7.5000 -27.0000 -14.5000 Du        
  18911 ****        -7.5000 -27.0000 -14.2500 Du        
  18912 ****        -7.5000 -27.0000 -14.0000 Du        
  18913 ****        -7.5000 -27.0000 -13.7500 Du        
  18914 ****        -7.5000 -27.0000  -9.7500 Du        
  18915 ****        -7.5000 -27.0000  -9.5000 Du        
  18916 ****        -7.5000 -27.0000  -9.2500 Du        
  18917 ****        -7.5000 -27.0000  -9.0000 Du        
  18918 ****        -7.5000 -27.0000  -8.7500 Du        
  18919 ****        -7.5000 -27.0000  -8.5000 Du        
  18920 ****        -7.5000 -27.0000  -8.2500 Du        
  18921 ****        -7.5000 -27.0000  -8.0000 Du        
  18922 ****        -7.5000 -27.0000  -7.7500 Du        
  18923 ****        -7.5000 -26.7500 -14.5000 Du        
  18924 ****        -7.5000 -26.7500 -14.2500 Du        
  18925 ****        -7.5000 -26.7500 -14.0000 Du        
  18926 ****        -7.5000 -26.7500  -9.5000 Du        
  18927 ****        -7.5000 -26.7500  -9.2500 Du        
  18928 ****        -7.5000 -26.7500  -9.0000 Du        
  18929 ****        -7.5000 -26.7500  -8.7500 Du        
  18930 ****        -7.5000 -26.7500  -8.5000 Du        
  18931 ****        -7.5000 -26.7500  -8.2500 Du        
  18932 ****        -7.5000 -26.7500  -8.0000 Du        
  18933 ****        -7.5000 -26.5000  -9.2500 Du        
  18934 ****        -7.5000 -26.5000  -9.0000 Du        
  18935 ****        -7.5000 -26.5000  -8.7500 Du        
  18936 ****        -7.5000 -26.5000  -8.5000 Du        
  18937 ****        -7.5000 -26.5000  -8.2500 Du        
  18938 ****        -7.5000 -26.2500  -9.0000 Du        
  18939 ****        -7.5000 -26.2500  -8.7500 Du        
  18940 ****        -7.5000 -26.2500  -8.5000 Du        
  18941 ****        -7.5000 -26.0000 -28.2500 Du        
  18942 ****        -7.5000 -26.0000 -28.0000 Du        
  18943 ****        -7.5000 -25.7500 -28.2500 Du        
  18944 ****        -7.5000 -25.7500 -28.0000 Du        
  18945 ****        -7.5000 -25.7500 -27.5000 Du        
  18946 ****        -7.5000 -25.5000 -27.5000 Du        
  18947 ****        -7.5000 -25.2500 -28.0000 Du        
  18948 ****        -7.5000 -25.2500 -27.7500 Du        
  18949 ****        -7.5000 -25.2500 -27.5000 Du        
  18950 ****        -7.5000 -25.2500 -27.2500 Du        
  18951 ****        -7.5000 -25.2500 -27.0000 Du        
  18952 ****        -7.5000 -25.0000 -28.0000 Du        
  18953 ****        -7.5000 -25.0000 -27.7500 Du        
  18954 ****        -7.5000 -25.0000 -27.5000 Du        
  18955 ****        -7.5000 -25.0000 -27.2500 Du        
  18956 ****        -7.5000 -25.0000 -27.0000 Du        
  18957 ****        -7.5000 -24.7500 -28.0000 Du        
  18958 ****        -7.5000 -24.7500 -27.7500 Du        
  18959 ****        -7.5000 -24.7500 -27.5000 Du        
  18960 ****        -7.5000 -24.7500 -27.2500 Du        
  18961 ****        -7.5000 -24.7500 -27.0000 Du        
  18962 ****        -7.5000 -24.5000 -27.5000 Du        
  18963 ****        -7.5000 -24.5000 -27.2500 Du        
  18964 ****        -7.5000 -24.5000 -27.0000 Du        
  18965 ****        -7.5000 -24.2500 -27.5000 Du        
  18966 ****        -7.5000 -24.2500 -27.2500 Du        
  18967 ****        -7.5000 -24.2500 -27.0000 Du        
  18968 ****        -7.5000 -24.0000 -27.5000 Du        
  18969 ****        -7.5000 -24.0000 -27.2500 Du        
  18970 ****        -7.5000 -22.7500 -29.7500 Du        
  18971 ****        -7.5000 -22.5000 -30.2500 Du        
  18972 ****        -7.5000 -22.5000 -30.0000 Du        
  18973 ****        -7.5000 -22.5000 -29.7500 Du        
  18974 ****        -7.5000 -22.2500 -30.5000 Du        
  18975 ****        -7.5000 -22.2500 -30.2500 Du        
  18976 ****        -7.5000 -22.2500 -30.0000 Du        
  18977 ****        -7.5000 -22.2500 -29.7500 Du        
  18978 ****        -7.5000 -22.2500 -29.5000 Du        
  18979 ****        -7.5000 -22.2500 -29.2500 Du        
  18980 ****        -7.5000 -22.0000 -30.7500 Du        
  18981 ****        -7.5000 -22.0000 -30.5000 Du        
  18982 ****        -7.5000 -22.0000 -30.2500 Du        
  18983 ****        -7.5000 -22.0000 -30.0000 Du        
  18984 ****        -7.5000 -22.0000 -29.7500 Du        
  18985 ****        -7.5000 -22.0000 -29.5000 Du        
  18986 ****        -7.5000 -22.0000 -29.2500 Du        
  18987 ****        -7.5000 -22.0000 -15.7500 Du        
  18988 ****        -7.5000 -22.0000 -15.5000 Du        
  18989 ****        -7.5000 -22.0000 -15.2500 Du        
  18990 ****        -7.5000 -21.7500 -30.7500 Du        
  18991 ****        -7.5000 -21.7500 -30.5000 Du        
  18992 ****        -7.5000 -21.7500 -30.2500 Du        
  18993 ****        -7.5000 -21.7500 -30.0000 Du        
  18994 ****        -7.5000 -21.7500 -29.7500 Du        
  18995 ****        -7.5000 -21.7500 -29.5000 Du        
  18996 ****        -7.5000 -21.7500 -29.2500 Du        
  18997 ****        -7.5000 -21.7500 -29.0000 Du        
  18998 ****        -7.5000 -21.7500 -16.0000 Du        
  18999 ****        -7.5000 -21.7500 -15.7500 Du        
  19000 ****        -7.5000 -21.7500 -15.5000 Du        
  19001 ****        -7.5000 -21.7500 -15.2500 Du        
  19002 ****        -7.5000 -21.5000 -30.7500 Du        
  19003 ****        -7.5000 -21.5000 -30.5000 Du        
  19004 ****        -7.5000 -21.5000 -30.2500 Du        
  19005 ****        -7.5000 -21.5000 -30.0000 Du        
  19006 ****        -7.5000 -21.5000 -29.7500 Du        
  19007 ****        -7.5000 -21.5000 -29.5000 Du        
  19008 ****        -7.5000 -21.5000 -29.2500 Du        
  19009 ****        -7.5000 -21.5000 -29.0000 Du        
  19010 ****        -7.5000 -21.5000 -16.0000 Du        
  19011 ****        -7.5000 -21.5000 -15.7500 Du        
  19012 ****        -7.5000 -21.5000 -15.5000 Du        
  19013 ****        -7.5000 -21.5000 -15.2500 Du        
  19014 ****        -7.5000 -21.2500 -30.5000 Du        
  19015 ****        -7.5000 -21.2500 -30.2500 Du        
  19016 ****        -7.5000 -21.2500 -30.0000 Du        
  19017 ****        -7.5000 -21.2500 -29.7500 Du        
  19018 ****        -7.5000 -21.2500 -29.5000 Du        
  19019 ****        -7.5000 -21.2500 -29.2500 Du        
  19020 ****        -7.5000 -21.2500 -29.0000 Du        
  19021 ****        -7.5000 -21.2500 -16.0000 Du        
  19022 ****        -7.5000 -21.2500 -15.7500 Du        
  19023 ****        -7.5000 -21.2500 -15.5000 Du        
  19024 ****        -7.5000 -21.0000 -30.2500 Du        
  19025 ****        -7.5000 -21.0000 -30.0000 Du        
  19026 ****        -7.5000 -21.0000 -29.7500 Du        
  19027 ****        -7.5000 -21.0000 -29.5000 Du        
  19028 ****        -7.5000 -21.0000 -29.2500 Du        
  19029 ****        -7.5000 -21.0000 -29.0000 Du        
  19030 ****        -7.5000 -21.0000 -16.2500 Du        
  19031 ****        -7.5000 -21.0000 -16.0000 Du        
  19032 ****        -7.5000 -21.0000 -15.7500 Du        
  19033 ****        -7.5000 -21.0000 -15.5000 Du        
  19034 ****        -7.5000 -20.7500 -30.0000 Du        
  19035 ****        -7.5000 -20.7500 -29.7500 Du        
  19036 ****        -7.5000 -20.7500 -29.5000 Du        
  19037 ****        -7.5000 -20.7500 -29.2500 Du        
  19038 ****        -7.5000 -20.7500 -16.2500 Du        
  19039 ****        -7.5000 -20.7500 -16.0000 Du        
  19040 ****        -7.5000 -20.7500 -15.7500 Du        
  19041 ****        -7.5000 -20.7500 -15.5000 Du        
  19042 ****        -7.5000 -20.5000 -30.0000 Du        
  19043 ****        -7.5000 -20.5000 -29.7500 Du        
  19044 ****        -7.5000 -20.5000 -29.2500 Du        
  19045 ****        -7.5000 -20.5000 -16.2500 Du        
  19046 ****        -7.5000 -20.5000 -16.0000 Du        
  19047 ****        -7.5000 -20.5000 -15.7500 Du        
  19048 ****        -7.5000 -20.5000 -15.5000 Du        
  19049 ****        -7.5000 -20.2500 -29.7500 Du        
  19050 ****        -7.5000 -20.2500 -16.2500 Du        
  19051 ****        -7.5000 -20.2500 -16.0000 Du        
  19052 ****        -7.5000 -20.2500 -15.7500 Du        
  19053 ****        -7.5000 -20.2500 -15.5000 Du        
  19054 ****        -7.5000 -20.0000 -16.5000 Du        
  19055 ****        -7.5000 -20.0000 -16.2500 Du        
  19056 ****        -7.5000 -20.0000 -16.0000 Du        
  19057 ****        -7.5000 -20.0000 -15.7500 Du        
  19058 ****        -7.5000 -20.0000 -15.5000 Du        
  19059 ****        -7.5000 -19.7500 -16.5000 Du        
  19060 ****        -7.5000 -19.7500 -16.2500 Du        
  19061 ****        -7.5000 -19.7500 -16.0000 Du        
  19062 ****        -7.5000 -19.7500 -15.7500 Du        
  19063 ****        -7.5000 -19.7500 -15.5000 Du        
  19064 ****        -7.5000 -19.5000 -16.5000 Du        
  19065 ****        -7.5000 -19.5000 -16.2500 Du        
  19066 ****        -7.5000 -19.5000 -16.0000 Du        
  19067 ****        -7.5000 -19.5000 -15.7500 Du        
  19068 ****        -7.5000 -19.5000 -15.5000 Du        
  19069 ****        -7.5000 -19.2500 -16.5000 Du        
  19070 ****        -7.5000 -19.2500 -16.2500 Du        
  19071 ****        -7.5000 -19.2500 -16.0000 Du        
  19072 ****        -7.5000 -19.2500 -15.7500 Du        
  19073 ****        -7.5000 -19.2500 -15.5000 Du        
  19074 ****        -7.5000 -19.0000 -16.7500 Du        
  19075 ****        -7.5000 -19.0000 -16.5000 Du        
  19076 ****        -7.5000 -19.0000 -16.2500 Du        
  19077 ****        -7.5000 -19.0000 -16.0000 Du        
  19078 ****        -7.5000 -19.0000 -15.7500 Du        
  19079 ****        -7.5000 -19.0000 -15.5000 Du        
  19080 ****        -7.5000 -19.0000 -15.2500 Du        
  19081 ****        -7.5000 -18.7500 -16.7500 Du        
  19082 ****        -7.5000 -18.7500 -16.5000 Du        
  19083 ****        -7.5000 -18.7500 -16.2500 Du        
  19084 ****        -7.5000 -18.7500 -16.0000 Du        
  19085 ****        -7.5000 -18.7500 -15.7500 Du        
  19086 ****        -7.5000 -18.7500 -15.5000 Du        
  19087 ****        -7.5000 -18.7500 -15.2500 Du        
  19088 ****        -7.5000 -18.5000 -17.0000 Du        
  19089 ****        -7.5000 -18.5000 -16.7500 Du        
  19090 ****        -7.5000 -18.5000 -16.5000 Du        
  19091 ****        -7.5000 -18.5000 -16.2500 Du        
  19092 ****        -7.5000 -18.5000 -16.0000 Du        
  19093 ****        -7.5000 -18.5000 -15.7500 Du        
  19094 ****        -7.5000 -18.5000 -15.5000 Du        
  19095 ****        -7.5000 -18.2500 -17.0000 Du        
  19096 ****        -7.5000 -18.2500 -16.7500 Du        
  19097 ****        -7.5000 -18.2500 -16.5000 Du        
  19098 ****        -7.5000 -18.2500 -16.2500 Du        
  19099 ****        -7.5000 -18.2500 -16.0000 Du        
  19100 ****        -7.5000 -18.2500 -15.7500 Du        
  19101 ****        -7.5000 -18.0000 -17.2500 Du        
  19102 ****        -7.5000 -18.0000 -17.0000 Du        
  19103 ****        -7.5000 -18.0000 -16.7500 Du        
  19104 ****        -7.5000 -18.0000 -16.5000 Du        
  19105 ****        -7.5000 -18.0000 -16.2500 Du        
  19106 ****        -7.5000 -18.0000 -16.0000 Du        
  19107 ****        -7.5000 -17.7500 -28.7500 Du        
  19108 ****        -7.5000 -17.7500 -17.5000 Du        
  19109 ****        -7.5000 -17.7500 -17.2500 Du        
  19110 ****        -7.5000 -17.7500 -17.0000 Du        
  19111 ****        -7.5000 -17.7500 -16.7500 Du        
  19112 ****        -7.5000 -17.7500 -16.5000 Du        
  19113 ****        -7.5000 -17.7500 -16.2500 Du        
  19114 ****        -7.5000 -17.5000 -29.0000 Du        
  19115 ****        -7.5000 -17.5000 -28.7500 Du        
  19116 ****        -7.5000 -17.5000 -17.5000 Du        
  19117 ****        -7.5000 -17.5000 -17.2500 Du        
  19118 ****        -7.5000 -17.5000 -17.0000 Du        
  19119 ****        -7.5000 -17.5000 -16.7500 Du        
  19120 ****        -7.5000 -17.5000 -16.5000 Du        
  19121 ****        -7.5000 -17.2500 -29.0000 Du        
  19122 ****        -7.5000 -17.2500 -28.7500 Du        
  19123 ****        -7.5000 -17.2500 -18.0000 Du        
  19124 ****        -7.5000 -17.2500 -17.7500 Du        
  19125 ****        -7.5000 -17.2500 -17.5000 Du        
  19126 ****        -7.5000 -17.2500 -17.2500 Du        
  19127 ****        -7.5000 -17.2500 -17.0000 Du        
  19128 ****        -7.5000 -17.2500 -16.7500 Du        
  19129 ****        -7.5000 -17.2500 -16.5000 Du        
  19130 ****        -7.5000 -17.0000 -28.7500 Du        
  19131 ****        -7.5000 -17.0000 -18.2500 Du        
  19132 ****        -7.5000 -17.0000 -18.0000 Du        
  19133 ****        -7.5000 -17.0000 -17.7500 Du        
  19134 ****        -7.5000 -17.0000 -17.5000 Du        
  19135 ****        -7.5000 -17.0000 -17.2500 Du        
  19136 ****        -7.5000 -17.0000 -17.0000 Du        
  19137 ****        -7.5000 -17.0000 -16.7500 Du        
  19138 ****        -7.5000 -16.7500 -18.5000 Du        
  19139 ****        -7.5000 -16.7500 -18.2500 Du        
  19140 ****        -7.5000 -16.7500 -18.0000 Du        
  19141 ****        -7.5000 -16.7500 -17.7500 Du        
  19142 ****        -7.5000 -16.7500 -17.5000 Du        
  19143 ****        -7.5000 -16.7500 -17.2500 Du        
  19144 ****        -7.5000 -16.7500 -17.0000 Du        
  19145 ****        -7.5000 -16.7500 -16.7500 Du        
  19146 ****        -7.5000 -16.5000 -18.5000 Du        
  19147 ****        -7.5000 -16.5000 -18.2500 Du        
  19148 ****        -7.5000 -16.5000 -18.0000 Du        
  19149 ****        -7.5000 -16.5000 -17.7500 Du        
  19150 ****        -7.5000 -16.5000 -17.5000 Du        
  19151 ****        -7.5000 -16.5000 -17.2500 Du        
  19152 ****        -7.5000 -16.5000 -17.0000 Du        
  19153 ****        -7.5000 -16.2500 -18.5000 Du        
  19154 ****        -7.5000 -16.2500 -18.2500 Du        
  19155 ****        -7.5000 -16.2500 -18.0000 Du        
  19156 ****        -7.5000 -16.2500 -17.7500 Du        
  19157 ****        -7.5000 -16.2500 -17.5000 Du        
  19158 ****        -7.5000 -16.2500 -17.2500 Du        
  19159 ****        -7.5000 -16.2500 -17.0000 Du        
  19160 ****        -7.5000 -16.0000 -17.2500 Du        
  19161 ****        -7.5000 -16.0000 -17.0000 Du        
  19162 ****        -7.5000   5.2500 -16.2500 Du        
  19163 ****        -7.5000   5.2500 -16.0000 Du        
  19164 ****        -7.5000   5.5000 -16.5000 Du        
  19165 ****        -7.5000   5.5000 -16.2500 Du        
  19166 ****        -7.5000   5.7500 -16.5000 Du        
  19167 ****        -7.2500 -29.0000 -15.7500 Du        
  19168 ****        -7.2500 -29.0000 -15.5000 Du        
  19169 ****        -7.2500 -29.0000 -15.2500 Du        
  19170 ****        -7.2500 -29.0000 -15.0000 Du        
  19171 ****        -7.2500 -29.0000 -14.7500 Du        
  19172 ****        -7.2500 -29.0000 -14.5000 Du        
  19173 ****        -7.2500 -29.0000 -14.2500 Du        
  19174 ****        -7.2500 -29.0000  -5.2500 Du        
  19175 ****        -7.2500 -29.0000  -5.0000 Du        
  19176 ****        -7.2500 -29.0000  -4.7500 Du        
  19177 ****        -7.2500 -29.0000  -4.5000 Du        
  19178 ****        -7.2500 -29.0000  -4.2500 Du        
  19179 ****        -7.2500 -29.0000  -4.0000 Du        
  19180 ****        -7.2500 -29.0000  -3.7500 Du        
  19181 ****        -7.2500 -29.0000  -3.5000 Du        
  19182 ****        -7.2500 -29.0000  -3.2500 Du        
  19183 ****        -7.2500 -29.0000  -3.0000 Du        
  19184 ****        -7.2500 -29.0000  -2.7500 Du        
  19185 ****        -7.2500 -28.7500 -15.7500 Du        
  19186 ****        -7.2500 -28.7500 -15.5000 Du        
  19187 ****        -7.2500 -28.7500 -15.2500 Du        
  19188 ****        -7.2500 -28.7500 -15.0000 Du        
  19189 ****        -7.2500 -28.7500 -14.7500 Du        
  19190 ****        -7.2500 -28.7500 -14.5000 Du        
  19191 ****        -7.2500 -28.7500 -14.2500 Du        
  19192 ****        -7.2500 -28.7500 -14.0000 Du        
  19193 ****        -7.2500 -28.7500  -4.2500 Du        
  19194 ****        -7.2500 -28.7500  -4.0000 Du        
  19195 ****        -7.2500 -28.7500  -3.7500 Du        
  19196 ****        -7.2500 -28.7500  -3.5000 Du        
  19197 ****        -7.2500 -28.7500  -3.2500 Du        
  19198 ****        -7.2500 -28.7500  -3.0000 Du        
  19199 ****        -7.2500 -28.7500  -2.7500 Du        
  19200 ****        -7.2500 -28.7500  -2.5000 Du        
  19201 ****        -7.2500 -28.5000 -15.7500 Du        
  19202 ****        -7.2500 -28.5000 -15.5000 Du        
  19203 ****        -7.2500 -28.5000 -15.2500 Du        
  19204 ****        -7.2500 -28.5000 -15.0000 Du        
  19205 ****        -7.2500 -28.5000 -14.7500 Du        
  19206 ****        -7.2500 -28.5000 -14.5000 Du        
  19207 ****        -7.2500 -28.5000 -14.2500 Du        
  19208 ****        -7.2500 -28.5000 -14.0000 Du        
  19209 ****        -7.2500 -28.5000  -7.5000 Du        
  19210 ****        -7.2500 -28.5000  -7.2500 Du        
  19211 ****        -7.2500 -28.5000  -7.0000 Du        
  19212 ****        -7.2500 -28.5000  -6.7500 Du        
  19213 ****        -7.2500 -28.5000  -3.7500 Du        
  19214 ****        -7.2500 -28.5000  -3.5000 Du        
  19215 ****        -7.2500 -28.5000  -3.2500 Du        
  19216 ****        -7.2500 -28.5000  -3.0000 Du        
  19217 ****        -7.2500 -28.5000  -2.7500 Du        
  19218 ****        -7.2500 -28.5000  -2.5000 Du        
  19219 ****        -7.2500 -28.2500 -15.7500 Du        
  19220 ****        -7.2500 -28.2500 -15.5000 Du        
  19221 ****        -7.2500 -28.2500 -15.2500 Du        
  19222 ****        -7.2500 -28.2500 -15.0000 Du        
  19223 ****        -7.2500 -28.2500 -14.7500 Du        
  19224 ****        -7.2500 -28.2500 -14.5000 Du        
  19225 ****        -7.2500 -28.2500 -14.2500 Du        
  19226 ****        -7.2500 -28.2500 -14.0000 Du        
  19227 ****        -7.2500 -28.2500  -8.0000 Du        
  19228 ****        -7.2500 -28.2500  -7.7500 Du        
  19229 ****        -7.2500 -28.2500  -7.5000 Du        
  19230 ****        -7.2500 -28.2500  -7.2500 Du        
  19231 ****        -7.2500 -28.2500  -7.0000 Du        
  19232 ****        -7.2500 -28.2500  -6.7500 Du        
  19233 ****        -7.2500 -28.2500  -3.2500 Du        
  19234 ****        -7.2500 -28.2500  -3.0000 Du        
  19235 ****        -7.2500 -28.2500  -2.7500 Du        
  19236 ****        -7.2500 -28.2500  -2.5000 Du        
  19237 ****        -7.2500 -28.2500  -2.2500 Du        
  19238 ****        -7.2500 -28.0000 -15.7500 Du        
  19239 ****        -7.2500 -28.0000 -15.5000 Du        
  19240 ****        -7.2500 -28.0000 -15.2500 Du        
  19241 ****        -7.2500 -28.0000 -15.0000 Du        
  19242 ****        -7.2500 -28.0000 -14.7500 Du        
  19243 ****        -7.2500 -28.0000 -14.5000 Du        
  19244 ****        -7.2500 -28.0000 -14.2500 Du        
  19245 ****        -7.2500 -28.0000 -14.0000 Du        
  19246 ****        -7.2500 -28.0000 -13.7500 Du        
  19247 ****        -7.2500 -28.0000  -8.7500 Du        
  19248 ****        -7.2500 -28.0000  -8.2500 Du        
  19249 ****        -7.2500 -28.0000  -8.0000 Du        
  19250 ****        -7.2500 -28.0000  -7.7500 Du        
  19251 ****        -7.2500 -28.0000  -7.5000 Du        
  19252 ****        -7.2500 -28.0000  -7.2500 Du        
  19253 ****        -7.2500 -28.0000  -7.0000 Du        
  19254 ****        -7.2500 -28.0000  -2.7500 Du        
  19255 ****        -7.2500 -28.0000  -2.5000 Du        
  19256 ****        -7.2500 -28.0000  -2.2500 Du        
  19257 ****        -7.2500 -28.0000  -2.0000 Du        
  19258 ****        -7.2500 -27.7500 -15.5000 Du        
  19259 ****        -7.2500 -27.7500 -15.2500 Du        
  19260 ****        -7.2500 -27.7500 -15.0000 Du        
  19261 ****        -7.2500 -27.7500 -14.7500 Du        
  19262 ****        -7.2500 -27.7500 -14.5000 Du        
  19263 ****        -7.2500 -27.7500 -14.2500 Du        
  19264 ****        -7.2500 -27.7500 -14.0000 Du        
  19265 ****        -7.2500 -27.7500 -13.7500 Du        
  19266 ****        -7.2500 -27.7500  -9.2500 Du        
  19267 ****        -7.2500 -27.7500  -9.0000 Du        
  19268 ****        -7.2500 -27.7500  -8.7500 Du        
  19269 ****        -7.2500 -27.7500  -8.5000 Du        
  19270 ****        -7.2500 -27.7500  -8.2500 Du        
  19271 ****        -7.2500 -27.7500  -8.0000 Du        
  19272 ****        -7.2500 -27.7500  -7.7500 Du        
  19273 ****        -7.2500 -27.7500  -7.5000 Du        
  19274 ****        -7.2500 -27.7500  -7.2500 Du        
  19275 ****        -7.2500 -27.7500  -7.0000 Du        
  19276 ****        -7.2500 -27.7500  -2.5000 Du        
  19277 ****        -7.2500 -27.7500  -2.2500 Du        
  19278 ****        -7.2500 -27.5000 -15.2500 Du        
  19279 ****        -7.2500 -27.5000 -15.0000 Du        
  19280 ****        -7.2500 -27.5000 -14.7500 Du        
  19281 ****        -7.2500 -27.5000 -14.5000 Du        
  19282 ****        -7.2500 -27.5000 -14.2500 Du        
  19283 ****        -7.2500 -27.5000 -14.0000 Du        
  19284 ****        -7.2500 -27.5000 -13.7500 Du        
  19285 ****        -7.2500 -27.5000 -10.0000 Du        
  19286 ****        -7.2500 -27.5000  -9.7500 Du        
  19287 ****        -7.2500 -27.5000  -9.5000 Du        
  19288 ****        -7.2500 -27.5000  -9.2500 Du        
  19289 ****        -7.2500 -27.5000  -9.0000 Du        
  19290 ****        -7.2500 -27.5000  -8.7500 Du        
  19291 ****        -7.2500 -27.5000  -8.5000 Du        
  19292 ****        -7.2500 -27.5000  -8.2500 Du        
  19293 ****        -7.2500 -27.5000  -8.0000 Du        
  19294 ****        -7.2500 -27.5000  -7.7500 Du        
  19295 ****        -7.2500 -27.5000  -7.5000 Du        
  19296 ****        -7.2500 -27.5000  -7.2500 Du        
  19297 ****        -7.2500 -27.2500 -15.0000 Du        
  19298 ****        -7.2500 -27.2500 -14.7500 Du        
  19299 ****        -7.2500 -27.2500 -14.5000 Du        
  19300 ****        -7.2500 -27.2500 -14.2500 Du        
  19301 ****        -7.2500 -27.2500 -14.0000 Du        
  19302 ****        -7.2500 -27.2500 -13.7500 Du        
  19303 ****        -7.2500 -27.2500 -13.0000 Du        
  19304 ****        -7.2500 -27.2500 -10.2500 Du        
  19305 ****        -7.2500 -27.2500 -10.0000 Du        
  19306 ****        -7.2500 -27.2500  -9.7500 Du        
  19307 ****        -7.2500 -27.2500  -9.5000 Du        
  19308 ****        -7.2500 -27.2500  -9.2500 Du        
  19309 ****        -7.2500 -27.2500  -9.0000 Du        
  19310 ****        -7.2500 -27.2500  -8.7500 Du        
  19311 ****        -7.2500 -27.2500  -8.5000 Du        
  19312 ****        -7.2500 -27.2500  -8.2500 Du        
  19313 ****        -7.2500 -27.2500  -8.0000 Du        
  19314 ****        -7.2500 -27.2500  -7.7500 Du        
  19315 ****        -7.2500 -27.2500  -7.5000 Du        
  19316 ****        -7.2500 -27.0000 -14.7500 Du        
  19317 ****        -7.2500 -27.0000 -14.5000 Du        
  19318 ****        -7.2500 -27.0000 -14.2500 Du        
  19319 ****        -7.2500 -27.0000 -14.0000 Du        
  19320 ****        -7.2500 -27.0000 -13.7500 Du        
  19321 ****        -7.2500 -27.0000 -10.0000 Du        
  19322 ****        -7.2500 -27.0000  -9.7500 Du        
  19323 ****        -7.2500 -27.0000  -9.5000 Du        
  19324 ****        -7.2500 -27.0000  -9.2500 Du        
  19325 ****        -7.2500 -27.0000  -9.0000 Du        
  19326 ****        -7.2500 -27.0000  -8.7500 Du        
  19327 ****        -7.2500 -27.0000  -8.5000 Du        
  19328 ****        -7.2500 -27.0000  -8.2500 Du        
  19329 ****        -7.2500 -27.0000  -8.0000 Du        
  19330 ****        -7.2500 -27.0000  -7.7500 Du        
  19331 ****        -7.2500 -26.7500 -14.5000 Du        
  19332 ****        -7.2500 -26.7500 -14.2500 Du        
  19333 ****        -7.2500 -26.7500 -14.0000 Du        
  19334 ****        -7.2500 -26.7500 -13.7500 Du        
  19335 ****        -7.2500 -26.7500  -9.7500 Du        
  19336 ****        -7.2500 -26.7500  -9.5000 Du        
  19337 ****        -7.2500 -26.7500  -9.2500 Du        
  19338 ****        -7.2500 -26.7500  -9.0000 Du        
  19339 ****        -7.2500 -26.7500  -8.7500 Du        
  19340 ****        -7.2500 -26.7500  -8.5000 Du        
  19341 ****        -7.2500 -26.7500  -8.2500 Du        
  19342 ****        -7.2500 -26.7500  -8.0000 Du        
  19343 ****        -7.2500 -26.5000  -9.5000 Du        
  19344 ****        -7.2500 -26.5000  -9.2500 Du        
  19345 ****        -7.2500 -26.5000  -9.0000 Du        
  19346 ****        -7.2500 -26.5000  -8.7500 Du        
  19347 ****        -7.2500 -26.5000  -8.5000 Du        
  19348 ****        -7.2500 -26.5000  -8.2500 Du        
  19349 ****        -7.2500 -26.5000  -8.0000 Du        
  19350 ****        -7.2500 -26.2500  -9.2500 Du        
  19351 ****        -7.2500 -26.2500  -9.0000 Du        
  19352 ****        -7.2500 -26.2500  -8.7500 Du        
  19353 ****        -7.2500 -26.2500  -8.5000 Du        
  19354 ****        -7.2500 -26.2500  -8.2500 Du        
  19355 ****        -7.2500 -26.0000 -28.2500 Du        
  19356 ****        -7.2500 -26.0000 -28.0000 Du        
  19357 ****        -7.2500 -26.0000  -9.0000 Du        
  19358 ****        -7.2500 -26.0000  -8.7500 Du        
  19359 ****        -7.2500 -25.7500 -28.2500 Du        
  19360 ****        -7.2500 -25.7500 -28.0000 Du        
  19361 ****        -7.2500 -25.7500 -27.7500 Du        
  19362 ****        -7.2500 -25.7500 -27.5000 Du        
  19363 ****        -7.2500 -25.5000 -28.2500 Du        
  19364 ****        -7.2500 -25.5000 -28.0000 Du        
  19365 ****        -7.2500 -25.5000 -27.7500 Du        
  19366 ****        -7.2500 -25.5000 -27.5000 Du        
  19367 ****        -7.2500 -25.5000 -27.2500 Du        
  19368 ****        -7.2500 -25.2500 -28.2500 Du        
  19369 ****        -7.2500 -25.2500 -28.0000 Du        
  19370 ****        -7.2500 -25.2500 -27.7500 Du        
  19371 ****        -7.2500 -25.2500 -27.5000 Du        
  19372 ****        -7.2500 -25.2500 -27.2500 Du        
  19373 ****        -7.2500 -25.2500 -27.0000 Du        
  19374 ****        -7.2500 -25.0000 -28.2500 Du        
  19375 ****        -7.2500 -25.0000 -28.0000 Du        
  19376 ****        -7.2500 -25.0000 -27.7500 Du        
  19377 ****        -7.2500 -25.0000 -27.5000 Du        
  19378 ****        -7.2500 -25.0000 -27.2500 Du        
  19379 ****        -7.2500 -25.0000 -27.0000 Du        
  19380 ****        -7.2500 -24.7500 -28.2500 Du        
  19381 ****        -7.2500 -24.7500 -28.0000 Du        
  19382 ****        -7.2500 -24.7500 -27.7500 Du        
  19383 ****        -7.2500 -24.7500 -27.5000 Du        
  19384 ****        -7.2500 -24.7500 -27.2500 Du        
  19385 ****        -7.2500 -24.7500 -27.0000 Du        
  19386 ****        -7.2500 -24.7500 -26.7500 Du        
  19387 ****        -7.2500 -24.5000 -27.7500 Du        
  19388 ****        -7.2500 -24.5000 -27.5000 Du        
  19389 ****        -7.2500 -24.5000 -27.2500 Du        
  19390 ****        -7.2500 -24.5000 -27.0000 Du        
  19391 ****        -7.2500 -24.2500 -28.0000 Du        
  19392 ****        -7.2500 -24.2500 -27.7500 Du        
  19393 ****        -7.2500 -24.2500 -27.5000 Du        
  19394 ****        -7.2500 -24.2500 -27.2500 Du        
  19395 ****        -7.2500 -24.2500 -27.0000 Du        
  19396 ****        -7.2500 -24.0000 -28.0000 Du        
  19397 ****        -7.2500 -24.0000 -27.5000 Du        
  19398 ****        -7.2500 -24.0000 -27.2500 Du        
  19399 ****        -7.2500 -24.0000 -27.0000 Du        
  19400 ****        -7.2500 -23.7500 -27.2500 Du        
  19401 ****        -7.2500 -22.5000 -30.0000 Du        
  19402 ****        -7.2500 -22.5000 -29.7500 Du        
  19403 ****        -7.2500 -22.5000 -29.5000 Du        
  19404 ****        -7.2500 -22.2500 -30.2500 Du        
  19405 ****        -7.2500 -22.2500 -30.0000 Du        
  19406 ****        -7.2500 -22.2500 -29.7500 Du        
  19407 ****        -7.2500 -22.2500 -29.5000 Du        
  19408 ****        -7.2500 -22.2500 -29.2500 Du        
  19409 ****        -7.2500 -22.0000 -30.5000 Du        
  19410 ****        -7.2500 -22.0000 -30.2500 Du        
  19411 ****        -7.2500 -22.0000 -30.0000 Du        
  19412 ****        -7.2500 -22.0000 -29.7500 Du        
  19413 ****        -7.2500 -22.0000 -29.5000 Du        
  19414 ****        -7.2500 -22.0000 -29.2500 Du        
  19415 ****        -7.2500 -22.0000 -29.0000 Du        
  19416 ****        -7.2500 -21.7500 -30.5000 Du        
  19417 ****        -7.2500 -21.7500 -30.2500 Du        
  19418 ****        -7.2500 -21.7500 -30.0000 Du        
  19419 ****        -7.2500 -21.7500 -29.7500 Du        
  19420 ****        -7.2500 -21.7500 -29.5000 Du        
  19421 ****        -7.2500 -21.7500 -29.2500 Du        
  19422 ****        -7.2500 -21.7500 -29.0000 Du        
  19423 ****        -7.2500 -21.7500 -28.7500 Du        
  19424 ****        -7.2500 -21.5000 -30.5000 Du        
  19425 ****        -7.2500 -21.5000 -30.2500 Du        
  19426 ****        -7.2500 -21.5000 -30.0000 Du        
  19427 ****        -7.2500 -21.5000 -29.7500 Du        
  19428 ****        -7.2500 -21.5000 -29.5000 Du        
  19429 ****        -7.2500 -21.5000 -29.2500 Du        
  19430 ****        -7.2500 -21.5000 -29.0000 Du        
  19431 ****        -7.2500 -21.5000 -28.7500 Du        
  19432 ****        -7.2500 -21.2500 -30.2500 Du        
  19433 ****        -7.2500 -21.2500 -30.0000 Du        
  19434 ****        -7.2500 -21.2500 -29.7500 Du        
  19435 ****        -7.2500 -21.2500 -29.5000 Du        
  19436 ****        -7.2500 -21.2500 -29.2500 Du        
  19437 ****        -7.2500 -21.2500 -29.0000 Du        
  19438 ****        -7.2500 -21.2500 -28.7500 Du        
  19439 ****        -7.2500 -21.0000 -30.2500 Du        
  19440 ****        -7.2500 -21.0000 -30.0000 Du        
  19441 ****        -7.2500 -21.0000 -29.7500 Du        
  19442 ****        -7.2500 -21.0000 -29.5000 Du        
  19443 ****        -7.2500 -21.0000 -29.2500 Du        
  19444 ****        -7.2500 -21.0000 -29.0000 Du        
  19445 ****        -7.2500 -20.7500 -30.2500 Du        
  19446 ****        -7.2500 -20.7500 -30.0000 Du        
  19447 ****        -7.2500 -20.7500 -29.7500 Du        
  19448 ****        -7.2500 -20.7500 -29.5000 Du        
  19449 ****        -7.2500 -20.7500 -29.2500 Du        
  19450 ****        -7.2500 -20.7500 -29.0000 Du        
  19451 ****        -7.2500 -20.5000 -30.0000 Du        
  19452 ****        -7.2500 -20.5000 -29.7500 Du        
  19453 ****        -7.2500 -20.5000 -29.5000 Du        
  19454 ****        -7.2500 -20.5000 -29.2500 Du        
  19455 ****        -7.2500 -20.5000 -29.0000 Du        
  19456 ****        -7.2500 -20.2500 -29.7500 Du        
  19457 ****        -7.2500 -20.2500 -29.5000 Du        
  19458 ****        -7.2500 -20.2500 -29.2500 Du        
  19459 ****        -7.2500 -20.2500 -29.0000 Du        
  19460 ****        -7.2500 -20.0000 -29.5000 Du        
  19461 ****        -7.2500 -20.0000 -29.2500 Du        
  19462 ****        -7.2500 -20.0000 -29.0000 Du        
  19463 ****        -7.2500 -20.0000 -28.7500 Du        
  19464 ****        -7.2500 -20.0000 -16.2500 Du        
  19465 ****        -7.2500 -20.0000 -16.0000 Du        
  19466 ****        -7.2500 -19.7500 -29.2500 Du        
  19467 ****        -7.2500 -19.7500 -29.0000 Du        
  19468 ****        -7.2500 -19.7500 -28.7500 Du        
  19469 ****        -7.2500 -19.7500 -16.2500 Du        
  19470 ****        -7.2500 -19.7500 -16.0000 Du        
  19471 ****        -7.2500 -19.7500 -15.7500 Du        
  19472 ****        -7.2500 -19.5000 -29.0000 Du        
  19473 ****        -7.2500 -19.5000 -28.7500 Du        
  19474 ****        -7.2500 -19.5000 -16.5000 Du        
  19475 ****        -7.2500 -19.5000 -16.2500 Du        
  19476 ****        -7.2500 -19.5000 -16.0000 Du        
  19477 ****        -7.2500 -19.5000 -15.7500 Du        
  19478 ****        -7.2500 -19.2500 -29.0000 Du        
  19479 ****        -7.2500 -19.2500 -28.7500 Du        
  19480 ****        -7.2500 -19.2500 -16.5000 Du        
  19481 ****        -7.2500 -19.2500 -16.2500 Du        
  19482 ****        -7.2500 -19.2500 -16.0000 Du        
  19483 ****        -7.2500 -19.2500 -15.7500 Du        
  19484 ****        -7.2500 -19.0000 -29.0000 Du        
  19485 ****        -7.2500 -19.0000 -28.7500 Du        
  19486 ****        -7.2500 -19.0000 -16.5000 Du        
  19487 ****        -7.2500 -19.0000 -16.2500 Du        
  19488 ****        -7.2500 -19.0000 -16.0000 Du        
  19489 ****        -7.2500 -19.0000 -15.7500 Du        
  19490 ****        -7.2500 -19.0000 -15.5000 Du        
  19491 ****        -7.2500 -18.7500 -28.7500 Du        
  19492 ****        -7.2500 -18.7500 -16.7500 Du        
  19493 ****        -7.2500 -18.7500 -16.5000 Du        
  19494 ****        -7.2500 -18.7500 -16.2500 Du        
  19495 ****        -7.2500 -18.7500 -16.0000 Du        
  19496 ****        -7.2500 -18.7500 -15.7500 Du        
  19497 ****        -7.2500 -18.7500 -15.5000 Du        
  19498 ****        -7.2500 -18.5000 -16.7500 Du        
  19499 ****        -7.2500 -18.5000 -16.5000 Du        
  19500 ****        -7.2500 -18.5000 -16.2500 Du        
  19501 ****        -7.2500 -18.5000 -16.0000 Du        
  19502 ****        -7.2500 -18.5000 -15.7500 Du        
  19503 ****        -7.2500 -18.2500 -29.0000 Du        
  19504 ****        -7.2500 -18.2500 -28.7500 Du        
  19505 ****        -7.2500 -18.2500 -17.0000 Du        
  19506 ****        -7.2500 -18.2500 -16.7500 Du        
  19507 ****        -7.2500 -18.2500 -16.5000 Du        
  19508 ****        -7.2500 -18.2500 -16.2500 Du        
  19509 ****        -7.2500 -18.2500 -16.0000 Du        
  19510 ****        -7.2500 -18.0000 -29.0000 Du        
  19511 ****        -7.2500 -18.0000 -28.7500 Du        
  19512 ****        -7.2500 -18.0000 -17.2500 Du        
  19513 ****        -7.2500 -18.0000 -17.0000 Du        
  19514 ****        -7.2500 -18.0000 -16.7500 Du        
  19515 ****        -7.2500 -18.0000 -16.5000 Du        
  19516 ****        -7.2500 -18.0000 -16.2500 Du        
  19517 ****        -7.2500 -17.7500 -29.0000 Du        
  19518 ****        -7.2500 -17.7500 -28.7500 Du        
  19519 ****        -7.2500 -17.7500 -17.5000 Du        
  19520 ****        -7.2500 -17.7500 -17.2500 Du        
  19521 ****        -7.2500 -17.7500 -17.0000 Du        
  19522 ****        -7.2500 -17.7500 -16.7500 Du        
  19523 ****        -7.2500 -17.7500 -16.5000 Du        
  19524 ****        -7.2500 -17.5000 -29.0000 Du        
  19525 ****        -7.2500 -17.5000 -28.7500 Du        
  19526 ****        -7.2500 -17.5000 -17.7500 Du        
  19527 ****        -7.2500 -17.5000 -17.5000 Du        
  19528 ****        -7.2500 -17.5000 -17.2500 Du        
  19529 ****        -7.2500 -17.5000 -17.0000 Du        
  19530 ****        -7.2500 -17.5000 -16.7500 Du        
  19531 ****        -7.2500 -17.2500 -29.0000 Du        
  19532 ****        -7.2500 -17.2500 -28.7500 Du        
  19533 ****        -7.2500 -17.2500 -18.0000 Du        
  19534 ****        -7.2500 -17.2500 -17.7500 Du        
  19535 ****        -7.2500 -17.2500 -17.5000 Du        
  19536 ****        -7.2500 -17.2500 -17.2500 Du        
  19537 ****        -7.2500 -17.2500 -17.0000 Du        
  19538 ****        -7.2500 -17.2500 -16.7500 Du        
  19539 ****        -7.2500 -17.0000 -28.7500 Du        
  19540 ****        -7.2500 -17.0000 -18.5000 Du        
  19541 ****        -7.2500 -17.0000 -18.2500 Du        
  19542 ****        -7.2500 -17.0000 -18.0000 Du        
  19543 ****        -7.2500 -17.0000 -17.7500 Du        
  19544 ****        -7.2500 -17.0000 -17.5000 Du        
  19545 ****        -7.2500 -17.0000 -17.2500 Du        
  19546 ****        -7.2500 -17.0000 -17.0000 Du        
  19547 ****        -7.2500 -17.0000 -16.7500 Du        
  19548 ****        -7.2500 -16.7500 -18.5000 Du        
  19549 ****        -7.2500 -16.7500 -18.2500 Du        
  19550 ****        -7.2500 -16.7500 -18.0000 Du        
  19551 ****        -7.2500 -16.7500 -17.7500 Du        
  19552 ****        -7.2500 -16.7500 -17.5000 Du        
  19553 ****        -7.2500 -16.7500 -17.2500 Du        
  19554 ****        -7.2500 -16.7500 -17.0000 Du        
  19555 ****        -7.2500 -16.5000 -18.5000 Du        
  19556 ****        -7.2500 -16.5000 -18.2500 Du        
  19557 ****        -7.2500 -16.5000 -18.0000 Du        
  19558 ****        -7.2500 -16.5000 -17.7500 Du        
  19559 ****        -7.2500 -16.5000 -17.5000 Du        
  19560 ****        -7.2500 -16.5000 -17.2500 Du        
  19561 ****        -7.2500 -16.5000 -17.0000 Du        
  19562 ****        -7.2500 -16.2500 -18.5000 Du        
  19563 ****        -7.2500 -16.2500 -18.2500 Du        
  19564 ****        -7.2500 -16.2500 -18.0000 Du        
  19565 ****        -7.2500 -16.2500 -17.7500 Du        
  19566 ****        -7.2500 -16.2500 -17.5000 Du        
  19567 ****        -7.2500 -16.2500 -17.2500 Du        
  19568 ****        -7.2500 -16.2500 -17.0000 Du        
  19569 ****        -7.2500   5.2500 -16.5000 Du        
  19570 ****        -7.2500   5.2500 -16.2500 Du        
  19571 ****        -7.2500   5.2500 -16.0000 Du        
  19572 ****        -7.2500   5.2500 -15.7500 Du        
  19573 ****        -7.2500   5.5000 -16.7500 Du        
  19574 ****        -7.2500   5.5000 -16.5000 Du        
  19575 ****        -7.2500   5.5000 -16.2500 Du        
  19576 ****        -7.2500   5.5000 -16.0000 Du        
  19577 ****        -7.2500   5.7500 -17.0000 Du        
  19578 ****        -7.2500   5.7500 -16.7500 Du        
  19579 ****        -7.2500   5.7500 -16.5000 Du        
  19580 ****        -7.2500   5.7500 -16.2500 Du        
  19581 ****        -7.2500   6.0000 -17.0000 Du        
  19582 ****        -7.2500   6.0000 -16.7500 Du        
  19583 ****        -7.2500   6.0000 -16.5000 Du        
  19584 ****        -7.0000 -29.0000 -16.0000 Du        
  19585 ****        -7.0000 -29.0000 -15.7500 Du        
  19586 ****        -7.0000 -29.0000 -15.5000 Du        
  19587 ****        -7.0000 -29.0000 -15.2500 Du        
  19588 ****        -7.0000 -29.0000 -15.0000 Du        
  19589 ****        -7.0000 -29.0000 -14.7500 Du        
  19590 ****        -7.0000 -29.0000 -14.5000 Du        
  19591 ****        -7.0000 -29.0000 -14.2500 Du        
  19592 ****        -7.0000 -29.0000 -14.0000 Du        
  19593 ****        -7.0000 -29.0000  -5.5000 Du        
  19594 ****        -7.0000 -29.0000  -5.2500 Du        
  19595 ****        -7.0000 -29.0000  -5.0000 Du        
  19596 ****        -7.0000 -29.0000  -4.7500 Du        
  19597 ****        -7.0000 -29.0000  -4.5000 Du        
  19598 ****        -7.0000 -29.0000  -4.2500 Du        
  19599 ****        -7.0000 -29.0000  -4.0000 Du        
  19600 ****        -7.0000 -29.0000  -3.7500 Du        
  19601 ****        -7.0000 -29.0000  -3.5000 Du        
  19602 ****        -7.0000 -29.0000  -3.2500 Du        
  19603 ****        -7.0000 -29.0000  -3.0000 Du        
  19604 ****        -7.0000 -29.0000  -2.7500 Du        
  19605 ****        -7.0000 -28.7500 -15.7500 Du        
  19606 ****        -7.0000 -28.7500 -15.5000 Du        
  19607 ****        -7.0000 -28.7500 -15.2500 Du        
  19608 ****        -7.0000 -28.7500 -15.0000 Du        
  19609 ****        -7.0000 -28.7500 -14.7500 Du        
  19610 ****        -7.0000 -28.7500 -14.5000 Du        
  19611 ****        -7.0000 -28.7500 -14.2500 Du        
  19612 ****        -7.0000 -28.7500 -14.0000 Du        
  19613 ****        -7.0000 -28.7500  -7.2500 Du        
  19614 ****        -7.0000 -28.7500  -7.0000 Du        
  19615 ****        -7.0000 -28.7500  -6.7500 Du        
  19616 ****        -7.0000 -28.7500  -6.2500 Du        
  19617 ****        -7.0000 -28.7500  -6.0000 Du        
  19618 ****        -7.0000 -28.7500  -5.2500 Du        
  19619 ****        -7.0000 -28.7500  -5.0000 Du        
  19620 ****        -7.0000 -28.7500  -4.7500 Du        
  19621 ****        -7.0000 -28.7500  -4.5000 Du        
  19622 ****        -7.0000 -28.7500  -4.2500 Du        
  19623 ****        -7.0000 -28.7500  -4.0000 Du        
  19624 ****        -7.0000 -28.7500  -3.7500 Du        
  19625 ****        -7.0000 -28.7500  -3.5000 Du        
  19626 ****        -7.0000 -28.7500  -3.2500 Du        
  19627 ****        -7.0000 -28.7500  -3.0000 Du        
  19628 ****        -7.0000 -28.7500  -2.7500 Du        
  19629 ****        -7.0000 -28.5000 -15.7500 Du        
  19630 ****        -7.0000 -28.5000 -15.5000 Du        
  19631 ****        -7.0000 -28.5000 -15.2500 Du        
  19632 ****        -7.0000 -28.5000 -15.0000 Du        
  19633 ****        -7.0000 -28.5000 -14.7500 Du        
  19634 ****        -7.0000 -28.5000 -14.5000 Du        
  19635 ****        -7.0000 -28.5000 -14.2500 Du        
  19636 ****        -7.0000 -28.5000 -14.0000 Du        
  19637 ****        -7.0000 -28.5000  -7.7500 Du        
  19638 ****        -7.0000 -28.5000  -7.5000 Du        
  19639 ****        -7.0000 -28.5000  -7.2500 Du        
  19640 ****        -7.0000 -28.5000  -7.0000 Du        
  19641 ****        -7.0000 -28.5000  -6.7500 Du        
  19642 ****        -7.0000 -28.5000  -6.5000 Du        
  19643 ****        -7.0000 -28.5000  -4.0000 Du        
  19644 ****        -7.0000 -28.5000  -3.7500 Du        
  19645 ****        -7.0000 -28.5000  -3.5000 Du        
  19646 ****        -7.0000 -28.5000  -3.2500 Du        
  19647 ****        -7.0000 -28.5000  -3.0000 Du        
  19648 ****        -7.0000 -28.5000  -2.7500 Du        
  19649 ****        -7.0000 -28.5000  -2.5000 Du        
  19650 ****        -7.0000 -28.2500 -15.7500 Du        
  19651 ****        -7.0000 -28.2500 -15.5000 Du        
  19652 ****        -7.0000 -28.2500 -15.2500 Du        
  19653 ****        -7.0000 -28.2500 -15.0000 Du        
  19654 ****        -7.0000 -28.2500 -14.7500 Du        
  19655 ****        -7.0000 -28.2500 -14.5000 Du        
  19656 ****        -7.0000 -28.2500 -14.2500 Du        
  19657 ****        -7.0000 -28.2500 -14.0000 Du        
  19658 ****        -7.0000 -28.2500  -8.2500 Du        
  19659 ****        -7.0000 -28.2500  -8.0000 Du        
  19660 ****        -7.0000 -28.2500  -7.7500 Du        
  19661 ****        -7.0000 -28.2500  -7.5000 Du        
  19662 ****        -7.0000 -28.2500  -7.2500 Du        
  19663 ****        -7.0000 -28.2500  -7.0000 Du        
  19664 ****        -7.0000 -28.2500  -6.7500 Du        
  19665 ****        -7.0000 -28.2500  -6.5000 Du        
  19666 ****        -7.0000 -28.2500  -3.5000 Du        
  19667 ****        -7.0000 -28.2500  -3.2500 Du        
  19668 ****        -7.0000 -28.2500  -3.0000 Du        
  19669 ****        -7.0000 -28.2500  -2.7500 Du        
  19670 ****        -7.0000 -28.2500  -2.5000 Du        
  19671 ****        -7.0000 -28.2500  -2.2500 Du        
  19672 ****        -7.0000 -28.0000 -15.5000 Du        
  19673 ****        -7.0000 -28.0000 -15.2500 Du        
  19674 ****        -7.0000 -28.0000 -15.0000 Du        
  19675 ****        -7.0000 -28.0000 -14.7500 Du        
  19676 ****        -7.0000 -28.0000 -14.5000 Du        
  19677 ****        -7.0000 -28.0000 -14.2500 Du        
  19678 ****        -7.0000 -28.0000 -14.0000 Du        
  19679 ****        -7.0000 -28.0000 -13.7500 Du        
  19680 ****        -7.0000 -28.0000  -9.0000 Du        
  19681 ****        -7.0000 -28.0000  -8.7500 Du        
  19682 ****        -7.0000 -28.0000  -8.5000 Du        
  19683 ****        -7.0000 -28.0000  -8.2500 Du        
  19684 ****        -7.0000 -28.0000  -8.0000 Du        
  19685 ****        -7.0000 -28.0000  -7.7500 Du        
  19686 ****        -7.0000 -28.0000  -7.5000 Du        
  19687 ****        -7.0000 -28.0000  -7.2500 Du        
  19688 ****        -7.0000 -28.0000  -7.0000 Du        
  19689 ****        -7.0000 -28.0000  -6.7500 Du        
  19690 ****        -7.0000 -28.0000  -3.2500 Du        
  19691 ****        -7.0000 -28.0000  -3.0000 Du        
  19692 ****        -7.0000 -28.0000  -2.7500 Du        
  19693 ****        -7.0000 -28.0000  -2.5000 Du        
  19694 ****        -7.0000 -28.0000  -2.2500 Du        
  19695 ****        -7.0000 -28.0000  -2.0000 Du        
  19696 ****        -7.0000 -27.7500 -15.2500 Du        
  19697 ****        -7.0000 -27.7500 -15.0000 Du        
  19698 ****        -7.0000 -27.7500 -14.7500 Du        
  19699 ****        -7.0000 -27.7500 -14.5000 Du        
  19700 ****        -7.0000 -27.7500 -14.2500 Du        
  19701 ****        -7.0000 -27.7500 -14.0000 Du        
  19702 ****        -7.0000 -27.7500 -13.7500 Du        
  19703 ****        -7.0000 -27.7500  -9.5000 Du        
  19704 ****        -7.0000 -27.7500  -9.2500 Du        
  19705 ****        -7.0000 -27.7500  -9.0000 Du        
  19706 ****        -7.0000 -27.7500  -8.7500 Du        
  19707 ****        -7.0000 -27.7500  -8.5000 Du        
  19708 ****        -7.0000 -27.7500  -8.2500 Du        
  19709 ****        -7.0000 -27.7500  -8.0000 Du        
  19710 ****        -7.0000 -27.7500  -7.7500 Du        
  19711 ****        -7.0000 -27.7500  -7.5000 Du        
  19712 ****        -7.0000 -27.7500  -7.2500 Du        
  19713 ****        -7.0000 -27.7500  -7.0000 Du        
  19714 ****        -7.0000 -27.7500  -6.7500 Du        
  19715 ****        -7.0000 -27.7500  -2.7500 Du        
  19716 ****        -7.0000 -27.7500  -2.5000 Du        
  19717 ****        -7.0000 -27.7500  -2.2500 Du        
  19718 ****        -7.0000 -27.7500  -2.0000 Du        
  19719 ****        -7.0000 -27.5000 -15.2500 Du        
  19720 ****        -7.0000 -27.5000 -15.0000 Du        
  19721 ****        -7.0000 -27.5000 -14.7500 Du        
  19722 ****        -7.0000 -27.5000 -14.5000 Du        
  19723 ****        -7.0000 -27.5000 -14.2500 Du        
  19724 ****        -7.0000 -27.5000 -14.0000 Du        
  19725 ****        -7.0000 -27.5000 -13.7500 Du        
  19726 ****        -7.0000 -27.5000 -10.0000 Du        
  19727 ****        -7.0000 -27.5000  -9.7500 Du        
  19728 ****        -7.0000 -27.5000  -9.5000 Du        
  19729 ****        -7.0000 -27.5000  -9.2500 Du        
  19730 ****        -7.0000 -27.5000  -9.0000 Du        
  19731 ****        -7.0000 -27.5000  -8.7500 Du        
  19732 ****        -7.0000 -27.5000  -8.5000 Du        
  19733 ****        -7.0000 -27.5000  -8.2500 Du        
  19734 ****        -7.0000 -27.5000  -8.0000 Du        
  19735 ****        -7.0000 -27.5000  -7.7500 Du        
  19736 ****        -7.0000 -27.5000  -7.5000 Du        
  19737 ****        -7.0000 -27.5000  -7.2500 Du        
  19738 ****        -7.0000 -27.5000  -7.0000 Du        
  19739 ****        -7.0000 -27.5000  -2.2500 Du        
  19740 ****        -7.0000 -27.5000  -2.0000 Du        
  19741 ****        -7.0000 -27.2500 -15.0000 Du        
  19742 ****        -7.0000 -27.2500 -14.7500 Du        
  19743 ****        -7.0000 -27.2500 -14.5000 Du        
  19744 ****        -7.0000 -27.2500 -14.2500 Du        
  19745 ****        -7.0000 -27.2500 -14.0000 Du        
  19746 ****        -7.0000 -27.2500 -13.7500 Du        
  19747 ****        -7.0000 -27.2500 -13.5000 Du        
  19748 ****        -7.0000 -27.2500 -13.2500 Du        
  19749 ****        -7.0000 -27.2500 -13.0000 Du        
  19750 ****        -7.0000 -27.2500 -10.2500 Du        
  19751 ****        -7.0000 -27.2500 -10.0000 Du        
  19752 ****        -7.0000 -27.2500  -9.7500 Du        
  19753 ****        -7.0000 -27.2500  -9.5000 Du        
  19754 ****        -7.0000 -27.2500  -9.2500 Du        
  19755 ****        -7.0000 -27.2500  -9.0000 Du        
  19756 ****        -7.0000 -27.2500  -8.7500 Du        
  19757 ****        -7.0000 -27.2500  -8.5000 Du        
  19758 ****        -7.0000 -27.2500  -8.2500 Du        
  19759 ****        -7.0000 -27.2500  -8.0000 Du        
  19760 ****        -7.0000 -27.2500  -7.7500 Du        
  19761 ****        -7.0000 -27.2500  -7.5000 Du        
  19762 ****        -7.0000 -27.2500  -7.2500 Du        
  19763 ****        -7.0000 -27.0000 -14.7500 Du        
  19764 ****        -7.0000 -27.0000 -14.5000 Du        
  19765 ****        -7.0000 -27.0000 -14.2500 Du        
  19766 ****        -7.0000 -27.0000 -14.0000 Du        
  19767 ****        -7.0000 -27.0000 -13.7500 Du        
  19768 ****        -7.0000 -27.0000 -13.2500 Du        
  19769 ****        -7.0000 -27.0000 -10.2500 Du        
  19770 ****        -7.0000 -27.0000 -10.0000 Du        
  19771 ****        -7.0000 -27.0000  -9.7500 Du        
  19772 ****        -7.0000 -27.0000  -9.5000 Du        
  19773 ****        -7.0000 -27.0000  -9.2500 Du        
  19774 ****        -7.0000 -27.0000  -9.0000 Du        
  19775 ****        -7.0000 -27.0000  -8.7500 Du        
  19776 ****        -7.0000 -27.0000  -8.5000 Du        
  19777 ****        -7.0000 -27.0000  -8.2500 Du        
  19778 ****        -7.0000 -27.0000  -8.0000 Du        
  19779 ****        -7.0000 -27.0000  -7.7500 Du        
  19780 ****        -7.0000 -26.7500 -14.5000 Du        
  19781 ****        -7.0000 -26.7500 -14.2500 Du        
  19782 ****        -7.0000 -26.7500 -14.0000 Du        
  19783 ****        -7.0000 -26.7500 -13.7500 Du        
  19784 ****        -7.0000 -26.7500 -10.0000 Du        
  19785 ****        -7.0000 -26.7500  -9.7500 Du        
  19786 ****        -7.0000 -26.7500  -9.5000 Du        
  19787 ****        -7.0000 -26.7500  -9.2500 Du        
  19788 ****        -7.0000 -26.7500  -9.0000 Du        
  19789 ****        -7.0000 -26.7500  -8.7500 Du        
  19790 ****        -7.0000 -26.7500  -8.5000 Du        
  19791 ****        -7.0000 -26.7500  -8.2500 Du        
  19792 ****        -7.0000 -26.7500  -8.0000 Du        
  19793 ****        -7.0000 -26.7500  -7.7500 Du        
  19794 ****        -7.0000 -26.5000  -9.7500 Du        
  19795 ****        -7.0000 -26.5000  -9.5000 Du        
  19796 ****        -7.0000 -26.5000  -9.2500 Du        
  19797 ****        -7.0000 -26.5000  -9.0000 Du        
  19798 ****        -7.0000 -26.5000  -8.7500 Du        
  19799 ****        -7.0000 -26.5000  -8.5000 Du        
  19800 ****        -7.0000 -26.5000  -8.2500 Du        
  19801 ****        -7.0000 -26.5000  -8.0000 Du        
  19802 ****        -7.0000 -26.2500  -9.5000 Du        
  19803 ****        -7.0000 -26.2500  -9.2500 Du        
  19804 ****        -7.0000 -26.2500  -9.0000 Du        
  19805 ****        -7.0000 -26.2500  -8.7500 Du        
  19806 ****        -7.0000 -26.2500  -8.5000 Du        
  19807 ****        -7.0000 -26.2500  -8.2500 Du        
  19808 ****        -7.0000 -26.0000 -28.2500 Du        
  19809 ****        -7.0000 -26.0000 -28.0000 Du        
  19810 ****        -7.0000 -26.0000  -9.2500 Du        
  19811 ****        -7.0000 -26.0000  -9.0000 Du        
  19812 ****        -7.0000 -26.0000  -8.7500 Du        
  19813 ****        -7.0000 -26.0000  -8.5000 Du        
  19814 ****        -7.0000 -25.7500 -28.2500 Du        
  19815 ****        -7.0000 -25.7500 -28.0000 Du        
  19816 ****        -7.0000 -25.7500 -27.7500 Du        
  19817 ****        -7.0000 -25.7500 -27.5000 Du        
  19818 ****        -7.0000 -25.5000 -28.2500 Du        
  19819 ****        -7.0000 -25.5000 -28.0000 Du        
  19820 ****        -7.0000 -25.5000 -27.7500 Du        
  19821 ****        -7.0000 -25.5000 -27.5000 Du        
  19822 ****        -7.0000 -25.2500 -28.7500 Du        
  19823 ****        -7.0000 -25.2500 -28.2500 Du        
  19824 ****        -7.0000 -25.2500 -28.0000 Du        
  19825 ****        -7.0000 -25.2500 -27.7500 Du        
  19826 ****        -7.0000 -25.2500 -27.5000 Du        
  19827 ****        -7.0000 -25.2500 -27.2500 Du        
  19828 ****        -7.0000 -25.2500 -27.0000 Du        
  19829 ****        -7.0000 -25.0000 -28.7500 Du        
  19830 ****        -7.0000 -25.0000 -28.2500 Du        
  19831 ****        -7.0000 -25.0000 -28.0000 Du        
  19832 ****        -7.0000 -25.0000 -27.7500 Du        
  19833 ****        -7.0000 -25.0000 -27.5000 Du        
  19834 ****        -7.0000 -25.0000 -27.2500 Du        
  19835 ****        -7.0000 -25.0000 -27.0000 Du        
  19836 ****        -7.0000 -24.7500 -28.7500 Du        
  19837 ****        -7.0000 -24.7500 -28.2500 Du        
  19838 ****        -7.0000 -24.7500 -28.0000 Du        
  19839 ****        -7.0000 -24.7500 -27.7500 Du        
  19840 ****        -7.0000 -24.7500 -27.5000 Du        
  19841 ****        -7.0000 -24.7500 -27.2500 Du        
  19842 ****        -7.0000 -24.7500 -27.0000 Du        
  19843 ****        -7.0000 -24.5000 -28.2500 Du        
  19844 ****        -7.0000 -24.5000 -28.0000 Du        
  19845 ****        -7.0000 -24.5000 -27.7500 Du        
  19846 ****        -7.0000 -24.5000 -27.5000 Du        
  19847 ****        -7.0000 -24.5000 -27.2500 Du        
  19848 ****        -7.0000 -24.5000 -27.0000 Du        
  19849 ****        -7.0000 -24.2500 -28.2500 Du        
  19850 ****        -7.0000 -24.2500 -28.0000 Du        
  19851 ****        -7.0000 -24.2500 -27.7500 Du        
  19852 ****        -7.0000 -24.2500 -27.5000 Du        
  19853 ****        -7.0000 -24.2500 -27.2500 Du        
  19854 ****        -7.0000 -24.2500 -27.0000 Du        
  19855 ****        -7.0000 -24.0000 -28.2500 Du        
  19856 ****        -7.0000 -24.0000 -28.0000 Du        
  19857 ****        -7.0000 -24.0000 -27.7500 Du        
  19858 ****        -7.0000 -24.0000 -27.5000 Du        
  19859 ****        -7.0000 -24.0000 -27.2500 Du        
  19860 ****        -7.0000 -24.0000 -27.0000 Du        
  19861 ****        -7.0000 -23.7500 -28.0000 Du        
  19862 ****        -7.0000 -23.7500 -27.7500 Du        
  19863 ****        -7.0000 -23.7500 -27.2500 Du        
  19864 ****        -7.0000 -23.5000 -27.7500 Du        
  19865 ****        -7.0000 -23.2500 -27.7500 Du        
  19866 ****        -7.0000 -23.0000 -28.0000 Du        
  19867 ****        -7.0000 -22.5000 -29.7500 Du        
  19868 ****        -7.0000 -22.5000 -29.5000 Du        
  19869 ****        -7.0000 -22.5000 -29.2500 Du        
  19870 ****        -7.0000 -22.2500 -30.0000 Du        
  19871 ****        -7.0000 -22.2500 -29.7500 Du        
  19872 ****        -7.0000 -22.2500 -29.5000 Du        
  19873 ****        -7.0000 -22.2500 -29.2500 Du        
  19874 ****        -7.0000 -22.2500 -29.0000 Du        
  19875 ****        -7.0000 -22.0000 -30.2500 Du        
  19876 ****        -7.0000 -22.0000 -30.0000 Du        
  19877 ****        -7.0000 -22.0000 -29.7500 Du        
  19878 ****        -7.0000 -22.0000 -29.5000 Du        
  19879 ****        -7.0000 -22.0000 -29.2500 Du        
  19880 ****        -7.0000 -22.0000 -29.0000 Du        
  19881 ****        -7.0000 -22.0000 -28.7500 Du        
  19882 ****        -7.0000 -21.7500 -30.5000 Du        
  19883 ****        -7.0000 -21.7500 -30.2500 Du        
  19884 ****        -7.0000 -21.7500 -30.0000 Du        
  19885 ****        -7.0000 -21.7500 -29.7500 Du        
  19886 ****        -7.0000 -21.7500 -29.5000 Du        
  19887 ****        -7.0000 -21.7500 -29.2500 Du        
  19888 ****        -7.0000 -21.7500 -29.0000 Du        
  19889 ****        -7.0000 -21.7500 -28.7500 Du        
  19890 ****        -7.0000 -21.5000 -30.2500 Du        
  19891 ****        -7.0000 -21.5000 -30.0000 Du        
  19892 ****        -7.0000 -21.5000 -29.7500 Du        
  19893 ****        -7.0000 -21.5000 -29.5000 Du        
  19894 ****        -7.0000 -21.5000 -29.2500 Du        
  19895 ****        -7.0000 -21.5000 -29.0000 Du        
  19896 ****        -7.0000 -21.5000 -28.7500 Du        
  19897 ****        -7.0000 -21.2500 -30.2500 Du        
  19898 ****        -7.0000 -21.2500 -30.0000 Du        
  19899 ****        -7.0000 -21.2500 -29.7500 Du        
  19900 ****        -7.0000 -21.2500 -29.5000 Du        
  19901 ****        -7.0000 -21.2500 -29.2500 Du        
  19902 ****        -7.0000 -21.2500 -29.0000 Du        
  19903 ****        -7.0000 -21.2500 -28.7500 Du        
  19904 ****        -7.0000 -21.0000 -30.2500 Du        
  19905 ****        -7.0000 -21.0000 -30.0000 Du        
  19906 ****        -7.0000 -21.0000 -29.7500 Du        
  19907 ****        -7.0000 -21.0000 -29.5000 Du        
  19908 ****        -7.0000 -21.0000 -29.2500 Du        
  19909 ****        -7.0000 -21.0000 -29.0000 Du        
  19910 ****        -7.0000 -21.0000 -28.7500 Du        
  19911 ****        -7.0000 -20.7500 -30.0000 Du        
  19912 ****        -7.0000 -20.7500 -29.7500 Du        
  19913 ****        -7.0000 -20.7500 -29.5000 Du        
  19914 ****        -7.0000 -20.7500 -29.2500 Du        
  19915 ****        -7.0000 -20.7500 -29.0000 Du        
  19916 ****        -7.0000 -20.7500 -28.7500 Du        
  19917 ****        -7.0000 -20.5000 -30.0000 Du        
  19918 ****        -7.0000 -20.5000 -29.7500 Du        
  19919 ****        -7.0000 -20.5000 -29.5000 Du        
  19920 ****        -7.0000 -20.5000 -29.2500 Du        
  19921 ****        -7.0000 -20.5000 -29.0000 Du        
  19922 ****        -7.0000 -20.5000 -28.7500 Du        
  19923 ****        -7.0000 -20.2500 -30.0000 Du        
  19924 ****        -7.0000 -20.2500 -29.7500 Du        
  19925 ****        -7.0000 -20.2500 -29.5000 Du        
  19926 ****        -7.0000 -20.2500 -29.2500 Du        
  19927 ****        -7.0000 -20.2500 -29.0000 Du        
  19928 ****        -7.0000 -20.2500 -28.7500 Du        
  19929 ****        -7.0000 -20.0000 -29.7500 Du        
  19930 ****        -7.0000 -20.0000 -29.5000 Du        
  19931 ****        -7.0000 -20.0000 -29.2500 Du        
  19932 ****        -7.0000 -20.0000 -29.0000 Du        
  19933 ****        -7.0000 -20.0000 -28.7500 Du        
  19934 ****        -7.0000 -19.7500 -29.5000 Du        
  19935 ****        -7.0000 -19.7500 -29.2500 Du        
  19936 ****        -7.0000 -19.7500 -29.0000 Du        
  19937 ****        -7.0000 -19.7500 -28.7500 Du        
  19938 ****        -7.0000 -19.5000 -29.2500 Du        
  19939 ****        -7.0000 -19.5000 -29.0000 Du        
  19940 ****        -7.0000 -19.5000 -28.7500 Du        
  19941 ****        -7.0000 -19.5000 -28.5000 Du        
  19942 ****        -7.0000 -19.5000 -16.0000 Du        
  19943 ****        -7.0000 -19.2500 -29.2500 Du        
  19944 ****        -7.0000 -19.2500 -29.0000 Du        
  19945 ****        -7.0000 -19.2500 -28.7500 Du        
  19946 ****        -7.0000 -19.2500 -28.5000 Du        
  19947 ****        -7.0000 -19.2500 -28.2500 Du        
  19948 ****        -7.0000 -19.2500 -16.2500 Du        
  19949 ****        -7.0000 -19.2500 -16.0000 Du        
  19950 ****        -7.0000 -19.2500 -15.7500 Du        
  19951 ****        -7.0000 -19.0000 -29.2500 Du        
  19952 ****        -7.0000 -19.0000 -29.0000 Du        
  19953 ****        -7.0000 -19.0000 -28.7500 Du        
  19954 ****        -7.0000 -19.0000 -28.5000 Du        
  19955 ****        -7.0000 -19.0000 -16.5000 Du        
  19956 ****        -7.0000 -19.0000 -16.2500 Du        
  19957 ****        -7.0000 -19.0000 -16.0000 Du        
  19958 ****        -7.0000 -19.0000 -15.7500 Du        
  19959 ****        -7.0000 -18.7500 -29.0000 Du        
  19960 ****        -7.0000 -18.7500 -28.7500 Du        
  19961 ****        -7.0000 -18.7500 -16.5000 Du        
  19962 ****        -7.0000 -18.7500 -16.2500 Du        
  19963 ****        -7.0000 -18.7500 -16.0000 Du        
  19964 ****        -7.0000 -18.7500 -15.7500 Du        
  19965 ****        -7.0000 -18.5000 -29.0000 Du        
  19966 ****        -7.0000 -18.5000 -28.7500 Du        
  19967 ****        -7.0000 -18.5000 -16.7500 Du        
  19968 ****        -7.0000 -18.5000 -16.5000 Du        
  19969 ****        -7.0000 -18.5000 -16.2500 Du        
  19970 ****        -7.0000 -18.5000 -16.0000 Du        
  19971 ****        -7.0000 -18.2500 -29.0000 Du        
  19972 ****        -7.0000 -18.2500 -28.7500 Du        
  19973 ****        -7.0000 -18.2500 -17.0000 Du        
  19974 ****        -7.0000 -18.2500 -16.7500 Du        
  19975 ****        -7.0000 -18.2500 -16.5000 Du        
  19976 ****        -7.0000 -18.2500 -16.2500 Du        
  19977 ****        -7.0000 -18.0000 -29.0000 Du        
  19978 ****        -7.0000 -18.0000 -28.7500 Du        
  19979 ****        -7.0000 -18.0000 -17.2500 Du        
  19980 ****        -7.0000 -18.0000 -17.0000 Du        
  19981 ****        -7.0000 -18.0000 -16.7500 Du        
  19982 ****        -7.0000 -18.0000 -16.5000 Du        
  19983 ****        -7.0000 -17.7500 -29.0000 Du        
  19984 ****        -7.0000 -17.7500 -28.7500 Du        
  19985 ****        -7.0000 -17.7500 -17.5000 Du        
  19986 ****        -7.0000 -17.7500 -17.2500 Du        
  19987 ****        -7.0000 -17.7500 -17.0000 Du        
  19988 ****        -7.0000 -17.7500 -16.7500 Du        
  19989 ****        -7.0000 -17.7500 -16.5000 Du        
  19990 ****        -7.0000 -17.5000 -29.2500 Du        
  19991 ****        -7.0000 -17.5000 -29.0000 Du        
  19992 ****        -7.0000 -17.5000 -28.7500 Du        
  19993 ****        -7.0000 -17.5000 -28.5000 Du        
  19994 ****        -7.0000 -17.5000 -17.5000 Du        
  19995 ****        -7.0000 -17.5000 -17.2500 Du        
  19996 ****        -7.0000 -17.5000 -17.0000 Du        
  19997 ****        -7.0000 -17.5000 -16.7500 Du        
  19998 ****        -7.0000 -17.2500 -29.0000 Du        
  19999 ****        -7.0000 -17.2500 -28.7500 Du        
  20000 ****        -7.0000 -17.2500 -28.5000 Du        
  20001 ****        -7.0000 -17.2500 -18.0000 Du        
  20002 ****        -7.0000 -17.2500 -17.7500 Du        
  20003 ****        -7.0000 -17.2500 -17.5000 Du        
  20004 ****        -7.0000 -17.2500 -17.2500 Du        
  20005 ****        -7.0000 -17.2500 -17.0000 Du        
  20006 ****        -7.0000 -17.0000 -28.7500 Du        
  20007 ****        -7.0000 -17.0000 -18.5000 Du        
  20008 ****        -7.0000 -17.0000 -18.2500 Du        
  20009 ****        -7.0000 -17.0000 -18.0000 Du        
  20010 ****        -7.0000 -17.0000 -17.7500 Du        
  20011 ****        -7.0000 -17.0000 -17.5000 Du        
  20012 ****        -7.0000 -17.0000 -17.2500 Du        
  20013 ****        -7.0000 -17.0000 -17.0000 Du        
  20014 ****        -7.0000 -16.7500 -19.0000 Du        
  20015 ****        -7.0000 -16.7500 -18.7500 Du        
  20016 ****        -7.0000 -16.7500 -18.5000 Du        
  20017 ****        -7.0000 -16.7500 -18.2500 Du        
  20018 ****        -7.0000 -16.7500 -18.0000 Du        
  20019 ****        -7.0000 -16.7500 -17.7500 Du        
  20020 ****        -7.0000 -16.7500 -17.5000 Du        
  20021 ****        -7.0000 -16.7500 -17.2500 Du        
  20022 ****        -7.0000 -16.7500 -17.0000 Du        
  20023 ****        -7.0000 -16.5000 -18.5000 Du        
  20024 ****        -7.0000 -16.5000 -18.2500 Du        
  20025 ****        -7.0000 -16.5000 -18.0000 Du        
  20026 ****        -7.0000 -16.5000 -17.7500 Du        
  20027 ****        -7.0000 -16.5000 -17.5000 Du        
  20028 ****        -7.0000 -16.2500 -17.2500 Du        
  20029 ****        -7.0000   2.7500 -27.7500 Du        
  20030 ****        -7.0000   5.0000 -16.2500 Du        
  20031 ****        -7.0000   5.0000 -16.0000 Du        
  20032 ****        -7.0000   5.0000 -15.7500 Du        
  20033 ****        -7.0000   5.2500 -17.2500 Du        
  20034 ****        -7.0000   5.2500 -17.0000 Du        
  20035 ****        -7.0000   5.2500 -16.7500 Du        
  20036 ****        -7.0000   5.2500 -16.5000 Du        
  20037 ****        -7.0000   5.2500 -16.2500 Du        
  20038 ****        -7.0000   5.2500 -16.0000 Du        
  20039 ****        -7.0000   5.2500 -15.7500 Du        
  20040 ****        -7.0000   5.5000 -17.0000 Du        
  20041 ****        -7.0000   5.5000 -16.7500 Du        
  20042 ****        -7.0000   5.5000 -16.5000 Du        
  20043 ****        -7.0000   5.5000 -16.2500 Du        
  20044 ****        -7.0000   5.5000 -16.0000 Du        
  20045 ****        -7.0000   5.7500 -17.0000 Du        
  20046 ****        -7.0000   5.7500 -16.7500 Du        
  20047 ****        -7.0000   5.7500 -16.5000 Du        
  20048 ****        -7.0000   5.7500 -16.2500 Du        
  20049 ****        -7.0000   6.0000 -17.0000 Du        
  20050 ****        -7.0000   6.0000 -16.7500 Du        
  20051 ****        -7.0000   6.0000 -16.5000 Du        
  20052 ****        -6.7500 -29.0000 -15.7500 Du        
  20053 ****        -6.7500 -29.0000 -15.5000 Du        
  20054 ****        -6.7500 -29.0000 -15.2500 Du        
  20055 ****        -6.7500 -29.0000 -15.0000 Du        
  20056 ****        -6.7500 -29.0000 -14.7500 Du        
  20057 ****        -6.7500 -29.0000 -14.5000 Du        
  20058 ****        -6.7500 -29.0000 -14.2500 Du        
  20059 ****        -6.7500 -29.0000  -7.0000 Du        
  20060 ****        -6.7500 -29.0000  -6.7500 Du        
  20061 ****        -6.7500 -29.0000  -5.5000 Du        
  20062 ****        -6.7500 -29.0000  -5.2500 Du        
  20063 ****        -6.7500 -29.0000  -5.0000 Du        
  20064 ****        -6.7500 -29.0000  -4.7500 Du        
  20065 ****        -6.7500 -29.0000  -4.5000 Du        
  20066 ****        -6.7500 -29.0000  -4.2500 Du        
  20067 ****        -6.7500 -29.0000  -4.0000 Du        
  20068 ****        -6.7500 -29.0000  -3.7500 Du        
  20069 ****        -6.7500 -29.0000  -3.5000 Du        
  20070 ****        -6.7500 -29.0000  -3.2500 Du        
  20071 ****        -6.7500 -29.0000  -3.0000 Du        
  20072 ****        -6.7500 -28.7500 -15.7500 Du        
  20073 ****        -6.7500 -28.7500 -15.5000 Du        
  20074 ****        -6.7500 -28.7500 -15.2500 Du        
  20075 ****        -6.7500 -28.7500 -15.0000 Du        
  20076 ****        -6.7500 -28.7500 -14.7500 Du        
  20077 ****        -6.7500 -28.7500 -14.5000 Du        
  20078 ****        -6.7500 -28.7500 -14.2500 Du        
  20079 ****        -6.7500 -28.7500  -7.2500 Du        
  20080 ****        -6.7500 -28.7500  -7.0000 Du        
  20081 ****        -6.7500 -28.7500  -6.7500 Du        
  20082 ****        -6.7500 -28.7500  -6.5000 Du        
  20083 ****        -6.7500 -28.7500  -6.2500 Du        
  20084 ****        -6.7500 -28.7500  -6.0000 Du        
  20085 ****        -6.7500 -28.7500  -5.7500 Du        
  20086 ****        -6.7500 -28.7500  -5.5000 Du        
  20087 ****        -6.7500 -28.7500  -5.2500 Du        
  20088 ****        -6.7500 -28.7500  -5.0000 Du        
  20089 ****        -6.7500 -28.7500  -4.7500 Du        
  20090 ****        -6.7500 -28.7500  -4.5000 Du        
  20091 ****        -6.7500 -28.7500  -4.2500 Du        
  20092 ****        -6.7500 -28.7500  -4.0000 Du        
  20093 ****        -6.7500 -28.7500  -3.7500 Du        
  20094 ****        -6.7500 -28.7500  -3.5000 Du        
  20095 ****        -6.7500 -28.7500  -3.2500 Du        
  20096 ****        -6.7500 -28.7500  -3.0000 Du        
  20097 ****        -6.7500 -28.7500  -2.7500 Du        
  20098 ****        -6.7500 -28.5000 -15.5000 Du        
  20099 ****        -6.7500 -28.5000 -15.2500 Du        
  20100 ****        -6.7500 -28.5000 -15.0000 Du        
  20101 ****        -6.7500 -28.5000 -14.7500 Du        
  20102 ****        -6.7500 -28.5000 -14.5000 Du        
  20103 ****        -6.7500 -28.5000 -14.2500 Du        
  20104 ****        -6.7500 -28.5000 -14.0000 Du        
  20105 ****        -6.7500 -28.5000  -7.5000 Du        
  20106 ****        -6.7500 -28.5000  -7.2500 Du        
  20107 ****        -6.7500 -28.5000  -7.0000 Du        
  20108 ****        -6.7500 -28.5000  -6.7500 Du        
  20109 ****        -6.7500 -28.5000  -6.5000 Du        
  20110 ****        -6.7500 -28.5000  -6.2500 Du        
  20111 ****        -6.7500 -28.5000  -6.0000 Du        
  20112 ****        -6.7500 -28.5000  -5.5000 Du        
  20113 ****        -6.7500 -28.5000  -5.2500 Du        
  20114 ****        -6.7500 -28.5000  -5.0000 Du        
  20115 ****        -6.7500 -28.5000  -4.7500 Du        
  20116 ****        -6.7500 -28.5000  -4.5000 Du        
  20117 ****        -6.7500 -28.5000  -4.2500 Du        
  20118 ****        -6.7500 -28.5000  -4.0000 Du        
  20119 ****        -6.7500 -28.5000  -3.7500 Du        
  20120 ****        -6.7500 -28.5000  -3.5000 Du        
  20121 ****        -6.7500 -28.5000  -3.2500 Du        
  20122 ****        -6.7500 -28.5000  -3.0000 Du        
  20123 ****        -6.7500 -28.5000  -2.7500 Du        
  20124 ****        -6.7500 -28.5000  -2.5000 Du        
  20125 ****        -6.7500 -28.2500 -15.5000 Du        
  20126 ****        -6.7500 -28.2500 -15.2500 Du        
  20127 ****        -6.7500 -28.2500 -15.0000 Du        
  20128 ****        -6.7500 -28.2500 -14.7500 Du        
  20129 ****        -6.7500 -28.2500 -14.5000 Du        
  20130 ****        -6.7500 -28.2500 -14.2500 Du        
  20131 ****        -6.7500 -28.2500 -14.0000 Du        
  20132 ****        -6.7500 -28.2500  -7.7500 Du        
  20133 ****        -6.7500 -28.2500  -7.5000 Du        
  20134 ****        -6.7500 -28.2500  -7.2500 Du        
  20135 ****        -6.7500 -28.2500  -7.0000 Du        
  20136 ****        -6.7500 -28.2500  -6.7500 Du        
  20137 ****        -6.7500 -28.2500  -6.5000 Du        
  20138 ****        -6.7500 -28.2500  -6.2500 Du        
  20139 ****        -6.7500 -28.2500  -4.0000 Du        
  20140 ****        -6.7500 -28.2500  -3.7500 Du        
  20141 ****        -6.7500 -28.2500  -3.5000 Du        
  20142 ****        -6.7500 -28.2500  -3.2500 Du        
  20143 ****        -6.7500 -28.2500  -3.0000 Du        
  20144 ****        -6.7500 -28.2500  -2.7500 Du        
  20145 ****        -6.7500 -28.2500  -2.5000 Du        
  20146 ****        -6.7500 -28.0000 -15.2500 Du        
  20147 ****        -6.7500 -28.0000 -15.0000 Du        
  20148 ****        -6.7500 -28.0000 -14.7500 Du        
  20149 ****        -6.7500 -28.0000 -14.5000 Du        
  20150 ****        -6.7500 -28.0000 -14.2500 Du        
  20151 ****        -6.7500 -28.0000 -14.0000 Du        
  20152 ****        -6.7500 -28.0000  -8.0000 Du        
  20153 ****        -6.7500 -28.0000  -7.7500 Du        
  20154 ****        -6.7500 -28.0000  -7.5000 Du        
  20155 ****        -6.7500 -28.0000  -7.2500 Du        
  20156 ****        -6.7500 -28.0000  -7.0000 Du        
  20157 ****        -6.7500 -28.0000  -6.7500 Du        
  20158 ****        -6.7500 -28.0000  -3.5000 Du        
  20159 ****        -6.7500 -28.0000  -3.2500 Du        
  20160 ****        -6.7500 -28.0000  -3.0000 Du        
  20161 ****        -6.7500 -28.0000  -2.7500 Du        
  20162 ****        -6.7500 -28.0000  -2.5000 Du        
  20163 ****        -6.7500 -28.0000  -2.2500 Du        
  20164 ****        -6.7500 -27.7500 -15.2500 Du        
  20165 ****        -6.7500 -27.7500 -15.0000 Du        
  20166 ****        -6.7500 -27.7500 -14.7500 Du        
  20167 ****        -6.7500 -27.7500 -14.5000 Du        
  20168 ****        -6.7500 -27.7500 -14.2500 Du        
  20169 ****        -6.7500 -27.7500 -14.0000 Du        
  20170 ****        -6.7500 -27.7500  -8.0000 Du        
  20171 ****        -6.7500 -27.7500  -7.7500 Du        
  20172 ****        -6.7500 -27.7500  -7.5000 Du        
  20173 ****        -6.7500 -27.7500  -7.2500 Du        
  20174 ****        -6.7500 -27.7500  -7.0000 Du        
  20175 ****        -6.7500 -27.7500  -6.7500 Du        
  20176 ****        -6.7500 -27.7500  -3.0000 Du        
  20177 ****        -6.7500 -27.7500  -2.7500 Du        
  20178 ****        -6.7500 -27.7500  -2.5000 Du        
  20179 ****        -6.7500 -27.7500  -2.2500 Du        
  20180 ****        -6.7500 -27.7500  -2.0000 Du        
  20181 ****        -6.7500 -27.5000 -15.0000 Du        
  20182 ****        -6.7500 -27.5000 -14.7500 Du        
  20183 ****        -6.7500 -27.5000 -14.5000 Du        
  20184 ****        -6.7500 -27.5000 -14.2500 Du        
  20185 ****        -6.7500 -27.5000 -14.0000 Du        
  20186 ****        -6.7500 -27.5000 -13.7500 Du        
  20187 ****        -6.7500 -27.5000  -8.5000 Du        
  20188 ****        -6.7500 -27.5000  -8.2500 Du        
  20189 ****        -6.7500 -27.5000  -8.0000 Du        
  20190 ****        -6.7500 -27.5000  -7.7500 Du        
  20191 ****        -6.7500 -27.5000  -7.5000 Du        
  20192 ****        -6.7500 -27.5000  -7.2500 Du        
  20193 ****        -6.7500 -27.5000  -7.0000 Du        
  20194 ****        -6.7500 -27.5000  -2.7500 Du        
  20195 ****        -6.7500 -27.5000  -2.5000 Du        
  20196 ****        -6.7500 -27.5000  -2.2500 Du        
  20197 ****        -6.7500 -27.5000  -2.0000 Du        
  20198 ****        -6.7500 -27.5000  -1.7500 Du        
  20199 ****        -6.7500 -27.2500 -14.7500 Du        
  20200 ****        -6.7500 -27.2500 -14.5000 Du        
  20201 ****        -6.7500 -27.2500 -14.2500 Du        
  20202 ****        -6.7500 -27.2500 -14.0000 Du        
  20203 ****        -6.7500 -27.2500 -13.7500 Du        
  20204 ****        -6.7500 -27.2500 -13.5000 Du        
  20205 ****        -6.7500 -27.2500 -13.2500 Du        
  20206 ****        -6.7500 -27.2500 -10.0000 Du        
  20207 ****        -6.7500 -27.2500  -9.7500 Du        
  20208 ****        -6.7500 -27.2500  -9.5000 Du        
  20209 ****        -6.7500 -27.2500  -9.2500 Du        
  20210 ****        -6.7500 -27.2500  -9.0000 Du        
  20211 ****        -6.7500 -27.2500  -8.7500 Du        
  20212 ****        -6.7500 -27.2500  -8.5000 Du        
  20213 ****        -6.7500 -27.2500  -8.2500 Du        
  20214 ****        -6.7500 -27.2500  -8.0000 Du        
  20215 ****        -6.7500 -27.2500  -7.7500 Du        
  20216 ****        -6.7500 -27.2500  -7.5000 Du        
  20217 ****        -6.7500 -27.2500  -2.2500 Du        
  20218 ****        -6.7500 -27.2500  -2.0000 Du        
  20219 ****        -6.7500 -27.0000 -14.7500 Du        
  20220 ****        -6.7500 -27.0000 -14.5000 Du        
  20221 ****        -6.7500 -27.0000 -14.2500 Du        
  20222 ****        -6.7500 -27.0000 -14.0000 Du        
  20223 ****        -6.7500 -27.0000 -13.7500 Du        
  20224 ****        -6.7500 -27.0000 -13.5000 Du        
  20225 ****        -6.7500 -27.0000 -13.0000 Du        
  20226 ****        -6.7500 -27.0000 -10.0000 Du        
  20227 ****        -6.7500 -27.0000  -9.7500 Du        
  20228 ****        -6.7500 -27.0000  -9.5000 Du        
  20229 ****        -6.7500 -27.0000  -9.2500 Du        
  20230 ****        -6.7500 -27.0000  -9.0000 Du        
  20231 ****        -6.7500 -27.0000  -8.7500 Du        
  20232 ****        -6.7500 -27.0000  -8.5000 Du        
  20233 ****        -6.7500 -27.0000  -8.2500 Du        
  20234 ****        -6.7500 -27.0000  -8.0000 Du        
  20235 ****        -6.7500 -27.0000  -7.7500 Du        
  20236 ****        -6.7500 -26.7500 -14.5000 Du        
  20237 ****        -6.7500 -26.7500 -14.2500 Du        
  20238 ****        -6.7500 -26.7500 -14.0000 Du        
  20239 ****        -6.7500 -26.7500 -13.7500 Du        
  20240 ****        -6.7500 -26.7500 -13.5000 Du        
  20241 ****        -6.7500 -26.7500 -13.2500 Du        
  20242 ****        -6.7500 -26.7500  -9.7500 Du        
  20243 ****        -6.7500 -26.7500  -9.5000 Du        
  20244 ****        -6.7500 -26.7500  -9.2500 Du        
  20245 ****        -6.7500 -26.7500  -9.0000 Du        
  20246 ****        -6.7500 -26.7500  -8.7500 Du        
  20247 ****        -6.7500 -26.7500  -8.5000 Du        
  20248 ****        -6.7500 -26.7500  -8.2500 Du        
  20249 ****        -6.7500 -26.7500  -8.0000 Du        
  20250 ****        -6.7500 -26.5000 -14.2500 Du        
  20251 ****        -6.7500 -26.5000 -14.0000 Du        
  20252 ****        -6.7500 -26.5000  -9.7500 Du        
  20253 ****        -6.7500 -26.5000  -9.5000 Du        
  20254 ****        -6.7500 -26.5000  -9.2500 Du        
  20255 ****        -6.7500 -26.5000  -9.0000 Du        
  20256 ****        -6.7500 -26.5000  -8.7500 Du        
  20257 ****        -6.7500 -26.5000  -8.5000 Du        
  20258 ****        -6.7500 -26.5000  -8.2500 Du        
  20259 ****        -6.7500 -26.5000  -8.0000 Du        
  20260 ****        -6.7500 -26.2500  -9.5000 Du        
  20261 ****        -6.7500 -26.2500  -9.2500 Du        
  20262 ****        -6.7500 -26.2500  -9.0000 Du        
  20263 ****        -6.7500 -26.2500  -8.7500 Du        
  20264 ****        -6.7500 -26.2500  -8.5000 Du        
  20265 ****        -6.7500 -26.2500  -8.2500 Du        
  20266 ****        -6.7500 -26.0000 -28.2500 Du        
  20267 ****        -6.7500 -26.0000 -28.0000 Du        
  20268 ****        -6.7500 -26.0000  -9.2500 Du        
  20269 ****        -6.7500 -26.0000  -9.0000 Du        
  20270 ****        -6.7500 -26.0000  -8.7500 Du        
  20271 ****        -6.7500 -26.0000  -8.5000 Du        
  20272 ****        -6.7500 -26.0000  -8.2500 Du        
  20273 ****        -6.7500 -25.7500 -28.2500 Du        
  20274 ****        -6.7500 -25.7500 -28.0000 Du        
  20275 ****        -6.7500 -25.7500 -27.7500 Du        
  20276 ****        -6.7500 -25.7500  -9.0000 Du        
  20277 ****        -6.7500 -25.7500  -8.7500 Du        
  20278 ****        -6.7500 -25.5000 -28.7500 Du        
  20279 ****        -6.7500 -25.5000 -28.5000 Du        
  20280 ****        -6.7500 -25.5000 -28.2500 Du        
  20281 ****        -6.7500 -25.5000 -28.0000 Du        
  20282 ****        -6.7500 -25.5000 -27.7500 Du        
  20283 ****        -6.7500 -25.5000 -27.5000 Du        
  20284 ****        -6.7500 -25.2500 -28.7500 Du        
  20285 ****        -6.7500 -25.2500 -28.5000 Du        
  20286 ****        -6.7500 -25.2500 -28.2500 Du        
  20287 ****        -6.7500 -25.2500 -28.0000 Du        
  20288 ****        -6.7500 -25.2500 -27.7500 Du        
  20289 ****        -6.7500 -25.2500 -27.5000 Du        
  20290 ****        -6.7500 -25.2500 -27.2500 Du        
  20291 ****        -6.7500 -25.0000 -29.0000 Du        
  20292 ****        -6.7500 -25.0000 -28.7500 Du        
  20293 ****        -6.7500 -25.0000 -28.2500 Du        
  20294 ****        -6.7500 -25.0000 -28.0000 Du        
  20295 ****        -6.7500 -25.0000 -27.7500 Du        
  20296 ****        -6.7500 -25.0000 -27.5000 Du        
  20297 ****        -6.7500 -25.0000 -27.2500 Du        
  20298 ****        -6.7500 -25.0000 -27.0000 Du        
  20299 ****        -6.7500 -24.7500 -28.7500 Du        
  20300 ****        -6.7500 -24.7500 -28.2500 Du        
  20301 ****        -6.7500 -24.7500 -28.0000 Du        
  20302 ****        -6.7500 -24.7500 -27.7500 Du        
  20303 ****        -6.7500 -24.7500 -27.5000 Du        
  20304 ****        -6.7500 -24.7500 -27.2500 Du        
  20305 ****        -6.7500 -24.7500 -27.0000 Du        
  20306 ****        -6.7500 -24.5000 -28.5000 Du        
  20307 ****        -6.7500 -24.5000 -28.2500 Du        
  20308 ****        -6.7500 -24.5000 -28.0000 Du        
  20309 ****        -6.7500 -24.5000 -27.7500 Du        
  20310 ****        -6.7500 -24.5000 -27.5000 Du        
  20311 ****        -6.7500 -24.5000 -27.2500 Du        
  20312 ****        -6.7500 -24.5000 -27.0000 Du        
  20313 ****        -6.7500 -24.2500 -28.2500 Du        
  20314 ****        -6.7500 -24.2500 -28.0000 Du        
  20315 ****        -6.7500 -24.2500 -27.7500 Du        
  20316 ****        -6.7500 -24.2500 -27.5000 Du        
  20317 ****        -6.7500 -24.2500 -27.2500 Du        
  20318 ****        -6.7500 -24.2500 -27.0000 Du        
  20319 ****        -6.7500 -24.0000 -28.2500 Du        
  20320 ****        -6.7500 -24.0000 -28.0000 Du        
  20321 ****        -6.7500 -24.0000 -27.7500 Du        
  20322 ****        -6.7500 -24.0000 -27.5000 Du        
  20323 ****        -6.7500 -24.0000 -27.2500 Du        
  20324 ****        -6.7500 -24.0000 -27.0000 Du        
  20325 ****        -6.7500 -23.7500 -28.2500 Du        
  20326 ****        -6.7500 -23.7500 -28.0000 Du        
  20327 ****        -6.7500 -23.7500 -27.7500 Du        
  20328 ****        -6.7500 -23.7500 -27.5000 Du        
  20329 ****        -6.7500 -23.7500 -27.2500 Du        
  20330 ****        -6.7500 -23.5000 -28.2500 Du        
  20331 ****        -6.7500 -23.5000 -28.0000 Du        
  20332 ****        -6.7500 -23.5000 -27.7500 Du        
  20333 ****        -6.7500 -23.2500 -28.0000 Du        
  20334 ****        -6.7500 -23.2500 -27.7500 Du        
  20335 ****        -6.7500 -23.0000 -28.0000 Du        
  20336 ****        -6.7500 -23.0000 -27.7500 Du        
  20337 ****        -6.7500 -22.5000 -29.7500 Du        
  20338 ****        -6.7500 -22.5000 -29.5000 Du        
  20339 ****        -6.7500 -22.5000 -29.2500 Du        
  20340 ****        -6.7500 -22.5000 -29.0000 Du        
  20341 ****        -6.7500 -22.5000 -28.0000 Du        
  20342 ****        -6.7500 -22.2500 -30.0000 Du        
  20343 ****        -6.7500 -22.2500 -29.7500 Du        
  20344 ****        -6.7500 -22.2500 -29.5000 Du        
  20345 ****        -6.7500 -22.2500 -29.2500 Du        
  20346 ****        -6.7500 -22.2500 -29.0000 Du        
  20347 ****        -6.7500 -22.2500 -28.7500 Du        
  20348 ****        -6.7500 -22.2500 -28.0000 Du        
  20349 ****        -6.7500 -22.2500 -27.7500 Du        
  20350 ****        -6.7500 -22.0000 -30.0000 Du        
  20351 ****        -6.7500 -22.0000 -29.7500 Du        
  20352 ****        -6.7500 -22.0000 -29.5000 Du        
  20353 ****        -6.7500 -22.0000 -29.2500 Du        
  20354 ****        -6.7500 -22.0000 -29.0000 Du        
  20355 ****        -6.7500 -22.0000 -28.7500 Du        
  20356 ****        -6.7500 -21.7500 -30.2500 Du        
  20357 ****        -6.7500 -21.7500 -30.0000 Du        
  20358 ****        -6.7500 -21.7500 -29.7500 Du        
  20359 ****        -6.7500 -21.7500 -29.5000 Du        
  20360 ****        -6.7500 -21.7500 -29.2500 Du        
  20361 ****        -6.7500 -21.7500 -29.0000 Du        
  20362 ****        -6.7500 -21.7500 -28.7500 Du        
  20363 ****        -6.7500 -21.5000 -30.0000 Du        
  20364 ****        -6.7500 -21.5000 -29.7500 Du        
  20365 ****        -6.7500 -21.5000 -29.5000 Du        
  20366 ****        -6.7500 -21.5000 -29.2500 Du        
  20367 ****        -6.7500 -21.5000 -29.0000 Du        
  20368 ****        -6.7500 -21.5000 -28.7500 Du        
  20369 ****        -6.7500 -21.2500 -30.0000 Du        
  20370 ****        -6.7500 -21.2500 -29.7500 Du        
  20371 ****        -6.7500 -21.2500 -29.5000 Du        
  20372 ****        -6.7500 -21.2500 -29.2500 Du        
  20373 ****        -6.7500 -21.2500 -29.0000 Du        
  20374 ****        -6.7500 -21.2500 -28.7500 Du        
  20375 ****        -6.7500 -21.0000 -30.0000 Du        
  20376 ****        -6.7500 -21.0000 -29.7500 Du        
  20377 ****        -6.7500 -21.0000 -29.5000 Du        
  20378 ****        -6.7500 -21.0000 -29.2500 Du        
  20379 ****        -6.7500 -21.0000 -29.0000 Du        
  20380 ****        -6.7500 -21.0000 -28.7500 Du        
  20381 ****        -6.7500 -20.7500 -30.0000 Du        
  20382 ****        -6.7500 -20.7500 -29.7500 Du        
  20383 ****        -6.7500 -20.7500 -29.5000 Du        
  20384 ****        -6.7500 -20.7500 -29.2500 Du        
  20385 ****        -6.7500 -20.7500 -29.0000 Du        
  20386 ****        -6.7500 -20.7500 -28.7500 Du        
  20387 ****        -6.7500 -20.5000 -29.7500 Du        
  20388 ****        -6.7500 -20.5000 -29.5000 Du        
  20389 ****        -6.7500 -20.5000 -29.2500 Du        
  20390 ****        -6.7500 -20.5000 -29.0000 Du        
  20391 ****        -6.7500 -20.5000 -28.7500 Du        
  20392 ****        -6.7500 -20.2500 -29.7500 Du        
  20393 ****        -6.7500 -20.2500 -29.5000 Du        
  20394 ****        -6.7500 -20.2500 -29.2500 Du        
  20395 ****        -6.7500 -20.2500 -29.0000 Du        
  20396 ****        -6.7500 -20.2500 -28.7500 Du        
  20397 ****        -6.7500 -20.0000 -29.7500 Du        
  20398 ****        -6.7500 -20.0000 -29.5000 Du        
  20399 ****        -6.7500 -20.0000 -29.2500 Du        
  20400 ****        -6.7500 -20.0000 -29.0000 Du        
  20401 ****        -6.7500 -20.0000 -28.7500 Du        
  20402 ****        -6.7500 -19.7500 -29.7500 Du        
  20403 ****        -6.7500 -19.7500 -29.5000 Du        
  20404 ****        -6.7500 -19.7500 -29.2500 Du        
  20405 ****        -6.7500 -19.7500 -29.0000 Du        
  20406 ****        -6.7500 -19.7500 -28.7500 Du        
  20407 ****        -6.7500 -19.5000 -29.5000 Du        
  20408 ****        -6.7500 -19.5000 -29.2500 Du        
  20409 ****        -6.7500 -19.5000 -29.0000 Du        
  20410 ****        -6.7500 -19.5000 -28.7500 Du        
  20411 ****        -6.7500 -19.5000 -28.5000 Du        
  20412 ****        -6.7500 -19.2500 -29.5000 Du        
  20413 ****        -6.7500 -19.2500 -29.2500 Du        
  20414 ****        -6.7500 -19.2500 -29.0000 Du        
  20415 ****        -6.7500 -19.2500 -28.7500 Du        
  20416 ****        -6.7500 -19.2500 -28.5000 Du        
  20417 ****        -6.7500 -19.2500 -28.2500 Du        
  20418 ****        -6.7500 -19.0000 -29.2500 Du        
  20419 ****        -6.7500 -19.0000 -29.0000 Du        
  20420 ****        -6.7500 -19.0000 -28.7500 Du        
  20421 ****        -6.7500 -19.0000 -28.5000 Du        
  20422 ****        -6.7500 -19.0000 -28.2500 Du        
  20423 ****        -6.7500 -18.7500 -29.2500 Du        
  20424 ****        -6.7500 -18.7500 -29.0000 Du        
  20425 ****        -6.7500 -18.7500 -28.7500 Du        
  20426 ****        -6.7500 -18.7500 -28.5000 Du        
  20427 ****        -6.7500 -18.7500 -28.2500 Du        
  20428 ****        -6.7500 -18.7500 -16.2500 Du        
  20429 ****        -6.7500 -18.7500 -16.0000 Du        
  20430 ****        -6.7500 -18.5000 -29.2500 Du        
  20431 ****        -6.7500 -18.5000 -29.0000 Du        
  20432 ****        -6.7500 -18.5000 -28.7500 Du        
  20433 ****        -6.7500 -18.5000 -16.5000 Du        
  20434 ****        -6.7500 -18.5000 -16.2500 Du        
  20435 ****        -6.7500 -18.2500 -29.2500 Du        
  20436 ****        -6.7500 -18.2500 -29.0000 Du        
  20437 ****        -6.7500 -18.2500 -28.7500 Du        
  20438 ****        -6.7500 -18.2500 -28.5000 Du        
  20439 ****        -6.7500 -18.2500 -16.7500 Du        
  20440 ****        -6.7500 -18.2500 -16.5000 Du        
  20441 ****        -6.7500 -18.0000 -29.2500 Du        
  20442 ****        -6.7500 -18.0000 -29.0000 Du        
  20443 ****        -6.7500 -18.0000 -28.7500 Du        
  20444 ****        -6.7500 -18.0000 -28.5000 Du        
  20445 ****        -6.7500 -18.0000 -17.0000 Du        
  20446 ****        -6.7500 -18.0000 -16.7500 Du        
  20447 ****        -6.7500 -17.7500 -29.2500 Du        
  20448 ****        -6.7500 -17.7500 -29.0000 Du        
  20449 ****        -6.7500 -17.7500 -28.7500 Du        
  20450 ****        -6.7500 -17.7500 -28.5000 Du        
  20451 ****        -6.7500 -17.7500 -17.2500 Du        
  20452 ****        -6.7500 -17.7500 -17.0000 Du        
  20453 ****        -6.7500 -17.7500 -16.7500 Du        
  20454 ****        -6.7500 -17.5000 -29.2500 Du        
  20455 ****        -6.7500 -17.5000 -29.0000 Du        
  20456 ****        -6.7500 -17.5000 -28.7500 Du        
  20457 ****        -6.7500 -17.5000 -28.5000 Du        
  20458 ****        -6.7500 -17.5000 -17.5000 Du        
  20459 ****        -6.7500 -17.5000 -17.2500 Du        
  20460 ****        -6.7500 -17.5000 -17.0000 Du        
  20461 ****        -6.7500 -17.2500 -29.0000 Du        
  20462 ****        -6.7500 -17.2500 -28.7500 Du        
  20463 ****        -6.7500 -17.2500 -28.5000 Du        
  20464 ****        -6.7500 -17.2500 -18.0000 Du        
  20465 ****        -6.7500 -17.2500 -17.7500 Du        
  20466 ****        -6.7500 -17.2500 -17.5000 Du        
  20467 ****        -6.7500 -17.2500 -17.2500 Du        
  20468 ****        -6.7500 -17.2500 -17.0000 Du        
  20469 ****        -6.7500 -17.0000 -28.7500 Du        
  20470 ****        -6.7500 -17.0000 -18.5000 Du        
  20471 ****        -6.7500 -17.0000 -18.2500 Du        
  20472 ****        -6.7500 -17.0000 -18.0000 Du        
  20473 ****        -6.7500 -17.0000 -17.7500 Du        
  20474 ****        -6.7500 -17.0000 -17.5000 Du        
  20475 ****        -6.7500 -17.0000 -17.2500 Du        
  20476 ****        -6.7500 -17.0000 -17.0000 Du        
  20477 ****        -6.7500 -16.7500 -18.5000 Du        
  20478 ****        -6.7500 -16.7500 -18.2500 Du        
  20479 ****        -6.7500 -16.7500 -18.0000 Du        
  20480 ****        -6.7500 -16.7500 -17.7500 Du        
  20481 ****        -6.7500 -16.7500 -17.5000 Du        
  20482 ****        -6.7500 -16.7500 -17.2500 Du        
  20483 ****        -6.7500   2.7500 -28.0000 Du        
  20484 ****        -6.7500   2.7500 -27.7500 Du        
  20485 ****        -6.7500   2.7500 -27.5000 Du        
  20486 ****        -6.7500   2.7500 -27.2500 Du        
  20487 ****        -6.7500   2.7500 -27.0000 Du        
  20488 ****        -6.7500   4.7500 -15.7500 Du        
  20489 ****        -6.7500   5.0000 -16.7500 Du        
  20490 ****        -6.7500   5.0000 -16.5000 Du        
  20491 ****        -6.7500   5.0000 -16.2500 Du        
  20492 ****        -6.7500   5.0000 -16.0000 Du        
  20493 ****        -6.7500   5.0000 -15.7500 Du        
  20494 ****        -6.7500   5.0000 -15.5000 Du        
  20495 ****        -6.7500   5.2500 -17.2500 Du        
  20496 ****        -6.7500   5.2500 -17.0000 Du        
  20497 ****        -6.7500   5.2500 -16.7500 Du        
  20498 ****        -6.7500   5.2500 -16.5000 Du        
  20499 ****        -6.7500   5.2500 -16.2500 Du        
  20500 ****        -6.7500   5.2500 -16.0000 Du        
  20501 ****        -6.7500   5.2500 -15.7500 Du        
  20502 ****        -6.7500   5.5000 -17.2500 Du        
  20503 ****        -6.7500   5.5000 -17.0000 Du        
  20504 ****        -6.7500   5.5000 -16.7500 Du        
  20505 ****        -6.7500   5.5000 -16.5000 Du        
  20506 ****        -6.7500   5.5000 -16.2500 Du        
  20507 ****        -6.7500   5.5000 -16.0000 Du        
  20508 ****        -6.7500   5.7500 -17.2500 Du        
  20509 ****        -6.7500   5.7500 -17.0000 Du        
  20510 ****        -6.7500   5.7500 -16.7500 Du        
  20511 ****        -6.7500   5.7500 -16.5000 Du        
  20512 ****        -6.7500   5.7500 -16.2500 Du        
  20513 ****        -6.7500   6.0000 -17.0000 Du        
  20514 ****        -6.7500   6.0000 -16.7500 Du        
  20515 ****        -6.7500   6.0000 -16.5000 Du        
  20516 ****        -6.5000 -29.0000 -15.5000 Du        
  20517 ****        -6.5000 -29.0000 -15.2500 Du        
  20518 ****        -6.5000 -29.0000 -15.0000 Du        
  20519 ****        -6.5000 -29.0000 -14.7500 Du        
  20520 ****        -6.5000 -29.0000  -5.5000 Du        
  20521 ****        -6.5000 -29.0000  -5.2500 Du        
  20522 ****        -6.5000 -29.0000  -5.0000 Du        
  20523 ****        -6.5000 -29.0000  -4.7500 Du        
  20524 ****        -6.5000 -29.0000  -4.5000 Du        
  20525 ****        -6.5000 -29.0000  -4.2500 Du        
  20526 ****        -6.5000 -29.0000  -4.0000 Du        
  20527 ****        -6.5000 -29.0000  -3.7500 Du        
  20528 ****        -6.5000 -29.0000  -3.5000 Du        
  20529 ****        -6.5000 -29.0000  -3.2500 Du        
  20530 ****        -6.5000 -29.0000  -3.0000 Du        
  20531 ****        -6.5000 -28.7500 -15.5000 Du        
  20532 ****        -6.5000 -28.7500 -15.2500 Du        
  20533 ****        -6.5000 -28.7500 -15.0000 Du        
  20534 ****        -6.5000 -28.7500 -14.7500 Du        
  20535 ****        -6.5000 -28.7500 -14.5000 Du        
  20536 ****        -6.5000 -28.7500  -7.0000 Du        
  20537 ****        -6.5000 -28.7500  -6.7500 Du        
  20538 ****        -6.5000 -28.7500  -6.5000 Du        
  20539 ****        -6.5000 -28.7500  -6.2500 Du        
  20540 ****        -6.5000 -28.7500  -6.0000 Du        
  20541 ****        -6.5000 -28.7500  -5.7500 Du        
  20542 ****        -6.5000 -28.7500  -5.5000 Du        
  20543 ****        -6.5000 -28.7500  -5.2500 Du        
  20544 ****        -6.5000 -28.7500  -5.0000 Du        
  20545 ****        -6.5000 -28.7500  -4.7500 Du        
  20546 ****        -6.5000 -28.7500  -4.5000 Du        
  20547 ****        -6.5000 -28.7500  -4.2500 Du        
  20548 ****        -6.5000 -28.7500  -4.0000 Du        
  20549 ****        -6.5000 -28.7500  -3.7500 Du        
  20550 ****        -6.5000 -28.7500  -3.5000 Du        
  20551 ****        -6.5000 -28.7500  -3.2500 Du        
  20552 ****        -6.5000 -28.7500  -3.0000 Du        
  20553 ****        -6.5000 -28.7500  -2.7500 Du        
  20554 ****        -6.5000 -28.5000 -15.2500 Du        
  20555 ****        -6.5000 -28.5000 -15.0000 Du        
  20556 ****        -6.5000 -28.5000 -14.7500 Du        
  20557 ****        -6.5000 -28.5000 -14.5000 Du        
  20558 ****        -6.5000 -28.5000  -7.7500 Du        
  20559 ****        -6.5000 -28.5000  -7.5000 Du        
  20560 ****        -6.5000 -28.5000  -7.2500 Du        
  20561 ****        -6.5000 -28.5000  -7.0000 Du        
  20562 ****        -6.5000 -28.5000  -6.7500 Du        
  20563 ****        -6.5000 -28.5000  -6.5000 Du        
  20564 ****        -6.5000 -28.5000  -6.2500 Du        
  20565 ****        -6.5000 -28.5000  -6.0000 Du        
  20566 ****        -6.5000 -28.5000  -5.7500 Du        
  20567 ****        -6.5000 -28.5000  -5.5000 Du        
  20568 ****        -6.5000 -28.5000  -5.2500 Du        
  20569 ****        -6.5000 -28.5000  -5.0000 Du        
  20570 ****        -6.5000 -28.5000  -4.7500 Du        
  20571 ****        -6.5000 -28.5000  -4.5000 Du        
  20572 ****        -6.5000 -28.5000  -4.2500 Du        
  20573 ****        -6.5000 -28.5000  -4.0000 Du        
  20574 ****        -6.5000 -28.5000  -3.7500 Du        
  20575 ****        -6.5000 -28.5000  -3.5000 Du        
  20576 ****        -6.5000 -28.5000  -3.2500 Du        
  20577 ****        -6.5000 -28.5000  -3.0000 Du        
  20578 ****        -6.5000 -28.5000  -2.7500 Du        
  20579 ****        -6.5000 -28.2500 -15.2500 Du        
  20580 ****        -6.5000 -28.2500 -15.0000 Du        
  20581 ****        -6.5000 -28.2500 -14.7500 Du        
  20582 ****        -6.5000 -28.2500 -14.5000 Du        
  20583 ****        -6.5000 -28.2500  -7.5000 Du        
  20584 ****        -6.5000 -28.2500  -7.2500 Du        
  20585 ****        -6.5000 -28.2500  -7.0000 Du        
  20586 ****        -6.5000 -28.2500  -6.7500 Du        
  20587 ****        -6.5000 -28.2500  -6.5000 Du        
  20588 ****        -6.5000 -28.2500  -6.2500 Du        
  20589 ****        -6.5000 -28.2500  -6.0000 Du        
  20590 ****        -6.5000 -28.2500  -5.7500 Du        
  20591 ****        -6.5000 -28.2500  -4.7500 Du        
  20592 ****        -6.5000 -28.2500  -4.5000 Du        
  20593 ****        -6.5000 -28.2500  -4.2500 Du        
  20594 ****        -6.5000 -28.2500  -4.0000 Du        
  20595 ****        -6.5000 -28.2500  -3.7500 Du        
  20596 ****        -6.5000 -28.2500  -3.5000 Du        
  20597 ****        -6.5000 -28.2500  -3.2500 Du        
  20598 ****        -6.5000 -28.2500  -3.0000 Du        
  20599 ****        -6.5000 -28.2500  -2.7500 Du        
  20600 ****        -6.5000 -28.2500  -2.5000 Du        
  20601 ****        -6.5000 -28.0000 -15.2500 Du        
  20602 ****        -6.5000 -28.0000 -15.0000 Du        
  20603 ****        -6.5000 -28.0000 -14.7500 Du        
  20604 ****        -6.5000 -28.0000 -14.5000 Du        
  20605 ****        -6.5000 -28.0000 -14.2500 Du        
  20606 ****        -6.5000 -28.0000 -14.0000 Du        
  20607 ****        -6.5000 -28.0000 -13.7500 Du        
  20608 ****        -6.5000 -28.0000  -7.0000 Du        
  20609 ****        -6.5000 -28.0000  -6.7500 Du        
  20610 ****        -6.5000 -28.0000  -6.5000 Du        
  20611 ****        -6.5000 -28.0000  -4.0000 Du        
  20612 ****        -6.5000 -28.0000  -3.7500 Du        
  20613 ****        -6.5000 -28.0000  -3.5000 Du        
  20614 ****        -6.5000 -28.0000  -3.2500 Du        
  20615 ****        -6.5000 -28.0000  -3.0000 Du        
  20616 ****        -6.5000 -28.0000  -2.7500 Du        
  20617 ****        -6.5000 -28.0000  -2.5000 Du        
  20618 ****        -6.5000 -28.0000  -2.2500 Du        
  20619 ****        -6.5000 -27.7500 -15.2500 Du        
  20620 ****        -6.5000 -27.7500 -15.0000 Du        
  20621 ****        -6.5000 -27.7500 -14.7500 Du        
  20622 ****        -6.5000 -27.7500 -14.5000 Du        
  20623 ****        -6.5000 -27.7500 -14.2500 Du        
  20624 ****        -6.5000 -27.7500 -14.0000 Du        
  20625 ****        -6.5000 -27.7500 -13.7500 Du        
  20626 ****        -6.5000 -27.7500  -3.2500 Du        
  20627 ****        -6.5000 -27.7500  -3.0000 Du        
  20628 ****        -6.5000 -27.7500  -2.7500 Du        
  20629 ****        -6.5000 -27.7500  -2.5000 Du        
  20630 ****        -6.5000 -27.7500  -2.2500 Du        
  20631 ****        -6.5000 -27.7500  -2.0000 Du        
  20632 ****        -6.5000 -27.5000 -15.0000 Du        
  20633 ****        -6.5000 -27.5000 -14.7500 Du        
  20634 ****        -6.5000 -27.5000 -14.5000 Du        
  20635 ****        -6.5000 -27.5000 -14.2500 Du        
  20636 ****        -6.5000 -27.5000 -14.0000 Du        
  20637 ****        -6.5000 -27.5000  -2.7500 Du        
  20638 ****        -6.5000 -27.5000  -2.5000 Du        
  20639 ****        -6.5000 -27.5000  -2.2500 Du        
  20640 ****        -6.5000 -27.5000  -2.0000 Du        
  20641 ****        -6.5000 -27.5000  -1.7500 Du        
  20642 ****        -6.5000 -27.2500 -14.7500 Du        
  20643 ****        -6.5000 -27.2500 -14.5000 Du        
  20644 ****        -6.5000 -27.2500 -14.2500 Du        
  20645 ****        -6.5000 -27.2500 -14.0000 Du        
  20646 ****        -6.5000 -27.2500 -13.7500 Du        
  20647 ****        -6.5000 -27.2500  -2.5000 Du        
  20648 ****        -6.5000 -27.2500  -2.2500 Du        
  20649 ****        -6.5000 -27.2500  -2.0000 Du        
  20650 ****        -6.5000 -27.2500  -1.7500 Du        
  20651 ****        -6.5000 -27.2500  -1.5000 Du        
  20652 ****        -6.5000 -27.0000 -14.7500 Du        
  20653 ****        -6.5000 -27.0000 -14.5000 Du        
  20654 ****        -6.5000 -27.0000 -14.2500 Du        
  20655 ****        -6.5000 -27.0000 -14.0000 Du        
  20656 ****        -6.5000 -27.0000 -13.7500 Du        
  20657 ****        -6.5000 -27.0000  -2.0000 Du        
  20658 ****        -6.5000 -27.0000  -1.7500 Du        
  20659 ****        -6.5000 -26.7500 -14.2500 Du        
  20660 ****        -6.5000 -26.7500 -14.0000 Du        
  20661 ****        -6.5000 -26.7500 -13.7500 Du        
  20662 ****        -6.5000 -26.5000 -14.0000 Du        
  20663 ****        -6.5000 -26.5000 -13.7500 Du        
  20664 ****        -6.5000 -26.5000  -9.2500 Du        
  20665 ****        -6.5000 -26.5000  -9.0000 Du        
  20666 ****        -6.5000 -26.5000  -8.7500 Du        
  20667 ****        -6.5000 -26.5000  -8.5000 Du        
  20668 ****        -6.5000 -26.2500  -9.2500 Du        
  20669 ****        -6.5000 -26.2500  -9.0000 Du        
  20670 ****        -6.5000 -26.2500  -8.7500 Du        
  20671 ****        -6.5000 -26.2500  -8.5000 Du        
  20672 ****        -6.5000 -26.2500  -8.2500 Du        
  20673 ****        -6.5000 -26.0000 -28.2500 Du        
  20674 ****        -6.5000 -26.0000  -9.2500 Du        
  20675 ****        -6.5000 -26.0000  -9.0000 Du        
  20676 ****        -6.5000 -26.0000  -8.7500 Du        
  20677 ****        -6.5000 -26.0000  -8.5000 Du        
  20678 ****        -6.5000 -26.0000  -8.2500 Du        
  20679 ****        -6.5000 -25.7500 -28.2500 Du        
  20680 ****        -6.5000 -25.7500 -28.0000 Du        
  20681 ****        -6.5000 -25.7500  -9.0000 Du        
  20682 ****        -6.5000 -25.7500  -8.7500 Du        
  20683 ****        -6.5000 -25.7500  -8.5000 Du        
  20684 ****        -6.5000 -25.5000 -28.5000 Du        
  20685 ****        -6.5000 -25.5000 -28.2500 Du        
  20686 ****        -6.5000 -25.5000 -28.0000 Du        
  20687 ****        -6.5000 -25.5000 -27.7500 Du        
  20688 ****        -6.5000 -25.5000 -27.5000 Du        
  20689 ****        -6.5000 -25.2500 -28.5000 Du        
  20690 ****        -6.5000 -25.2500 -28.2500 Du        
  20691 ****        -6.5000 -25.2500 -28.0000 Du        
  20692 ****        -6.5000 -25.2500 -27.7500 Du        
  20693 ****        -6.5000 -25.2500 -27.5000 Du        
  20694 ****        -6.5000 -25.2500 -27.2500 Du        
  20695 ****        -6.5000 -25.0000 -28.7500 Du        
  20696 ****        -6.5000 -25.0000 -28.5000 Du        
  20697 ****        -6.5000 -25.0000 -28.2500 Du        
  20698 ****        -6.5000 -25.0000 -28.0000 Du        
  20699 ****        -6.5000 -25.0000 -27.7500 Du        
  20700 ****        -6.5000 -25.0000 -27.5000 Du        
  20701 ****        -6.5000 -25.0000 -27.2500 Du        
  20702 ****        -6.5000 -24.7500 -28.7500 Du        
  20703 ****        -6.5000 -24.7500 -28.5000 Du        
  20704 ****        -6.5000 -24.7500 -28.2500 Du        
  20705 ****        -6.5000 -24.7500 -28.0000 Du        
  20706 ****        -6.5000 -24.7500 -27.7500 Du        
  20707 ****        -6.5000 -24.7500 -27.5000 Du        
  20708 ****        -6.5000 -24.7500 -27.2500 Du        
  20709 ****        -6.5000 -24.7500 -27.0000 Du        
  20710 ****        -6.5000 -24.5000 -28.5000 Du        
  20711 ****        -6.5000 -24.5000 -28.2500 Du        
  20712 ****        -6.5000 -24.5000 -28.0000 Du        
  20713 ****        -6.5000 -24.5000 -27.7500 Du        
  20714 ****        -6.5000 -24.5000 -27.5000 Du        
  20715 ****        -6.5000 -24.5000 -27.2500 Du        
  20716 ****        -6.5000 -24.5000 -27.0000 Du        
  20717 ****        -6.5000 -24.2500 -28.5000 Du        
  20718 ****        -6.5000 -24.2500 -28.2500 Du        
  20719 ****        -6.5000 -24.2500 -28.0000 Du        
  20720 ****        -6.5000 -24.2500 -27.7500 Du        
  20721 ****        -6.5000 -24.2500 -27.5000 Du        
  20722 ****        -6.5000 -24.2500 -27.2500 Du        
  20723 ****        -6.5000 -24.2500 -27.0000 Du        
  20724 ****        -6.5000 -24.0000 -28.2500 Du        
  20725 ****        -6.5000 -24.0000 -28.0000 Du        
  20726 ****        -6.5000 -24.0000 -27.7500 Du        
  20727 ****        -6.5000 -24.0000 -27.5000 Du        
  20728 ****        -6.5000 -24.0000 -27.2500 Du        
  20729 ****        -6.5000 -23.7500 -28.2500 Du        
  20730 ****        -6.5000 -23.7500 -28.0000 Du        
  20731 ****        -6.5000 -23.7500 -27.7500 Du        
  20732 ****        -6.5000 -23.7500 -27.5000 Du        
  20733 ****        -6.5000 -23.7500 -27.2500 Du        
  20734 ****        -6.5000 -23.5000 -28.2500 Du        
  20735 ****        -6.5000 -23.5000 -28.0000 Du        
  20736 ****        -6.5000 -23.5000 -27.7500 Du        
  20737 ****        -6.5000 -23.5000 -27.5000 Du        
  20738 ****        -6.5000 -23.5000 -27.2500 Du        
  20739 ****        -6.5000 -23.2500 -28.2500 Du        
  20740 ****        -6.5000 -23.2500 -28.0000 Du        
  20741 ****        -6.5000 -23.2500 -27.7500 Du        
  20742 ****        -6.5000 -23.2500 -27.5000 Du        
  20743 ****        -6.5000 -23.2500 -27.2500 Du        
  20744 ****        -6.5000 -23.0000 -28.2500 Du        
  20745 ****        -6.5000 -23.0000 -28.0000 Du        
  20746 ****        -6.5000 -23.0000 -27.5000 Du        
  20747 ****        -6.5000 -23.0000 -27.2500 Du        
  20748 ****        -6.5000 -22.7500 -29.0000 Du        
  20749 ****        -6.5000 -22.5000 -29.5000 Du        
  20750 ****        -6.5000 -22.5000 -29.2500 Du        
  20751 ****        -6.5000 -22.5000 -29.0000 Du        
  20752 ****        -6.5000 -22.5000 -28.7500 Du        
  20753 ****        -6.5000 -22.2500 -29.7500 Du        
  20754 ****        -6.5000 -22.2500 -29.5000 Du        
  20755 ****        -6.5000 -22.2500 -29.2500 Du        
  20756 ****        -6.5000 -22.2500 -29.0000 Du        
  20757 ****        -6.5000 -22.2500 -28.7500 Du        
  20758 ****        -6.5000 -22.0000 -30.0000 Du        
  20759 ****        -6.5000 -22.0000 -29.7500 Du        
  20760 ****        -6.5000 -22.0000 -29.5000 Du        
  20761 ****        -6.5000 -22.0000 -29.2500 Du        
  20762 ****        -6.5000 -22.0000 -29.0000 Du        
  20763 ****        -6.5000 -22.0000 -28.7500 Du        
  20764 ****        -6.5000 -21.7500 -30.0000 Du        
  20765 ****        -6.5000 -21.7500 -29.7500 Du        
  20766 ****        -6.5000 -21.7500 -29.5000 Du        
  20767 ****        -6.5000 -21.7500 -29.2500 Du        
  20768 ****        -6.5000 -21.7500 -29.0000 Du        
  20769 ****        -6.5000 -21.7500 -28.7500 Du        
  20770 ****        -6.5000 -21.5000 -30.0000 Du        
  20771 ****        -6.5000 -21.5000 -29.7500 Du        
  20772 ****        -6.5000 -21.5000 -29.5000 Du        
  20773 ****        -6.5000 -21.5000 -29.2500 Du        
  20774 ****        -6.5000 -21.5000 -29.0000 Du        
  20775 ****        -6.5000 -21.5000 -28.7500 Du        
  20776 ****        -6.5000 -21.2500 -30.0000 Du        
  20777 ****        -6.5000 -21.2500 -29.7500 Du        
  20778 ****        -6.5000 -21.2500 -29.5000 Du        
  20779 ****        -6.5000 -21.2500 -29.2500 Du        
  20780 ****        -6.5000 -21.2500 -29.0000 Du        
  20781 ****        -6.5000 -21.2500 -28.7500 Du        
  20782 ****        -6.5000 -21.0000 -29.7500 Du        
  20783 ****        -6.5000 -21.0000 -29.5000 Du        
  20784 ****        -6.5000 -21.0000 -29.2500 Du        
  20785 ****        -6.5000 -21.0000 -29.0000 Du        
  20786 ****        -6.5000 -21.0000 -28.7500 Du        
  20787 ****        -6.5000 -20.7500 -29.7500 Du        
  20788 ****        -6.5000 -20.7500 -29.5000 Du        
  20789 ****        -6.5000 -20.7500 -29.2500 Du        
  20790 ****        -6.5000 -20.7500 -29.0000 Du        
  20791 ****        -6.5000 -20.7500 -28.7500 Du        
  20792 ****        -6.5000 -20.5000 -29.7500 Du        
  20793 ****        -6.5000 -20.5000 -29.5000 Du        
  20794 ****        -6.5000 -20.5000 -29.2500 Du        
  20795 ****        -6.5000 -20.5000 -29.0000 Du        
  20796 ****        -6.5000 -20.5000 -28.7500 Du        
  20797 ****        -6.5000 -20.5000 -28.5000 Du        
  20798 ****        -6.5000 -20.5000 -28.2500 Du        
  20799 ****        -6.5000 -20.2500 -29.7500 Du        
  20800 ****        -6.5000 -20.2500 -29.5000 Du        
  20801 ****        -6.5000 -20.2500 -29.2500 Du        
  20802 ****        -6.5000 -20.2500 -29.0000 Du        
  20803 ****        -6.5000 -20.2500 -28.7500 Du        
  20804 ****        -6.5000 -20.2500 -28.5000 Du        
  20805 ****        -6.5000 -20.2500 -28.2500 Du        
  20806 ****        -6.5000 -20.0000 -29.7500 Du        
  20807 ****        -6.5000 -20.0000 -29.5000 Du        
  20808 ****        -6.5000 -20.0000 -29.2500 Du        
  20809 ****        -6.5000 -20.0000 -29.0000 Du        
  20810 ****        -6.5000 -20.0000 -28.7500 Du        
  20811 ****        -6.5000 -20.0000 -28.5000 Du        
  20812 ****        -6.5000 -19.7500 -29.7500 Du        
  20813 ****        -6.5000 -19.7500 -29.5000 Du        
  20814 ****        -6.5000 -19.7500 -29.2500 Du        
  20815 ****        -6.5000 -19.7500 -29.0000 Du        
  20816 ****        -6.5000 -19.7500 -28.7500 Du        
  20817 ****        -6.5000 -19.7500 -28.5000 Du        
  20818 ****        -6.5000 -19.5000 -29.7500 Du        
  20819 ****        -6.5000 -19.5000 -29.5000 Du        
  20820 ****        -6.5000 -19.5000 -29.2500 Du        
  20821 ****        -6.5000 -19.5000 -29.0000 Du        
  20822 ****        -6.5000 -19.5000 -28.7500 Du        
  20823 ****        -6.5000 -19.5000 -28.5000 Du        
  20824 ****        -6.5000 -19.5000 -28.2500 Du        
  20825 ****        -6.5000 -19.2500 -29.7500 Du        
  20826 ****        -6.5000 -19.2500 -29.5000 Du        
  20827 ****        -6.5000 -19.2500 -29.2500 Du        
  20828 ****        -6.5000 -19.2500 -29.0000 Du        
  20829 ****        -6.5000 -19.2500 -28.7500 Du        
  20830 ****        -6.5000 -19.2500 -28.5000 Du        
  20831 ****        -6.5000 -19.2500 -28.2500 Du        
  20832 ****        -6.5000 -19.0000 -29.5000 Du        
  20833 ****        -6.5000 -19.0000 -29.2500 Du        
  20834 ****        -6.5000 -19.0000 -29.0000 Du        
  20835 ****        -6.5000 -19.0000 -28.7500 Du        
  20836 ****        -6.5000 -19.0000 -28.5000 Du        
  20837 ****        -6.5000 -19.0000 -28.2500 Du        
  20838 ****        -6.5000 -18.7500 -29.5000 Du        
  20839 ****        -6.5000 -18.7500 -29.2500 Du        
  20840 ****        -6.5000 -18.7500 -29.0000 Du        
  20841 ****        -6.5000 -18.7500 -28.7500 Du        
  20842 ****        -6.5000 -18.7500 -28.5000 Du        
  20843 ****        -6.5000 -18.7500 -28.2500 Du        
  20844 ****        -6.5000 -18.5000 -29.5000 Du        
  20845 ****        -6.5000 -18.5000 -29.2500 Du        
  20846 ****        -6.5000 -18.5000 -29.0000 Du        
  20847 ****        -6.5000 -18.5000 -28.7500 Du        
  20848 ****        -6.5000 -18.5000 -28.5000 Du        
  20849 ****        -6.5000 -18.2500 -29.5000 Du        
  20850 ****        -6.5000 -18.2500 -29.2500 Du        
  20851 ****        -6.5000 -18.2500 -29.0000 Du        
  20852 ****        -6.5000 -18.2500 -28.7500 Du        
  20853 ****        -6.5000 -18.2500 -28.5000 Du        
  20854 ****        -6.5000 -18.2500 -28.2500 Du        
  20855 ****        -6.5000 -18.0000 -29.2500 Du        
  20856 ****        -6.5000 -18.0000 -29.0000 Du        
  20857 ****        -6.5000 -18.0000 -28.7500 Du        
  20858 ****        -6.5000 -18.0000 -28.5000 Du        
  20859 ****        -6.5000 -18.0000 -28.2500 Du        
  20860 ****        -6.5000 -17.7500 -29.2500 Du        
  20861 ****        -6.5000 -17.7500 -29.0000 Du        
  20862 ****        -6.5000 -17.7500 -28.7500 Du        
  20863 ****        -6.5000 -17.7500 -28.5000 Du        
  20864 ****        -6.5000 -17.7500 -28.2500 Du        
  20865 ****        -6.5000 -17.5000 -29.2500 Du        
  20866 ****        -6.5000 -17.5000 -29.0000 Du        
  20867 ****        -6.5000 -17.5000 -28.7500 Du        
  20868 ****        -6.5000 -17.2500 -29.0000 Du        
  20869 ****        -6.5000 -17.2500 -28.7500 Du        
  20870 ****        -6.5000 -17.2500 -17.7500 Du        
  20871 ****        -6.5000 -17.0000 -18.2500 Du        
  20872 ****        -6.5000 -17.0000 -18.0000 Du        
  20873 ****        -6.5000 -17.0000 -17.7500 Du        
  20874 ****        -6.5000 -16.7500 -18.2500 Du        
  20875 ****        -6.5000 -16.7500 -18.0000 Du        
  20876 ****        -6.5000 -16.7500 -17.7500 Du        
  20877 ****        -6.5000   2.7500 -27.7500 Du        
  20878 ****        -6.5000   2.7500 -27.5000 Du        
  20879 ****        -6.5000   2.7500 -27.2500 Du        
  20880 ****        -6.5000   2.7500 -27.0000 Du        
  20881 ****        -6.5000   2.7500 -26.7500 Du        
  20882 ****        -6.5000   4.7500 -16.5000 Du        
  20883 ****        -6.5000   4.7500 -16.2500 Du        
  20884 ****        -6.5000   4.7500 -16.0000 Du        
  20885 ****        -6.5000   4.7500 -15.7500 Du        
  20886 ****        -6.5000   4.7500 -15.5000 Du        
  20887 ****        -6.5000   5.0000 -17.2500 Du        
  20888 ****        -6.5000   5.0000 -17.0000 Du        
  20889 ****        -6.5000   5.0000 -16.7500 Du        
  20890 ****        -6.5000   5.0000 -16.5000 Du        
  20891 ****        -6.5000   5.0000 -16.2500 Du        
  20892 ****        -6.5000   5.0000 -16.0000 Du        
  20893 ****        -6.5000   5.0000 -15.7500 Du        
  20894 ****        -6.5000   5.0000 -15.5000 Du        
  20895 ****        -6.5000   5.2500 -17.5000 Du        
  20896 ****        -6.5000   5.2500 -17.2500 Du        
  20897 ****        -6.5000   5.2500 -17.0000 Du        
  20898 ****        -6.5000   5.2500 -16.7500 Du        
  20899 ****        -6.5000   5.2500 -16.5000 Du        
  20900 ****        -6.5000   5.2500 -16.2500 Du        
  20901 ****        -6.5000   5.2500 -16.0000 Du        
  20902 ****        -6.5000   5.2500 -15.7500 Du        
  20903 ****        -6.5000   5.2500 -15.5000 Du        
  20904 ****        -6.5000   5.5000 -17.2500 Du        
  20905 ****        -6.5000   5.5000 -17.0000 Du        
  20906 ****        -6.5000   5.5000 -16.7500 Du        
  20907 ****        -6.5000   5.5000 -16.5000 Du        
  20908 ****        -6.5000   5.5000 -16.2500 Du        
  20909 ****        -6.5000   5.5000 -16.0000 Du        
  20910 ****        -6.5000   5.7500 -17.2500 Du        
  20911 ****        -6.5000   5.7500 -17.0000 Du        
  20912 ****        -6.5000   5.7500 -16.7500 Du        
  20913 ****        -6.5000   5.7500 -16.5000 Du        
  20914 ****        -6.5000   5.7500 -16.2500 Du        
  20915 ****        -6.5000   6.0000 -17.0000 Du        
  20916 ****        -6.5000   6.0000 -16.7500 Du        
  20917 ****        -6.5000   6.0000 -16.5000 Du        
  20918 ****        -6.5000   6.2500 -17.0000 Du        
  20919 ****        -6.2500 -29.0000 -15.5000 Du        
  20920 ****        -6.2500 -29.0000 -15.2500 Du        
  20921 ****        -6.2500 -29.0000 -15.0000 Du        
  20922 ****        -6.2500 -29.0000 -14.7500 Du        
  20923 ****        -6.2500 -29.0000  -4.7500 Du        
  20924 ****        -6.2500 -29.0000  -4.5000 Du        
  20925 ****        -6.2500 -29.0000  -4.2500 Du        
  20926 ****        -6.2500 -29.0000  -4.0000 Du        
  20927 ****        -6.2500 -29.0000  -3.7500 Du        
  20928 ****        -6.2500 -29.0000  -3.5000 Du        
  20929 ****        -6.2500 -29.0000  -3.2500 Du        
  20930 ****        -6.2500 -29.0000  -3.0000 Du        
  20931 ****        -6.2500 -28.7500 -15.2500 Du        
  20932 ****        -6.2500 -28.7500 -15.0000 Du        
  20933 ****        -6.2500 -28.7500 -14.7500 Du        
  20934 ****        -6.2500 -28.7500  -6.7500 Du        
  20935 ****        -6.2500 -28.7500  -5.7500 Du        
  20936 ****        -6.2500 -28.7500  -5.5000 Du        
  20937 ****        -6.2500 -28.7500  -5.2500 Du        
  20938 ****        -6.2500 -28.7500  -5.0000 Du        
  20939 ****        -6.2500 -28.7500  -4.7500 Du        
  20940 ****        -6.2500 -28.7500  -4.5000 Du        
  20941 ****        -6.2500 -28.7500  -4.2500 Du        
  20942 ****        -6.2500 -28.7500  -4.0000 Du        
  20943 ****        -6.2500 -28.7500  -3.7500 Du        
  20944 ****        -6.2500 -28.7500  -3.5000 Du        
  20945 ****        -6.2500 -28.7500  -3.2500 Du        
  20946 ****        -6.2500 -28.7500  -3.0000 Du        
  20947 ****        -6.2500 -28.7500  -2.7500 Du        
  20948 ****        -6.2500 -28.5000 -15.2500 Du        
  20949 ****        -6.2500 -28.5000 -15.0000 Du        
  20950 ****        -6.2500 -28.5000 -14.7500 Du        
  20951 ****        -6.2500 -28.5000  -7.0000 Du        
  20952 ****        -6.2500 -28.5000  -6.7500 Du        
  20953 ****        -6.2500 -28.5000  -6.5000 Du        
  20954 ****        -6.2500 -28.5000  -6.2500 Du        
  20955 ****        -6.2500 -28.5000  -6.0000 Du        
  20956 ****        -6.2500 -28.5000  -5.7500 Du        
  20957 ****        -6.2500 -28.5000  -5.5000 Du        
  20958 ****        -6.2500 -28.5000  -5.2500 Du        
  20959 ****        -6.2500 -28.5000  -5.0000 Du        
  20960 ****        -6.2500 -28.5000  -4.7500 Du        
  20961 ****        -6.2500 -28.5000  -4.5000 Du        
  20962 ****        -6.2500 -28.5000  -4.2500 Du        
  20963 ****        -6.2500 -28.5000  -4.0000 Du        
  20964 ****        -6.2500 -28.5000  -3.7500 Du        
  20965 ****        -6.2500 -28.5000  -3.5000 Du        
  20966 ****        -6.2500 -28.5000  -3.2500 Du        
  20967 ****        -6.2500 -28.5000  -3.0000 Du        
  20968 ****        -6.2500 -28.5000  -2.7500 Du        
  20969 ****        -6.2500 -28.2500 -15.2500 Du        
  20970 ****        -6.2500 -28.2500 -15.0000 Du        
  20971 ****        -6.2500 -28.2500 -14.7500 Du        
  20972 ****        -6.2500 -28.2500  -6.7500 Du        
  20973 ****        -6.2500 -28.2500  -6.5000 Du        
  20974 ****        -6.2500 -28.2500  -6.2500 Du        
  20975 ****        -6.2500 -28.2500  -6.0000 Du        
  20976 ****        -6.2500 -28.2500  -5.2500 Du        
  20977 ****        -6.2500 -28.2500  -5.0000 Du        
  20978 ****        -6.2500 -28.2500  -4.7500 Du        
  20979 ****        -6.2500 -28.2500  -4.5000 Du        
  20980 ****        -6.2500 -28.2500  -4.2500 Du        
  20981 ****        -6.2500 -28.2500  -4.0000 Du        
  20982 ****        -6.2500 -28.2500  -3.7500 Du        
  20983 ****        -6.2500 -28.2500  -3.5000 Du        
  20984 ****        -6.2500 -28.2500  -3.2500 Du        
  20985 ****        -6.2500 -28.2500  -3.0000 Du        
  20986 ****        -6.2500 -28.2500  -2.7500 Du        
  20987 ****        -6.2500 -28.2500  -2.5000 Du        
  20988 ****        -6.2500 -28.0000 -15.0000 Du        
  20989 ****        -6.2500 -28.0000 -14.7500 Du        
  20990 ****        -6.2500 -28.0000 -14.5000 Du        
  20991 ****        -6.2500 -28.0000 -14.2500 Du        
  20992 ****        -6.2500 -28.0000 -14.0000 Du        
  20993 ****        -6.2500 -28.0000 -13.7500 Du        
  20994 ****        -6.2500 -28.0000  -4.0000 Du        
  20995 ****        -6.2500 -28.0000  -3.7500 Du        
  20996 ****        -6.2500 -28.0000  -3.5000 Du        
  20997 ****        -6.2500 -28.0000  -3.2500 Du        
  20998 ****        -6.2500 -28.0000  -3.0000 Du        
  20999 ****        -6.2500 -28.0000  -2.7500 Du        
  21000 ****        -6.2500 -28.0000  -2.5000 Du        
  21001 ****        -6.2500 -28.0000  -2.2500 Du        
  21002 ****        -6.2500 -27.7500 -15.0000 Du        
  21003 ****        -6.2500 -27.7500 -14.7500 Du        
  21004 ****        -6.2500 -27.7500 -14.5000 Du        
  21005 ****        -6.2500 -27.7500 -14.2500 Du        
  21006 ****        -6.2500 -27.7500 -14.0000 Du        
  21007 ****        -6.2500 -27.7500 -13.7500 Du        
  21008 ****        -6.2500 -27.7500  -3.2500 Du        
  21009 ****        -6.2500 -27.7500  -3.0000 Du        
  21010 ****        -6.2500 -27.7500  -2.7500 Du        
  21011 ****        -6.2500 -27.7500  -2.5000 Du        
  21012 ****        -6.2500 -27.7500  -2.2500 Du        
  21013 ****        -6.2500 -27.7500  -2.0000 Du        
  21014 ****        -6.2500 -27.5000 -14.7500 Du        
  21015 ****        -6.2500 -27.5000 -14.5000 Du        
  21016 ****        -6.2500 -27.5000 -14.2500 Du        
  21017 ****        -6.2500 -27.5000 -14.0000 Du        
  21018 ****        -6.2500 -27.5000 -13.7500 Du        
  21019 ****        -6.2500 -27.5000  -2.7500 Du        
  21020 ****        -6.2500 -27.5000  -2.5000 Du        
  21021 ****        -6.2500 -27.5000  -2.2500 Du        
  21022 ****        -6.2500 -27.5000  -2.0000 Du        
  21023 ****        -6.2500 -27.5000  -1.7500 Du        
  21024 ****        -6.2500 -27.2500 -14.7500 Du        
  21025 ****        -6.2500 -27.2500 -14.5000 Du        
  21026 ****        -6.2500 -27.2500 -14.2500 Du        
  21027 ****        -6.2500 -27.2500 -14.0000 Du        
  21028 ****        -6.2500 -27.2500 -13.7500 Du        
  21029 ****        -6.2500 -27.2500  -2.5000 Du        
  21030 ****        -6.2500 -27.2500  -2.2500 Du        
  21031 ****        -6.2500 -27.2500  -2.0000 Du        
  21032 ****        -6.2500 -27.2500  -1.7500 Du        
  21033 ****        -6.2500 -27.2500  -1.5000 Du        
  21034 ****        -6.2500 -27.0000 -14.7500 Du        
  21035 ****        -6.2500 -27.0000 -14.5000 Du        
  21036 ****        -6.2500 -27.0000 -14.2500 Du        
  21037 ****        -6.2500 -27.0000 -14.0000 Du        
  21038 ****        -6.2500 -27.0000 -13.7500 Du        
  21039 ****        -6.2500 -27.0000  -2.2500 Du        
  21040 ****        -6.2500 -27.0000  -2.0000 Du        
  21041 ****        -6.2500 -27.0000  -1.7500 Du        
  21042 ****        -6.2500 -27.0000  -1.5000 Du        
  21043 ****        -6.2500 -26.7500 -14.2500 Du        
  21044 ****        -6.2500 -26.7500 -14.0000 Du        
  21045 ****        -6.2500 -26.7500 -13.7500 Du        
  21046 ****        -6.2500 -26.7500 -13.5000 Du        
  21047 ****        -6.2500 -26.7500 -13.2500 Du        
  21048 ****        -6.2500 -26.7500  -2.0000 Du        
  21049 ****        -6.2500 -26.7500  -1.7500 Du        
  21050 ****        -6.2500 -26.7500  -1.5000 Du        
  21051 ****        -6.2500 -26.5000 -14.0000 Du        
  21052 ****        -6.2500 -26.5000 -13.7500 Du        
  21053 ****        -6.2500 -26.5000 -13.5000 Du        
  21054 ****        -6.2500 -26.5000 -13.2500 Du        
  21055 ****        -6.2500 -26.5000 -13.0000 Du        
  21056 ****        -6.2500 -26.2500 -14.0000 Du        
  21057 ****        -6.2500 -26.2500 -13.7500 Du        
  21058 ****        -6.2500 -26.2500 -13.5000 Du        
  21059 ****        -6.2500 -26.0000 -28.2500 Du        
  21060 ****        -6.2500 -25.7500 -28.2500 Du        
  21061 ****        -6.2500 -25.7500 -28.0000 Du        
  21062 ****        -6.2500 -25.5000 -28.7500 Du        
  21063 ****        -6.2500 -25.5000 -28.5000 Du        
  21064 ****        -6.2500 -25.5000 -28.2500 Du        
  21065 ****        -6.2500 -25.5000 -28.0000 Du        
  21066 ****        -6.2500 -25.5000 -27.7500 Du        
  21067 ****        -6.2500 -25.2500 -28.7500 Du        
  21068 ****        -6.2500 -25.2500 -28.5000 Du        
  21069 ****        -6.2500 -25.2500 -28.2500 Du        
  21070 ****        -6.2500 -25.2500 -28.0000 Du        
  21071 ****        -6.2500 -25.2500 -27.7500 Du        
  21072 ****        -6.2500 -25.2500 -27.5000 Du        
  21073 ****        -6.2500 -25.0000 -29.0000 Du        
  21074 ****        -6.2500 -25.0000 -28.7500 Du        
  21075 ****        -6.2500 -25.0000 -28.5000 Du        
  21076 ****        -6.2500 -25.0000 -28.2500 Du        
  21077 ****        -6.2500 -25.0000 -28.0000 Du        
  21078 ****        -6.2500 -25.0000 -27.7500 Du        
  21079 ****        -6.2500 -25.0000 -27.5000 Du        
  21080 ****        -6.2500 -25.0000 -27.2500 Du        
  21081 ****        -6.2500 -24.7500 -28.7500 Du        
  21082 ****        -6.2500 -24.7500 -28.5000 Du        
  21083 ****        -6.2500 -24.7500 -28.2500 Du        
  21084 ****        -6.2500 -24.7500 -28.0000 Du        
  21085 ****        -6.2500 -24.7500 -27.7500 Du        
  21086 ****        -6.2500 -24.7500 -27.5000 Du        
  21087 ****        -6.2500 -24.7500 -27.2500 Du        
  21088 ****        -6.2500 -24.7500 -27.0000 Du        
  21089 ****        -6.2500 -24.5000 -28.5000 Du        
  21090 ****        -6.2500 -24.5000 -28.2500 Du        
  21091 ****        -6.2500 -24.5000 -28.0000 Du        
  21092 ****        -6.2500 -24.5000 -27.7500 Du        
  21093 ****        -6.2500 -24.5000 -27.5000 Du        
  21094 ****        -6.2500 -24.5000 -27.2500 Du        
  21095 ****        -6.2500 -24.5000   2.2500 Du        
  21096 ****        -6.2500 -24.5000   2.5000 Du        
  21097 ****        -6.2500 -24.2500 -28.5000 Du        
  21098 ****        -6.2500 -24.2500 -28.2500 Du        
  21099 ****        -6.2500 -24.2500 -28.0000 Du        
  21100 ****        -6.2500 -24.2500 -27.7500 Du        
  21101 ****        -6.2500 -24.2500 -27.5000 Du        
  21102 ****        -6.2500 -24.2500 -27.2500 Du        
  21103 ****        -6.2500 -24.2500 -27.0000 Du        
  21104 ****        -6.2500 -24.2500   2.0000 Du        
  21105 ****        -6.2500 -24.2500   2.2500 Du        
  21106 ****        -6.2500 -24.2500   2.5000 Du        
  21107 ****        -6.2500 -24.0000 -28.5000 Du        
  21108 ****        -6.2500 -24.0000 -28.2500 Du        
  21109 ****        -6.2500 -24.0000 -28.0000 Du        
  21110 ****        -6.2500 -24.0000 -27.7500 Du        
  21111 ****        -6.2500 -24.0000 -27.5000 Du        
  21112 ****        -6.2500 -24.0000 -27.2500 Du        
  21113 ****        -6.2500 -24.0000 -27.0000 Du        
  21114 ****        -6.2500 -24.0000   2.0000 Du        
  21115 ****        -6.2500 -24.0000   2.2500 Du        
  21116 ****        -6.2500 -24.0000   2.5000 Du        
  21117 ****        -6.2500 -23.7500 -28.5000 Du        
  21118 ****        -6.2500 -23.7500 -28.2500 Du        
  21119 ****        -6.2500 -23.7500 -28.0000 Du        
  21120 ****        -6.2500 -23.7500 -27.7500 Du        
  21121 ****        -6.2500 -23.7500 -27.5000 Du        
  21122 ****        -6.2500 -23.7500 -27.2500 Du        
  21123 ****        -6.2500 -23.7500 -27.0000 Du        
  21124 ****        -6.2500 -23.7500   2.0000 Du        
  21125 ****        -6.2500 -23.7500   2.2500 Du        
  21126 ****        -6.2500 -23.5000 -28.5000 Du        
  21127 ****        -6.2500 -23.5000 -28.2500 Du        
  21128 ****        -6.2500 -23.5000 -28.0000 Du        
  21129 ****        -6.2500 -23.5000 -27.7500 Du        
  21130 ****        -6.2500 -23.5000 -27.5000 Du        
  21131 ****        -6.2500 -23.5000 -27.2500 Du        
  21132 ****        -6.2500 -23.5000   2.0000 Du        
  21133 ****        -6.2500 -23.5000   2.2500 Du        
  21134 ****        -6.2500 -23.2500 -28.5000 Du        
  21135 ****        -6.2500 -23.2500 -28.2500 Du        
  21136 ****        -6.2500 -23.2500 -28.0000 Du        
  21137 ****        -6.2500 -23.2500 -27.7500 Du        
  21138 ****        -6.2500 -23.2500 -27.5000 Du        
  21139 ****        -6.2500 -23.2500 -27.2500 Du        
  21140 ****        -6.2500 -23.0000 -29.0000 Du        
  21141 ****        -6.2500 -23.0000 -28.2500 Du        
  21142 ****        -6.2500 -23.0000 -28.0000 Du        
  21143 ****        -6.2500 -23.0000 -27.5000 Du        
  21144 ****        -6.2500 -22.7500 -29.2500 Du        
  21145 ****        -6.2500 -22.7500 -29.0000 Du        
  21146 ****        -6.2500 -22.7500 -28.7500 Du        
  21147 ****        -6.2500 -22.5000 -29.7500 Du        
  21148 ****        -6.2500 -22.5000 -29.5000 Du        
  21149 ****        -6.2500 -22.5000 -29.2500 Du        
  21150 ****        -6.2500 -22.5000 -29.0000 Du        
  21151 ****        -6.2500 -22.5000 -28.7500 Du        
  21152 ****        -6.2500 -22.2500 -29.7500 Du        
  21153 ****        -6.2500 -22.2500 -29.5000 Du        
  21154 ****        -6.2500 -22.2500 -29.2500 Du        
  21155 ****        -6.2500 -22.2500 -29.0000 Du        
  21156 ****        -6.2500 -22.2500 -28.7500 Du        
  21157 ****        -6.2500 -22.0000 -30.0000 Du        
  21158 ****        -6.2500 -22.0000 -29.7500 Du        
  21159 ****        -6.2500 -22.0000 -29.5000 Du        
  21160 ****        -6.2500 -22.0000 -29.2500 Du        
  21161 ****        -6.2500 -22.0000 -29.0000 Du        
  21162 ****        -6.2500 -22.0000 -28.7500 Du        
  21163 ****        -6.2500 -21.7500 -30.0000 Du        
  21164 ****        -6.2500 -21.7500 -29.7500 Du        
  21165 ****        -6.2500 -21.7500 -29.5000 Du        
  21166 ****        -6.2500 -21.7500 -29.2500 Du        
  21167 ****        -6.2500 -21.7500 -29.0000 Du        
  21168 ****        -6.2500 -21.7500 -28.7500 Du        
  21169 ****        -6.2500 -21.5000 -29.7500 Du        
  21170 ****        -6.2500 -21.5000 -29.5000 Du        
  21171 ****        -6.2500 -21.5000 -29.2500 Du        
  21172 ****        -6.2500 -21.5000 -29.0000 Du        
  21173 ****        -6.2500 -21.5000 -28.7500 Du        
  21174 ****        -6.2500 -21.2500 -29.7500 Du        
  21175 ****        -6.2500 -21.2500 -29.5000 Du        
  21176 ****        -6.2500 -21.2500 -29.2500 Du        
  21177 ****        -6.2500 -21.2500 -29.0000 Du        
  21178 ****        -6.2500 -21.2500 -28.7500 Du        
  21179 ****        -6.2500 -21.0000 -29.7500 Du        
  21180 ****        -6.2500 -21.0000 -29.5000 Du        
  21181 ****        -6.2500 -21.0000 -29.2500 Du        
  21182 ****        -6.2500 -21.0000 -29.0000 Du        
  21183 ****        -6.2500 -21.0000 -28.7500 Du        
  21184 ****        -6.2500 -21.0000 -28.5000 Du        
  21185 ****        -6.2500 -20.7500 -29.7500 Du        
  21186 ****        -6.2500 -20.7500 -29.5000 Du        
  21187 ****        -6.2500 -20.7500 -29.2500 Du        
  21188 ****        -6.2500 -20.7500 -29.0000 Du        
  21189 ****        -6.2500 -20.7500 -28.7500 Du        
  21190 ****        -6.2500 -20.7500 -28.5000 Du        
  21191 ****        -6.2500 -20.5000 -29.7500 Du        
  21192 ****        -6.2500 -20.5000 -29.5000 Du        
  21193 ****        -6.2500 -20.5000 -29.2500 Du        
  21194 ****        -6.2500 -20.5000 -29.0000 Du        
  21195 ****        -6.2500 -20.5000 -28.7500 Du        
  21196 ****        -6.2500 -20.5000 -28.5000 Du        
  21197 ****        -6.2500 -20.5000 -28.2500 Du        
  21198 ****        -6.2500 -20.2500 -29.7500 Du        
  21199 ****        -6.2500 -20.2500 -29.5000 Du        
  21200 ****        -6.2500 -20.2500 -29.2500 Du        
  21201 ****        -6.2500 -20.2500 -29.0000 Du        
  21202 ****        -6.2500 -20.2500 -28.7500 Du        
  21203 ****        -6.2500 -20.2500 -28.5000 Du        
  21204 ****        -6.2500 -20.2500 -28.2500 Du        
  21205 ****        -6.2500 -20.0000 -29.7500 Du        
  21206 ****        -6.2500 -20.0000 -29.5000 Du        
  21207 ****        -6.2500 -20.0000 -29.2500 Du        
  21208 ****        -6.2500 -20.0000 -29.0000 Du        
  21209 ****        -6.2500 -20.0000 -28.7500 Du        
  21210 ****        -6.2500 -20.0000 -28.5000 Du        
  21211 ****        -6.2500 -20.0000 -28.2500 Du        
  21212 ****        -6.2500 -19.7500 -29.5000 Du        
  21213 ****        -6.2500 -19.7500 -29.2500 Du        
  21214 ****        -6.2500 -19.7500 -29.0000 Du        
  21215 ****        -6.2500 -19.7500 -28.7500 Du        
  21216 ****        -6.2500 -19.7500 -28.5000 Du        
  21217 ****        -6.2500 -19.7500 -28.2500 Du        
  21218 ****        -6.2500 -19.5000 -29.5000 Du        
  21219 ****        -6.2500 -19.5000 -29.2500 Du        
  21220 ****        -6.2500 -19.5000 -29.0000 Du        
  21221 ****        -6.2500 -19.5000 -28.7500 Du        
  21222 ****        -6.2500 -19.5000 -28.5000 Du        
  21223 ****        -6.2500 -19.5000 -28.2500 Du        
  21224 ****        -6.2500 -19.2500 -29.5000 Du        
  21225 ****        -6.2500 -19.2500 -29.2500 Du        
  21226 ****        -6.2500 -19.2500 -29.0000 Du        
  21227 ****        -6.2500 -19.2500 -28.7500 Du        
  21228 ****        -6.2500 -19.2500 -28.5000 Du        
  21229 ****        -6.2500 -19.2500 -28.2500 Du        
  21230 ****        -6.2500 -19.0000 -29.5000 Du        
  21231 ****        -6.2500 -19.0000 -29.2500 Du        
  21232 ****        -6.2500 -19.0000 -29.0000 Du        
  21233 ****        -6.2500 -19.0000 -28.7500 Du        
  21234 ****        -6.2500 -19.0000 -28.5000 Du        
  21235 ****        -6.2500 -19.0000 -28.2500 Du        
  21236 ****        -6.2500 -19.0000 -28.0000 Du        
  21237 ****        -6.2500 -18.7500 -29.2500 Du        
  21238 ****        -6.2500 -18.7500 -29.0000 Du        
  21239 ****        -6.2500 -18.7500 -28.7500 Du        
  21240 ****        -6.2500 -18.7500 -28.5000 Du        
  21241 ****        -6.2500 -18.7500 -28.2500 Du        
  21242 ****        -6.2500 -18.7500 -28.0000 Du        
  21243 ****        -6.2500 -18.5000 -29.2500 Du        
  21244 ****        -6.2500 -18.5000 -29.0000 Du        
  21245 ****        -6.2500 -18.5000 -28.7500 Du        
  21246 ****        -6.2500 -18.5000 -28.5000 Du        
  21247 ****        -6.2500 -18.5000 -28.2500 Du        
  21248 ****        -6.2500 -18.5000 -28.0000 Du        
  21249 ****        -6.2500 -18.2500 -29.2500 Du        
  21250 ****        -6.2500 -18.2500 -29.0000 Du        
  21251 ****        -6.2500 -18.2500 -28.7500 Du        
  21252 ****        -6.2500 -18.2500 -28.5000 Du        
  21253 ****        -6.2500 -18.2500 -28.2500 Du        
  21254 ****        -6.2500 -18.0000 -29.2500 Du        
  21255 ****        -6.2500 -18.0000 -29.0000 Du        
  21256 ****        -6.2500 -18.0000 -28.7500 Du        
  21257 ****        -6.2500 -18.0000 -28.5000 Du        
  21258 ****        -6.2500 -18.0000 -28.2500 Du        
  21259 ****        -6.2500 -17.7500 -29.2500 Du        
  21260 ****        -6.2500 -17.7500 -29.0000 Du        
  21261 ****        -6.2500 -17.7500 -28.7500 Du        
  21262 ****        -6.2500 -17.7500 -28.5000 Du        
  21263 ****        -6.2500 -17.7500 -28.2500 Du        
  21264 ****        -6.2500 -17.5000 -29.2500 Du        
  21265 ****        -6.2500 -17.5000 -29.0000 Du        
  21266 ****        -6.2500 -17.5000 -28.7500 Du        
  21267 ****        -6.2500 -17.2500 -29.0000 Du        
  21268 ****        -6.2500 -17.2500 -28.7500 Du        
  21269 ****        -6.2500 -17.0000 -18.0000 Du        
  21270 ****        -6.2500 -17.0000 -17.7500 Du        
  21271 ****        -6.2500 -16.7500 -18.2500 Du        
  21272 ****        -6.2500 -16.7500 -18.0000 Du        
  21273 ****        -6.2500 -16.7500 -17.7500 Du        
  21274 ****        -6.2500   2.5000 -27.2500 Du        
  21275 ****        -6.2500   2.5000 -27.0000 Du        
  21276 ****        -6.2500   2.5000 -26.7500 Du        
  21277 ****        -6.2500   2.7500 -27.7500 Du        
  21278 ****        -6.2500   2.7500 -27.5000 Du        
  21279 ****        -6.2500   2.7500 -27.2500 Du        
  21280 ****        -6.2500   2.7500 -27.0000 Du        
  21281 ****        -6.2500   2.7500 -26.7500 Du        
  21282 ****        -6.2500   3.0000 -26.7500 Du        
  21283 ****        -6.2500   4.5000 -16.5000 Du        
  21284 ****        -6.2500   4.5000 -16.2500 Du        
  21285 ****        -6.2500   4.5000 -16.0000 Du        
  21286 ****        -6.2500   4.5000 -15.7500 Du        
  21287 ****        -6.2500   4.7500 -17.5000 Du        
  21288 ****        -6.2500   4.7500 -17.2500 Du        
  21289 ****        -6.2500   4.7500 -17.0000 Du        
  21290 ****        -6.2500   4.7500 -16.7500 Du        
  21291 ****        -6.2500   4.7500 -16.5000 Du        
  21292 ****        -6.2500   4.7500 -16.2500 Du        
  21293 ****        -6.2500   4.7500 -16.0000 Du        
  21294 ****        -6.2500   4.7500 -15.7500 Du        
  21295 ****        -6.2500   4.7500 -15.5000 Du        
  21296 ****        -6.2500   5.0000 -17.5000 Du        
  21297 ****        -6.2500   5.0000 -17.2500 Du        
  21298 ****        -6.2500   5.0000 -17.0000 Du        
  21299 ****        -6.2500   5.0000 -16.7500 Du        
  21300 ****        -6.2500   5.0000 -16.5000 Du        
  21301 ****        -6.2500   5.0000 -16.2500 Du        
  21302 ****        -6.2500   5.0000 -16.0000 Du        
  21303 ****        -6.2500   5.0000 -15.7500 Du        
  21304 ****        -6.2500   5.0000 -15.5000 Du        
  21305 ****        -6.2500   5.2500 -17.5000 Du        
  21306 ****        -6.2500   5.2500 -17.2500 Du        
  21307 ****        -6.2500   5.2500 -17.0000 Du        
  21308 ****        -6.2500   5.2500 -16.7500 Du        
  21309 ****        -6.2500   5.2500 -16.5000 Du        
  21310 ****        -6.2500   5.2500 -16.2500 Du        
  21311 ****        -6.2500   5.2500 -16.0000 Du        
  21312 ****        -6.2500   5.2500 -15.7500 Du        
  21313 ****        -6.2500   5.5000 -17.2500 Du        
  21314 ****        -6.2500   5.5000 -17.0000 Du        
  21315 ****        -6.2500   5.5000 -16.7500 Du        
  21316 ****        -6.2500   5.5000 -16.5000 Du        
  21317 ****        -6.2500   5.5000 -16.2500 Du        
  21318 ****        -6.2500   5.5000 -16.0000 Du        
  21319 ****        -6.2500   5.7500 -17.2500 Du        
  21320 ****        -6.2500   5.7500 -17.0000 Du        
  21321 ****        -6.2500   5.7500 -16.7500 Du        
  21322 ****        -6.2500   5.7500 -16.5000 Du        
  21323 ****        -6.2500   5.7500 -16.2500 Du        
  21324 ****        -6.2500   5.7500 -16.0000 Du        
  21325 ****        -6.2500   6.0000 -17.2500 Du        
  21326 ****        -6.2500   6.0000 -17.0000 Du        
  21327 ****        -6.2500   6.0000 -16.7500 Du        
  21328 ****        -6.2500   6.0000 -16.5000 Du        
  21329 ****        -6.2500   6.0000 -16.2500 Du        
  21330 ****        -6.2500   6.2500 -17.0000 Du        
  21331 ****        -6.2500   6.2500 -16.7500 Du        
  21332 ****        -6.2500   6.2500 -16.5000 Du        
  21333 ****        -6.0000 -29.0000 -15.2500 Du        
  21334 ****        -6.0000 -29.0000 -15.0000 Du        
  21335 ****        -6.0000 -29.0000 -14.7500 Du        
  21336 ****        -6.0000 -29.0000  -4.0000 Du        
  21337 ****        -6.0000 -29.0000  -3.7500 Du        
  21338 ****        -6.0000 -29.0000  -3.5000 Du        
  21339 ****        -6.0000 -29.0000  -3.2500 Du        
  21340 ****        -6.0000 -29.0000  -3.0000 Du        
  21341 ****        -6.0000 -28.7500 -15.2500 Du        
  21342 ****        -6.0000 -28.7500 -15.0000 Du        
  21343 ****        -6.0000 -28.7500 -14.7500 Du        
  21344 ****        -6.0000 -28.7500  -5.0000 Du        
  21345 ****        -6.0000 -28.7500  -4.7500 Du        
  21346 ****        -6.0000 -28.7500  -4.5000 Du        
  21347 ****        -6.0000 -28.7500  -4.2500 Du        
  21348 ****        -6.0000 -28.7500  -4.0000 Du        
  21349 ****        -6.0000 -28.7500  -3.7500 Du        
  21350 ****        -6.0000 -28.7500  -3.5000 Du        
  21351 ****        -6.0000 -28.7500  -3.2500 Du        
  21352 ****        -6.0000 -28.7500  -3.0000 Du        
  21353 ****        -6.0000 -28.7500  -2.7500 Du        
  21354 ****        -6.0000 -28.5000 -15.0000 Du        
  21355 ****        -6.0000 -28.5000 -14.7500 Du        
  21356 ****        -6.0000 -28.5000  -6.2500 Du        
  21357 ****        -6.0000 -28.5000  -5.5000 Du        
  21358 ****        -6.0000 -28.5000  -5.2500 Du        
  21359 ****        -6.0000 -28.5000  -5.0000 Du        
  21360 ****        -6.0000 -28.5000  -4.7500 Du        
  21361 ****        -6.0000 -28.5000  -4.5000 Du        
  21362 ****        -6.0000 -28.5000  -4.2500 Du        
  21363 ****        -6.0000 -28.5000  -4.0000 Du        
  21364 ****        -6.0000 -28.5000  -3.7500 Du        
  21365 ****        -6.0000 -28.5000  -3.5000 Du        
  21366 ****        -6.0000 -28.5000  -3.2500 Du        
  21367 ****        -6.0000 -28.5000  -3.0000 Du        
  21368 ****        -6.0000 -28.5000  -2.7500 Du        
  21369 ****        -6.0000 -28.2500 -15.0000 Du        
  21370 ****        -6.0000 -28.2500 -14.7500 Du        
  21371 ****        -6.0000 -28.2500  -5.0000 Du        
  21372 ****        -6.0000 -28.2500  -4.7500 Du        
  21373 ****        -6.0000 -28.2500  -4.5000 Du        
  21374 ****        -6.0000 -28.2500  -4.2500 Du        
  21375 ****        -6.0000 -28.2500  -4.0000 Du        
  21376 ****        -6.0000 -28.2500  -3.7500 Du        
  21377 ****        -6.0000 -28.2500  -3.5000 Du        
  21378 ****        -6.0000 -28.2500  -3.2500 Du        
  21379 ****        -6.0000 -28.2500  -3.0000 Du        
  21380 ****        -6.0000 -28.2500  -2.7500 Du        
  21381 ****        -6.0000 -28.2500  -2.5000 Du        
  21382 ****        -6.0000 -28.0000 -15.0000 Du        
  21383 ****        -6.0000 -28.0000 -14.7500 Du        
  21384 ****        -6.0000 -28.0000 -14.2500 Du        
  21385 ****        -6.0000 -28.0000 -14.0000 Du        
  21386 ****        -6.0000 -28.0000  -4.0000 Du        
  21387 ****        -6.0000 -28.0000  -3.7500 Du        
  21388 ****        -6.0000 -28.0000  -3.5000 Du        
  21389 ****        -6.0000 -28.0000  -3.2500 Du        
  21390 ****        -6.0000 -28.0000  -3.0000 Du        
  21391 ****        -6.0000 -28.0000  -2.7500 Du        
  21392 ****        -6.0000 -28.0000  -2.5000 Du        
  21393 ****        -6.0000 -28.0000  -2.2500 Du        
  21394 ****        -6.0000 -27.7500 -15.0000 Du        
  21395 ****        -6.0000 -27.7500 -14.7500 Du        
  21396 ****        -6.0000 -27.7500 -14.5000 Du        
  21397 ****        -6.0000 -27.7500 -14.2500 Du        
  21398 ****        -6.0000 -27.7500 -14.0000 Du        
  21399 ****        -6.0000 -27.7500  -3.0000 Du        
  21400 ****        -6.0000 -27.7500  -2.7500 Du        
  21401 ****        -6.0000 -27.7500  -2.5000 Du        
  21402 ****        -6.0000 -27.7500  -2.2500 Du        
  21403 ****        -6.0000 -27.5000 -14.7500 Du        
  21404 ****        -6.0000 -27.5000 -14.5000 Du        
  21405 ****        -6.0000 -27.5000 -14.2500 Du        
  21406 ****        -6.0000 -27.5000 -14.0000 Du        
  21407 ****        -6.0000 -27.5000  -2.7500 Du        
  21408 ****        -6.0000 -27.5000  -2.5000 Du        
  21409 ****        -6.0000 -27.5000  -2.2500 Du        
  21410 ****        -6.0000 -27.5000  -2.0000 Du        
  21411 ****        -6.0000 -27.5000  -1.7500 Du        
  21412 ****        -6.0000 -27.2500 -14.7500 Du        
  21413 ****        -6.0000 -27.2500 -14.5000 Du        
  21414 ****        -6.0000 -27.2500 -14.2500 Du        
  21415 ****        -6.0000 -27.2500 -14.0000 Du        
  21416 ****        -6.0000 -27.2500  -2.2500 Du        
  21417 ****        -6.0000 -27.2500  -2.0000 Du        
  21418 ****        -6.0000 -27.2500  -1.7500 Du        
  21419 ****        -6.0000 -27.2500  -1.5000 Du        
  21420 ****        -6.0000 -27.0000 -14.7500 Du        
  21421 ****        -6.0000 -27.0000 -14.5000 Du        
  21422 ****        -6.0000 -27.0000 -14.2500 Du        
  21423 ****        -6.0000 -27.0000 -14.0000 Du        
  21424 ****        -6.0000 -27.0000 -13.7500 Du        
  21425 ****        -6.0000 -27.0000  -2.2500 Du        
  21426 ****        -6.0000 -27.0000  -2.0000 Du        
  21427 ****        -6.0000 -27.0000  -1.7500 Du        
  21428 ****        -6.0000 -27.0000  -1.5000 Du        
  21429 ****        -6.0000 -27.0000  -1.2500 Du        
  21430 ****        -6.0000 -26.7500 -14.5000 Du        
  21431 ****        -6.0000 -26.7500 -14.2500 Du        
  21432 ****        -6.0000 -26.7500 -14.0000 Du        
  21433 ****        -6.0000 -26.7500 -13.7500 Du        
  21434 ****        -6.0000 -26.7500 -13.5000 Du        
  21435 ****        -6.0000 -26.7500  -2.0000 Du        
  21436 ****        -6.0000 -26.7500  -1.7500 Du        
  21437 ****        -6.0000 -26.7500  -1.5000 Du        
  21438 ****        -6.0000 -26.7500  -1.2500 Du        
  21439 ****        -6.0000 -26.5000 -14.2500 Du        
  21440 ****        -6.0000 -26.5000 -14.0000 Du        
  21441 ****        -6.0000 -26.5000 -13.7500 Du        
  21442 ****        -6.0000 -26.5000 -13.5000 Du        
  21443 ****        -6.0000 -26.5000 -13.2500 Du        
  21444 ****        -6.0000 -26.5000  -1.7500 Du        
  21445 ****        -6.0000 -26.5000  -1.5000 Du        
  21446 ****        -6.0000 -26.2500 -14.2500 Du        
  21447 ****        -6.0000 -26.2500 -14.0000 Du        
  21448 ****        -6.0000 -26.2500 -13.7500 Du        
  21449 ****        -6.0000 -26.2500 -13.5000 Du        
  21450 ****        -6.0000 -26.2500 -13.2500 Du        
  21451 ****        -6.0000 -26.0000 -28.2500 Du        
  21452 ****        -6.0000 -26.0000 -28.0000 Du        
  21453 ****        -6.0000 -26.0000 -14.2500 Du        
  21454 ****        -6.0000 -26.0000 -14.0000 Du        
  21455 ****        -6.0000 -26.0000 -13.7500 Du        
  21456 ****        -6.0000 -26.0000 -13.5000 Du        
  21457 ****        -6.0000 -25.7500 -28.2500 Du        
  21458 ****        -6.0000 -25.7500 -28.0000 Du        
  21459 ****        -6.0000 -25.5000 -28.7500 Du        
  21460 ****        -6.0000 -25.5000 -28.5000 Du        
  21461 ****        -6.0000 -25.5000 -28.2500 Du        
  21462 ****        -6.0000 -25.5000 -28.0000 Du        
  21463 ****        -6.0000 -25.5000 -27.7500 Du        
  21464 ****        -6.0000 -25.2500 -28.7500 Du        
  21465 ****        -6.0000 -25.2500 -28.5000 Du        
  21466 ****        -6.0000 -25.2500 -28.2500 Du        
  21467 ****        -6.0000 -25.2500 -28.0000 Du        
  21468 ****        -6.0000 -25.2500 -27.7500 Du        
  21469 ****        -6.0000 -25.2500 -27.5000 Du        
  21470 ****        -6.0000 -25.0000 -29.0000 Du        
  21471 ****        -6.0000 -25.0000 -28.7500 Du        
  21472 ****        -6.0000 -25.0000 -28.5000 Du        
  21473 ****        -6.0000 -25.0000 -28.2500 Du        
  21474 ****        -6.0000 -25.0000 -28.0000 Du        
  21475 ****        -6.0000 -25.0000 -27.7500 Du        
  21476 ****        -6.0000 -25.0000 -27.5000 Du        
  21477 ****        -6.0000 -25.0000   2.0000 Du        
  21478 ****        -6.0000 -24.7500 -28.7500 Du        
  21479 ****        -6.0000 -24.7500 -28.5000 Du        
  21480 ****        -6.0000 -24.7500 -28.2500 Du        
  21481 ****        -6.0000 -24.7500 -28.0000 Du        
  21482 ****        -6.0000 -24.7500 -27.7500 Du        
  21483 ****        -6.0000 -24.7500 -27.5000 Du        
  21484 ****        -6.0000 -24.7500 -27.2500 Du        
  21485 ****        -6.0000 -24.7500   2.0000 Du        
  21486 ****        -6.0000 -24.5000 -28.5000 Du        
  21487 ****        -6.0000 -24.5000 -28.2500 Du        
  21488 ****        -6.0000 -24.5000 -28.0000 Du        
  21489 ****        -6.0000 -24.5000 -27.7500 Du        
  21490 ****        -6.0000 -24.5000 -27.5000 Du        
  21491 ****        -6.0000 -24.5000 -27.2500 Du        
  21492 ****        -6.0000 -24.5000   1.7500 Du        
  21493 ****        -6.0000 -24.5000   2.0000 Du        
  21494 ****        -6.0000 -24.5000   2.2500 Du        
  21495 ****        -6.0000 -24.5000   2.5000 Du        
  21496 ****        -6.0000 -24.2500 -28.5000 Du        
  21497 ****        -6.0000 -24.2500 -28.2500 Du        
  21498 ****        -6.0000 -24.2500 -28.0000 Du        
  21499 ****        -6.0000 -24.2500 -27.7500 Du        
  21500 ****        -6.0000 -24.2500 -27.5000 Du        
  21501 ****        -6.0000 -24.2500 -27.2500 Du        
  21502 ****        -6.0000 -24.2500   1.7500 Du        
  21503 ****        -6.0000 -24.2500   2.0000 Du        
  21504 ****        -6.0000 -24.2500   2.2500 Du        
  21505 ****        -6.0000 -24.2500   2.5000 Du        
  21506 ****        -6.0000 -24.0000 -28.5000 Du        
  21507 ****        -6.0000 -24.0000 -28.2500 Du        
  21508 ****        -6.0000 -24.0000 -28.0000 Du        
  21509 ****        -6.0000 -24.0000 -27.7500 Du        
  21510 ****        -6.0000 -24.0000 -27.5000 Du        
  21511 ****        -6.0000 -24.0000 -27.2500 Du        
  21512 ****        -6.0000 -24.0000   1.5000 Du        
  21513 ****        -6.0000 -24.0000   1.7500 Du        
  21514 ****        -6.0000 -24.0000   2.0000 Du        
  21515 ****        -6.0000 -24.0000   2.2500 Du        
  21516 ****        -6.0000 -24.0000   2.5000 Du        
  21517 ****        -6.0000 -24.0000   2.7500 Du        
  21518 ****        -6.0000 -24.0000   3.0000 Du        
  21519 ****        -6.0000 -23.7500 -28.2500 Du        
  21520 ****        -6.0000 -23.7500 -28.0000 Du        
  21521 ****        -6.0000 -23.7500 -27.7500 Du        
  21522 ****        -6.0000 -23.7500 -27.5000 Du        
  21523 ****        -6.0000 -23.7500 -27.2500 Du        
  21524 ****        -6.0000 -23.7500   1.5000 Du        
  21525 ****        -6.0000 -23.7500   1.7500 Du        
  21526 ****        -6.0000 -23.7500   2.0000 Du        
  21527 ****        -6.0000 -23.7500   2.2500 Du        
  21528 ****        -6.0000 -23.7500   2.5000 Du        
  21529 ****        -6.0000 -23.7500   2.7500 Du        
  21530 ****        -6.0000 -23.7500   3.0000 Du        
  21531 ****        -6.0000 -23.5000 -28.2500 Du        
  21532 ****        -6.0000 -23.5000 -28.0000 Du        
  21533 ****        -6.0000 -23.5000 -27.7500 Du        
  21534 ****        -6.0000 -23.5000 -27.5000 Du        
  21535 ****        -6.0000 -23.5000 -27.2500 Du        
  21536 ****        -6.0000 -23.5000   1.5000 Du        
  21537 ****        -6.0000 -23.5000   1.7500 Du        
  21538 ****        -6.0000 -23.5000   2.0000 Du        
  21539 ****        -6.0000 -23.5000   2.2500 Du        
  21540 ****        -6.0000 -23.5000   2.5000 Du        
  21541 ****        -6.0000 -23.5000   2.7500 Du        
  21542 ****        -6.0000 -23.2500 -28.5000 Du        
  21543 ****        -6.0000 -23.2500 -28.2500 Du        
  21544 ****        -6.0000 -23.2500 -28.0000 Du        
  21545 ****        -6.0000 -23.2500 -27.5000 Du        
  21546 ****        -6.0000 -23.2500   1.7500 Du        
  21547 ****        -6.0000 -23.2500   2.0000 Du        
  21548 ****        -6.0000 -23.2500   2.2500 Du        
  21549 ****        -6.0000 -23.2500   2.5000 Du        
  21550 ****        -6.0000 -23.0000 -29.2500 Du        
  21551 ****        -6.0000 -23.0000 -29.0000 Du        
  21552 ****        -6.0000 -23.0000   2.0000 Du        
  21553 ****        -6.0000 -23.0000   2.2500 Du        
  21554 ****        -6.0000 -22.7500 -29.2500 Du        
  21555 ****        -6.0000 -22.7500 -29.0000 Du        
  21556 ****        -6.0000 -22.7500 -28.7500 Du        
  21557 ****        -6.0000 -22.5000 -29.5000 Du        
  21558 ****        -6.0000 -22.5000 -29.2500 Du        
  21559 ****        -6.0000 -22.5000 -29.0000 Du        
  21560 ****        -6.0000 -22.5000 -28.7500 Du        
  21561 ****        -6.0000 -22.2500 -29.7500 Du        
  21562 ****        -6.0000 -22.2500 -29.5000 Du        
  21563 ****        -6.0000 -22.2500 -29.2500 Du        
  21564 ****        -6.0000 -22.2500 -29.0000 Du        
  21565 ****        -6.0000 -22.2500 -28.7500 Du        
  21566 ****        -6.0000 -22.0000 -29.7500 Du        
  21567 ****        -6.0000 -22.0000 -29.5000 Du        
  21568 ****        -6.0000 -22.0000 -29.2500 Du        
  21569 ****        -6.0000 -22.0000 -29.0000 Du        
  21570 ****        -6.0000 -22.0000 -28.7500 Du        
  21571 ****        -6.0000 -21.7500 -29.7500 Du        
  21572 ****        -6.0000 -21.7500 -29.5000 Du        
  21573 ****        -6.0000 -21.7500 -29.2500 Du        
  21574 ****        -6.0000 -21.7500 -29.0000 Du        
  21575 ****        -6.0000 -21.7500 -28.7500 Du        
  21576 ****        -6.0000 -21.5000 -29.7500 Du        
  21577 ****        -6.0000 -21.5000 -29.5000 Du        
  21578 ****        -6.0000 -21.5000 -29.2500 Du        
  21579 ****        -6.0000 -21.5000 -29.0000 Du        
  21580 ****        -6.0000 -21.5000 -28.7500 Du        
  21581 ****        -6.0000 -21.2500 -29.7500 Du        
  21582 ****        -6.0000 -21.2500 -29.5000 Du        
  21583 ****        -6.0000 -21.2500 -29.2500 Du        
  21584 ****        -6.0000 -21.2500 -29.0000 Du        
  21585 ****        -6.0000 -21.2500 -28.7500 Du        
  21586 ****        -6.0000 -21.0000 -29.5000 Du        
  21587 ****        -6.0000 -21.0000 -29.2500 Du        
  21588 ****        -6.0000 -21.0000 -29.0000 Du        
  21589 ****        -6.0000 -21.0000 -28.7500 Du        
  21590 ****        -6.0000 -20.7500 -29.5000 Du        
  21591 ****        -6.0000 -20.7500 -29.2500 Du        
  21592 ****        -6.0000 -20.7500 -29.0000 Du        
  21593 ****        -6.0000 -20.7500 -28.7500 Du        
  21594 ****        -6.0000 -20.7500 -28.5000 Du        
  21595 ****        -6.0000 -20.5000 -29.5000 Du        
  21596 ****        -6.0000 -20.5000 -29.2500 Du        
  21597 ****        -6.0000 -20.5000 -29.0000 Du        
  21598 ****        -6.0000 -20.5000 -28.7500 Du        
  21599 ****        -6.0000 -20.5000 -28.5000 Du        
  21600 ****        -6.0000 -20.5000 -28.2500 Du        
  21601 ****        -6.0000 -20.2500 -29.5000 Du        
  21602 ****        -6.0000 -20.2500 -29.2500 Du        
  21603 ****        -6.0000 -20.2500 -29.0000 Du        
  21604 ****        -6.0000 -20.2500 -28.7500 Du        
  21605 ****        -6.0000 -20.2500 -28.5000 Du        
  21606 ****        -6.0000 -20.2500 -28.2500 Du        
  21607 ****        -6.0000 -20.0000 -29.5000 Du        
  21608 ****        -6.0000 -20.0000 -29.2500 Du        
  21609 ****        -6.0000 -20.0000 -29.0000 Du        
  21610 ****        -6.0000 -20.0000 -28.7500 Du        
  21611 ****        -6.0000 -20.0000 -28.5000 Du        
  21612 ****        -6.0000 -20.0000 -28.2500 Du        
  21613 ****        -6.0000 -19.7500 -29.5000 Du        
  21614 ****        -6.0000 -19.7500 -29.2500 Du        
  21615 ****        -6.0000 -19.7500 -29.0000 Du        
  21616 ****        -6.0000 -19.7500 -28.7500 Du        
  21617 ****        -6.0000 -19.7500 -28.5000 Du        
  21618 ****        -6.0000 -19.7500 -28.2500 Du        
  21619 ****        -6.0000 -19.7500 -28.0000 Du        
  21620 ****        -6.0000 -19.5000 -29.2500 Du        
  21621 ****        -6.0000 -19.5000 -29.0000 Du        
  21622 ****        -6.0000 -19.5000 -28.7500 Du        
  21623 ****        -6.0000 -19.5000 -28.5000 Du        
  21624 ****        -6.0000 -19.5000 -28.2500 Du        
  21625 ****        -6.0000 -19.2500 -29.2500 Du        
  21626 ****        -6.0000 -19.2500 -29.0000 Du        
  21627 ****        -6.0000 -19.2500 -28.7500 Du        
  21628 ****        -6.0000 -19.2500 -28.5000 Du        
  21629 ****        -6.0000 -19.2500 -28.2500 Du        
  21630 ****        -6.0000 -19.0000 -29.2500 Du        
  21631 ****        -6.0000 -19.0000 -29.0000 Du        
  21632 ****        -6.0000 -19.0000 -28.7500 Du        
  21633 ****        -6.0000 -19.0000 -28.5000 Du        
  21634 ****        -6.0000 -19.0000 -28.2500 Du        
  21635 ****        -6.0000 -19.0000 -28.0000 Du        
  21636 ****        -6.0000 -18.7500 -29.0000 Du        
  21637 ****        -6.0000 -18.7500 -28.7500 Du        
  21638 ****        -6.0000 -18.7500 -28.5000 Du        
  21639 ****        -6.0000 -18.7500 -28.2500 Du        
  21640 ****        -6.0000 -18.7500 -28.0000 Du        
  21641 ****        -6.0000 -18.5000 -29.0000 Du        
  21642 ****        -6.0000 -18.5000 -28.7500 Du        
  21643 ****        -6.0000 -18.5000 -28.5000 Du        
  21644 ****        -6.0000 -18.5000 -28.2500 Du        
  21645 ****        -6.0000 -18.5000 -28.0000 Du        
  21646 ****        -6.0000 -18.2500 -29.0000 Du        
  21647 ****        -6.0000 -18.2500 -28.7500 Du        
  21648 ****        -6.0000 -18.2500 -28.5000 Du        
  21649 ****        -6.0000 -18.2500 -28.2500 Du        
  21650 ****        -6.0000 -18.2500 -28.0000 Du        
  21651 ****        -6.0000 -18.0000 -29.0000 Du        
  21652 ****        -6.0000 -18.0000 -28.7500 Du        
  21653 ****        -6.0000 -18.0000 -28.5000 Du        
  21654 ****        -6.0000 -18.0000 -28.2500 Du        
  21655 ****        -6.0000 -18.0000 -28.0000 Du        
  21656 ****        -6.0000 -17.7500 -29.0000 Du        
  21657 ****        -6.0000 -17.7500 -28.7500 Du        
  21658 ****        -6.0000 -17.7500 -28.5000 Du        
  21659 ****        -6.0000 -17.7500 -28.2500 Du        
  21660 ****        -6.0000 -17.5000 -29.0000 Du        
  21661 ****        -6.0000 -17.5000 -28.7500 Du        
  21662 ****        -6.0000 -17.2500 -29.0000 Du        
  21663 ****        -6.0000 -17.2500 -28.7500 Du        
  21664 ****        -6.0000 -17.0000 -28.7500 Du        
  21665 ****        -6.0000 -16.7500 -18.2500 Du        
  21666 ****        -6.0000 -16.7500 -18.0000 Du        
  21667 ****        -6.0000   2.5000 -27.2500 Du        
  21668 ****        -6.0000   2.5000 -27.0000 Du        
  21669 ****        -6.0000   2.5000 -26.7500 Du        
  21670 ****        -6.0000   2.7500 -27.7500 Du        
  21671 ****        -6.0000   2.7500 -27.5000 Du        
  21672 ****        -6.0000   2.7500 -27.2500 Du        
  21673 ****        -6.0000   2.7500 -27.0000 Du        
  21674 ****        -6.0000   2.7500 -26.7500 Du        
  21675 ****        -6.0000   3.0000 -26.7500 Du        
  21676 ****        -6.0000   3.2500 -26.7500 Du        
  21677 ****        -6.0000   4.2500 -17.0000 Du        
  21678 ****        -6.0000   4.2500 -16.7500 Du        
  21679 ****        -6.0000   4.2500 -16.5000 Du        
  21680 ****        -6.0000   4.2500 -16.2500 Du        
  21681 ****        -6.0000   4.2500 -16.0000 Du        
  21682 ****        -6.0000   4.5000 -17.5000 Du        
  21683 ****        -6.0000   4.5000 -17.2500 Du        
  21684 ****        -6.0000   4.5000 -17.0000 Du        
  21685 ****        -6.0000   4.5000 -16.7500 Du        
  21686 ****        -6.0000   4.5000 -16.5000 Du        
  21687 ****        -6.0000   4.5000 -16.2500 Du        
  21688 ****        -6.0000   4.5000 -16.0000 Du        
  21689 ****        -6.0000   4.5000 -15.7500 Du        
  21690 ****        -6.0000   4.7500 -17.7500 Du        
  21691 ****        -6.0000   4.7500 -17.5000 Du        
  21692 ****        -6.0000   4.7500 -17.2500 Du        
  21693 ****        -6.0000   4.7500 -17.0000 Du        
  21694 ****        -6.0000   4.7500 -16.7500 Du        
  21695 ****        -6.0000   4.7500 -16.5000 Du        
  21696 ****        -6.0000   4.7500 -16.2500 Du        
  21697 ****        -6.0000   4.7500 -16.0000 Du        
  21698 ****        -6.0000   4.7500 -15.7500 Du        
  21699 ****        -6.0000   5.0000 -17.7500 Du        
  21700 ****        -6.0000   5.0000 -17.5000 Du        
  21701 ****        -6.0000   5.0000 -17.2500 Du        
  21702 ****        -6.0000   5.0000 -17.0000 Du        
  21703 ****        -6.0000   5.0000 -16.7500 Du        
  21704 ****        -6.0000   5.0000 -16.5000 Du        
  21705 ****        -6.0000   5.0000 -16.2500 Du        
  21706 ****        -6.0000   5.0000 -16.0000 Du        
  21707 ****        -6.0000   5.0000 -15.7500 Du        
  21708 ****        -6.0000   5.2500 -17.5000 Du        
  21709 ****        -6.0000   5.2500 -17.2500 Du        
  21710 ****        -6.0000   5.2500 -17.0000 Du        
  21711 ****        -6.0000   5.2500 -16.7500 Du        
  21712 ****        -6.0000   5.2500 -16.5000 Du        
  21713 ****        -6.0000   5.2500 -16.2500 Du        
  21714 ****        -6.0000   5.2500 -16.0000 Du        
  21715 ****        -6.0000   5.2500 -15.7500 Du        
  21716 ****        -6.0000   5.5000 -17.2500 Du        
  21717 ****        -6.0000   5.5000 -17.0000 Du        
  21718 ****        -6.0000   5.5000 -16.7500 Du        
  21719 ****        -6.0000   5.5000 -16.5000 Du        
  21720 ****        -6.0000   5.5000 -16.2500 Du        
  21721 ****        -6.0000   5.5000 -16.0000 Du        
  21722 ****        -6.0000   5.7500 -17.2500 Du        
  21723 ****        -6.0000   5.7500 -17.0000 Du        
  21724 ****        -6.0000   5.7500 -16.7500 Du        
  21725 ****        -6.0000   5.7500 -16.5000 Du        
  21726 ****        -6.0000   5.7500 -16.2500 Du        
  21727 ****        -6.0000   6.0000 -17.2500 Du        
  21728 ****        -6.0000   6.0000 -17.0000 Du        
  21729 ****        -6.0000   6.0000 -16.7500 Du        
  21730 ****        -6.0000   6.0000 -16.5000 Du        
  21731 ****        -6.0000   6.0000 -16.2500 Du        
  21732 ****        -6.0000   6.2500 -17.2500 Du        
  21733 ****        -6.0000   6.2500 -17.0000 Du        
  21734 ****        -6.0000   6.2500 -16.7500 Du        
  21735 ****        -6.0000   6.2500 -16.5000 Du        
  21736 ****        -5.7500 -29.0000 -15.2500 Du        
  21737 ****        -5.7500 -29.0000 -15.0000 Du        
  21738 ****        -5.7500 -29.0000 -14.7500 Du        
  21739 ****        -5.7500 -29.0000  -3.7500 Du        
  21740 ****        -5.7500 -29.0000  -3.5000 Du        
  21741 ****        -5.7500 -29.0000  -3.2500 Du        
  21742 ****        -5.7500 -29.0000  -3.0000 Du        
  21743 ****        -5.7500 -28.7500 -15.0000 Du        
  21744 ****        -5.7500 -28.7500  -4.5000 Du        
  21745 ****        -5.7500 -28.7500  -4.2500 Du        
  21746 ****        -5.7500 -28.7500  -4.0000 Du        
  21747 ****        -5.7500 -28.7500  -3.7500 Du        
  21748 ****        -5.7500 -28.7500  -3.5000 Du        
  21749 ****        -5.7500 -28.7500  -3.2500 Du        
  21750 ****        -5.7500 -28.7500  -3.0000 Du        
  21751 ****        -5.7500 -28.5000  -4.7500 Du        
  21752 ****        -5.7500 -28.5000  -4.5000 Du        
  21753 ****        -5.7500 -28.5000  -4.2500 Du        
  21754 ****        -5.7500 -28.5000  -4.0000 Du        
  21755 ****        -5.7500 -28.5000  -3.7500 Du        
  21756 ****        -5.7500 -28.5000  -3.5000 Du        
  21757 ****        -5.7500 -28.5000  -3.2500 Du        
  21758 ****        -5.7500 -28.5000  -3.0000 Du        
  21759 ****        -5.7500 -28.5000  -2.7500 Du        
  21760 ****        -5.7500 -28.2500  -4.5000 Du        
  21761 ****        -5.7500 -28.2500  -4.2500 Du        
  21762 ****        -5.7500 -28.2500  -4.0000 Du        
  21763 ****        -5.7500 -28.2500  -3.7500 Du        
  21764 ****        -5.7500 -28.2500  -3.5000 Du        
  21765 ****        -5.7500 -28.2500  -3.2500 Du        
  21766 ****        -5.7500 -28.2500  -3.0000 Du        
  21767 ****        -5.7500 -28.2500  -2.7500 Du        
  21768 ****        -5.7500 -28.2500  -2.5000 Du        
  21769 ****        -5.7500 -28.0000 -14.7500 Du        
  21770 ****        -5.7500 -28.0000 -14.2500 Du        
  21771 ****        -5.7500 -28.0000  -3.5000 Du        
  21772 ****        -5.7500 -28.0000  -3.2500 Du        
  21773 ****        -5.7500 -28.0000  -3.0000 Du        
  21774 ****        -5.7500 -28.0000  -2.7500 Du        
  21775 ****        -5.7500 -28.0000  -2.5000 Du        
  21776 ****        -5.7500 -27.7500 -14.7500 Du        
  21777 ****        -5.7500 -27.7500 -14.5000 Du        
  21778 ****        -5.7500 -27.7500 -14.2500 Du        
  21779 ****        -5.7500 -27.7500 -14.0000 Du        
  21780 ****        -5.7500 -27.7500  -2.7500 Du        
  21781 ****        -5.7500 -27.7500  -2.5000 Du        
  21782 ****        -5.7500 -27.7500  -2.2500 Du        
  21783 ****        -5.7500 -27.5000 -14.7500 Du        
  21784 ****        -5.7500 -27.5000 -14.2500 Du        
  21785 ****        -5.7500 -27.5000  -2.5000 Du        
  21786 ****        -5.7500 -27.5000  -2.2500 Du        
  21787 ****        -5.7500 -27.5000  -2.0000 Du        
  21788 ****        -5.7500 -27.2500 -14.7500 Du        
  21789 ****        -5.7500 -27.2500 -14.5000 Du        
  21790 ****        -5.7500 -27.2500 -14.2500 Du        
  21791 ****        -5.7500 -27.2500 -14.0000 Du        
  21792 ****        -5.7500 -27.2500  -2.2500 Du        
  21793 ****        -5.7500 -27.2500  -2.0000 Du        
  21794 ****        -5.7500 -27.2500  -1.7500 Du        
  21795 ****        -5.7500 -27.2500  -1.5000 Du        
  21796 ****        -5.7500 -27.0000 -14.5000 Du        
  21797 ****        -5.7500 -27.0000 -14.2500 Du        
  21798 ****        -5.7500 -27.0000 -14.0000 Du        
  21799 ****        -5.7500 -27.0000 -13.7500 Du        
  21800 ****        -5.7500 -27.0000  -2.0000 Du        
  21801 ****        -5.7500 -27.0000  -1.7500 Du        
  21802 ****        -5.7500 -27.0000  -1.5000 Du        
  21803 ****        -5.7500 -27.0000  -1.2500 Du        
  21804 ****        -5.7500 -26.7500 -14.5000 Du        
  21805 ****        -5.7500 -26.7500 -14.2500 Du        
  21806 ****        -5.7500 -26.7500 -14.0000 Du        
  21807 ****        -5.7500 -26.7500 -13.7500 Du        
  21808 ****        -5.7500 -26.7500  -1.7500 Du        
  21809 ****        -5.7500 -26.7500  -1.5000 Du        
  21810 ****        -5.7500 -26.7500  -1.2500 Du        
  21811 ****        -5.7500 -26.5000 -14.2500 Du        
  21812 ****        -5.7500 -26.5000 -14.0000 Du        
  21813 ****        -5.7500 -26.5000 -13.7500 Du        
  21814 ****        -5.7500 -26.5000 -13.5000 Du        
  21815 ****        -5.7500 -26.5000  -1.7500 Du        
  21816 ****        -5.7500 -26.5000  -1.5000 Du        
  21817 ****        -5.7500 -26.5000  -1.2500 Du        
  21818 ****        -5.7500 -26.5000  -1.0000 Du        
  21819 ****        -5.7500 -26.2500 -14.2500 Du        
  21820 ****        -5.7500 -26.2500 -14.0000 Du        
  21821 ****        -5.7500 -26.2500 -13.7500 Du        
  21822 ****        -5.7500 -26.2500 -13.5000 Du        
  21823 ****        -5.7500 -26.2500 -13.2500 Du        
  21824 ****        -5.7500 -26.2500  -1.5000 Du        
  21825 ****        -5.7500 -26.2500  -1.2500 Du        
  21826 ****        -5.7500 -26.2500  -1.0000 Du        
  21827 ****        -5.7500 -26.0000 -28.2500 Du        
  21828 ****        -5.7500 -26.0000 -28.0000 Du        
  21829 ****        -5.7500 -26.0000 -14.2500 Du        
  21830 ****        -5.7500 -26.0000 -14.0000 Du        
  21831 ****        -5.7500 -26.0000 -13.7500 Du        
  21832 ****        -5.7500 -26.0000 -13.5000 Du        
  21833 ****        -5.7500 -26.0000  -1.5000 Du        
  21834 ****        -5.7500 -26.0000  -1.2500 Du        
  21835 ****        -5.7500 -25.7500 -28.2500 Du        
  21836 ****        -5.7500 -25.7500 -28.0000 Du        
  21837 ****        -5.7500 -25.7500 -14.2500 Du        
  21838 ****        -5.7500 -25.7500 -14.0000 Du        
  21839 ****        -5.7500 -25.7500 -13.7500 Du        
  21840 ****        -5.7500 -25.7500 -13.5000 Du        
  21841 ****        -5.7500 -25.5000 -28.7500 Du        
  21842 ****        -5.7500 -25.5000 -28.5000 Du        
  21843 ****        -5.7500 -25.5000 -28.2500 Du        
  21844 ****        -5.7500 -25.5000 -28.0000 Du        
  21845 ****        -5.7500 -25.5000 -27.7500 Du        
  21846 ****        -5.7500 -25.5000 -14.2500 Du        
  21847 ****        -5.7500 -25.5000 -14.0000 Du        
  21848 ****        -5.7500 -25.5000 -13.7500 Du        
  21849 ****        -5.7500 -25.2500 -28.7500 Du        
  21850 ****        -5.7500 -25.2500 -28.5000 Du        
  21851 ****        -5.7500 -25.2500 -28.2500 Du        
  21852 ****        -5.7500 -25.2500 -28.0000 Du        
  21853 ****        -5.7500 -25.2500 -27.7500 Du        
  21854 ****        -5.7500 -25.2500 -27.5000 Du        
  21855 ****        -5.7500 -25.2500 -14.2500 Du        
  21856 ****        -5.7500 -25.2500 -14.0000 Du        
  21857 ****        -5.7500 -25.0000 -29.0000 Du        
  21858 ****        -5.7500 -25.0000 -28.7500 Du        
  21859 ****        -5.7500 -25.0000 -28.5000 Du        
  21860 ****        -5.7500 -25.0000 -28.2500 Du        
  21861 ****        -5.7500 -25.0000 -28.0000 Du        
  21862 ****        -5.7500 -25.0000 -27.7500 Du        
  21863 ****        -5.7500 -25.0000 -27.5000 Du        
  21864 ****        -5.7500 -25.0000   1.7500 Du        
  21865 ****        -5.7500 -25.0000   2.0000 Du        
  21866 ****        -5.7500 -24.7500 -29.0000 Du        
  21867 ****        -5.7500 -24.7500 -28.7500 Du        
  21868 ****        -5.7500 -24.7500 -28.5000 Du        
  21869 ****        -5.7500 -24.7500 -28.2500 Du        
  21870 ****        -5.7500 -24.7500 -28.0000 Du        
  21871 ****        -5.7500 -24.7500 -27.7500 Du        
  21872 ****        -5.7500 -24.7500 -27.5000 Du        
  21873 ****        -5.7500 -24.7500   1.5000 Du        
  21874 ****        -5.7500 -24.7500   1.7500 Du        
  21875 ****        -5.7500 -24.7500   2.0000 Du        
  21876 ****        -5.7500 -24.5000 -29.0000 Du        
  21877 ****        -5.7500 -24.5000 -28.5000 Du        
  21878 ****        -5.7500 -24.5000 -28.2500 Du        
  21879 ****        -5.7500 -24.5000 -28.0000 Du        
  21880 ****        -5.7500 -24.5000 -27.7500 Du        
  21881 ****        -5.7500 -24.5000 -27.5000 Du        
  21882 ****        -5.7500 -24.5000 -27.2500 Du        
  21883 ****        -5.7500 -24.5000   1.5000 Du        
  21884 ****        -5.7500 -24.5000   1.7500 Du        
  21885 ****        -5.7500 -24.5000   2.0000 Du        
  21886 ****        -5.7500 -24.5000   2.2500 Du        
  21887 ****        -5.7500 -24.5000   2.5000 Du        
  21888 ****        -5.7500 -24.2500 -29.0000 Du        
  21889 ****        -5.7500 -24.2500 -28.5000 Du        
  21890 ****        -5.7500 -24.2500 -28.2500 Du        
  21891 ****        -5.7500 -24.2500 -28.0000 Du        
  21892 ****        -5.7500 -24.2500 -27.7500 Du        
  21893 ****        -5.7500 -24.2500 -27.5000 Du        
  21894 ****        -5.7500 -24.2500 -27.2500 Du        
  21895 ****        -5.7500 -24.2500   1.2500 Du        
  21896 ****        -5.7500 -24.2500   1.5000 Du        
  21897 ****        -5.7500 -24.2500   1.7500 Du        
  21898 ****        -5.7500 -24.2500   2.0000 Du        
  21899 ****        -5.7500 -24.2500   2.2500 Du        
  21900 ****        -5.7500 -24.2500   2.5000 Du        
  21901 ****        -5.7500 -24.0000 -29.0000 Du        
  21902 ****        -5.7500 -24.0000 -28.7500 Du        
  21903 ****        -5.7500 -24.0000 -28.2500 Du        
  21904 ****        -5.7500 -24.0000 -28.0000 Du        
  21905 ****        -5.7500 -24.0000 -27.7500 Du        
  21906 ****        -5.7500 -24.0000 -27.5000 Du        
  21907 ****        -5.7500 -24.0000 -27.2500 Du        
  21908 ****        -5.7500 -24.0000   1.0000 Du        
  21909 ****        -5.7500 -24.0000   1.2500 Du        
  21910 ****        -5.7500 -24.0000   1.5000 Du        
  21911 ****        -5.7500 -24.0000   1.7500 Du        
  21912 ****        -5.7500 -24.0000   2.0000 Du        
  21913 ****        -5.7500 -24.0000   2.2500 Du        
  21914 ****        -5.7500 -24.0000   2.5000 Du        
  21915 ****        -5.7500 -24.0000   2.7500 Du        
  21916 ****        -5.7500 -24.0000   3.0000 Du        
  21917 ****        -5.7500 -23.7500 -29.0000 Du        
  21918 ****        -5.7500 -23.7500 -28.7500 Du        
  21919 ****        -5.7500 -23.7500 -28.0000 Du        
  21920 ****        -5.7500 -23.7500 -27.7500 Du        
  21921 ****        -5.7500 -23.7500 -27.5000 Du        
  21922 ****        -5.7500 -23.7500   1.0000 Du        
  21923 ****        -5.7500 -23.7500   1.2500 Du        
  21924 ****        -5.7500 -23.7500   1.5000 Du        
  21925 ****        -5.7500 -23.7500   1.7500 Du        
  21926 ****        -5.7500 -23.7500   2.0000 Du        
  21927 ****        -5.7500 -23.7500   2.2500 Du        
  21928 ****        -5.7500 -23.7500   2.5000 Du        
  21929 ****        -5.7500 -23.7500   2.7500 Du        
  21930 ****        -5.7500 -23.7500   3.0000 Du        
  21931 ****        -5.7500 -23.5000   1.0000 Du        
  21932 ****        -5.7500 -23.5000   1.2500 Du        
  21933 ****        -5.7500 -23.5000   1.5000 Du        
  21934 ****        -5.7500 -23.5000   1.7500 Du        
  21935 ****        -5.7500 -23.5000   2.0000 Du        
  21936 ****        -5.7500 -23.5000   2.2500 Du        
  21937 ****        -5.7500 -23.5000   2.5000 Du        
  21938 ****        -5.7500 -23.5000   2.7500 Du        
  21939 ****        -5.7500 -23.5000   3.0000 Du        
  21940 ****        -5.7500 -23.5000   3.2500 Du        
  21941 ****        -5.7500 -23.2500 -29.2500 Du        
  21942 ****        -5.7500 -23.2500 -29.0000 Du        
  21943 ****        -5.7500 -23.2500   1.5000 Du        
  21944 ****        -5.7500 -23.2500   1.7500 Du        
  21945 ****        -5.7500 -23.2500   2.0000 Du        
  21946 ****        -5.7500 -23.2500   2.2500 Du        
  21947 ****        -5.7500 -23.2500   2.5000 Du        
  21948 ****        -5.7500 -23.2500   2.7500 Du        
  21949 ****        -5.7500 -23.2500   3.0000 Du        
  21950 ****        -5.7500 -23.0000 -29.2500 Du        
  21951 ****        -5.7500 -23.0000 -29.0000 Du        
  21952 ****        -5.7500 -23.0000 -28.7500 Du        
  21953 ****        -5.7500 -23.0000   1.7500 Du        
  21954 ****        -5.7500 -23.0000   2.0000 Du        
  21955 ****        -5.7500 -23.0000   2.2500 Du        
  21956 ****        -5.7500 -23.0000   2.5000 Du        
  21957 ****        -5.7500 -23.0000   2.7500 Du        
  21958 ****        -5.7500 -22.7500 -29.2500 Du        
  21959 ****        -5.7500 -22.7500 -29.0000 Du        
  21960 ****        -5.7500 -22.7500 -28.7500 Du        
  21961 ****        -5.7500 -22.7500   2.0000 Du        
  21962 ****        -5.7500 -22.7500   2.2500 Du        
  21963 ****        -5.7500 -22.7500   2.5000 Du        
  21964 ****        -5.7500 -22.5000 -29.5000 Du        
  21965 ****        -5.7500 -22.5000 -29.2500 Du        
  21966 ****        -5.7500 -22.5000 -29.0000 Du        
  21967 ****        -5.7500 -22.5000 -28.7500 Du        
  21968 ****        -5.7500 -22.2500 -29.5000 Du        
  21969 ****        -5.7500 -22.2500 -29.2500 Du        
  21970 ****        -5.7500 -22.2500 -29.0000 Du        
  21971 ****        -5.7500 -22.2500 -28.7500 Du        
  21972 ****        -5.7500 -22.0000 -29.5000 Du        
  21973 ****        -5.7500 -22.0000 -29.2500 Du        
  21974 ****        -5.7500 -22.0000 -29.0000 Du        
  21975 ****        -5.7500 -22.0000 -28.7500 Du        
  21976 ****        -5.7500 -21.7500 -29.5000 Du        
  21977 ****        -5.7500 -21.7500 -29.2500 Du        
  21978 ****        -5.7500 -21.7500 -29.0000 Du        
  21979 ****        -5.7500 -21.7500 -28.7500 Du        
  21980 ****        -5.7500 -21.5000 -29.5000 Du        
  21981 ****        -5.7500 -21.5000 -29.2500 Du        
  21982 ****        -5.7500 -21.5000 -29.0000 Du        
  21983 ****        -5.7500 -21.5000 -28.7500 Du        
  21984 ****        -5.7500 -21.2500 -29.5000 Du        
  21985 ****        -5.7500 -21.2500 -29.2500 Du        
  21986 ****        -5.7500 -21.2500 -29.0000 Du        
  21987 ****        -5.7500 -21.0000 -29.2500 Du        
  21988 ****        -5.7500 -21.0000 -29.0000 Du        
  21989 ****        -5.7500 -21.0000 -28.7500 Du        
  21990 ****        -5.7500 -20.7500 -29.2500 Du        
  21991 ****        -5.7500 -20.7500 -29.0000 Du        
  21992 ****        -5.7500 -20.7500 -28.7500 Du        
  21993 ****        -5.7500 -20.5000 -29.2500 Du        
  21994 ****        -5.7500 -20.5000 -29.0000 Du        
  21995 ****        -5.7500 -20.5000 -28.7500 Du        
  21996 ****        -5.7500 -20.2500 -29.2500 Du        
  21997 ****        -5.7500 -20.2500 -29.0000 Du        
  21998 ****        -5.7500 -20.2500 -28.7500 Du        
  21999 ****        -5.7500 -20.0000 -29.2500 Du        
  22000 ****        -5.7500 -20.0000 -29.0000 Du        
  22001 ****        -5.7500 -20.0000 -28.7500 Du        
  22002 ****        -5.7500 -20.0000 -28.5000 Du        
  22003 ****        -5.7500 -19.7500 -29.2500 Du        
  22004 ****        -5.7500 -19.7500 -29.0000 Du        
  22005 ****        -5.7500 -19.7500 -28.7500 Du        
  22006 ****        -5.7500 -19.7500 -28.5000 Du        
  22007 ****        -5.7500 -19.5000 -29.0000 Du        
  22008 ****        -5.7500 -19.5000 -28.7500 Du        
  22009 ****        -5.7500 -19.5000 -28.5000 Du        
  22010 ****        -5.7500 -19.5000 -28.2500 Du        
  22011 ****        -5.7500 -19.2500 -29.0000 Du        
  22012 ****        -5.7500 -19.2500 -28.7500 Du        
  22013 ****        -5.7500 -19.2500 -28.5000 Du        
  22014 ****        -5.7500 -19.2500 -28.2500 Du        
  22015 ****        -5.7500 -19.2500 -28.0000 Du        
  22016 ****        -5.7500 -19.0000 -28.7500 Du        
  22017 ****        -5.7500 -19.0000 -28.5000 Du        
  22018 ****        -5.7500 -19.0000 -28.2500 Du        
  22019 ****        -5.7500 -19.0000 -28.0000 Du        
  22020 ****        -5.7500 -18.7500 -28.7500 Du        
  22021 ****        -5.7500 -18.7500 -28.5000 Du        
  22022 ****        -5.7500 -18.7500 -28.2500 Du        
  22023 ****        -5.7500 -18.7500 -28.0000 Du        
  22024 ****        -5.7500 -18.5000 -28.7500 Du        
  22025 ****        -5.7500 -18.5000 -28.5000 Du        
  22026 ****        -5.7500 -18.2500 -28.7500 Du        
  22027 ****        -5.7500 -18.2500 -28.5000 Du        
  22028 ****        -5.7500 -18.2500 -28.2500 Du        
  22029 ****        -5.7500 -18.0000 -28.7500 Du        
  22030 ****        -5.7500 -18.0000 -28.5000 Du        
  22031 ****        -5.7500 -18.0000 -28.2500 Du        
  22032 ****        -5.7500 -18.0000 -28.0000 Du        
  22033 ****        -5.7500 -17.7500 -28.7500 Du        
  22034 ****        -5.7500 -17.7500 -28.5000 Du        
  22035 ****        -5.7500 -17.7500 -28.2500 Du        
  22036 ****        -5.7500 -17.5000 -28.7500 Du        
  22037 ****        -5.7500 -17.2500 -28.7500 Du        
  22038 ****        -5.7500   2.5000 -27.0000 Du        
  22039 ****        -5.7500   2.5000 -26.7500 Du        
  22040 ****        -5.7500   2.7500 -27.7500 Du        
  22041 ****        -5.7500   2.7500 -27.2500 Du        
  22042 ****        -5.7500   2.7500 -27.0000 Du        
  22043 ****        -5.7500   2.7500 -26.7500 Du        
  22044 ****        -5.7500   3.0000 -26.7500 Du        
  22045 ****        -5.7500   4.0000 -17.7500 Du        
  22046 ****        -5.7500   4.0000 -17.5000 Du        
  22047 ****        -5.7500   4.0000 -17.2500 Du        
  22048 ****        -5.7500   4.0000 -17.0000 Du        
  22049 ****        -5.7500   4.0000 -16.7500 Du        
  22050 ****        -5.7500   4.0000 -16.5000 Du        
  22051 ****        -5.7500   4.0000 -16.2500 Du        
  22052 ****        -5.7500   4.2500 -18.0000 Du        
  22053 ****        -5.7500   4.2500 -17.7500 Du        
  22054 ****        -5.7500   4.2500 -17.5000 Du        
  22055 ****        -5.7500   4.2500 -17.2500 Du        
  22056 ****        -5.7500   4.2500 -17.0000 Du        
  22057 ****        -5.7500   4.2500 -16.7500 Du        
  22058 ****        -5.7500   4.2500 -16.5000 Du        
  22059 ****        -5.7500   4.2500 -16.2500 Du        
  22060 ****        -5.7500   4.2500 -16.0000 Du        
  22061 ****        -5.7500   4.5000 -17.7500 Du        
  22062 ****        -5.7500   4.5000 -17.5000 Du        
  22063 ****        -5.7500   4.5000 -17.2500 Du        
  22064 ****        -5.7500   4.5000 -17.0000 Du        
  22065 ****        -5.7500   4.5000 -16.7500 Du        
  22066 ****        -5.7500   4.5000 -16.5000 Du        
  22067 ****        -5.7500   4.5000 -16.2500 Du        
  22068 ****        -5.7500   4.5000 -16.0000 Du        
  22069 ****        -5.7500   4.7500 -17.7500 Du        
  22070 ****        -5.7500   4.7500 -17.5000 Du        
  22071 ****        -5.7500   4.7500 -17.2500 Du        
  22072 ****        -5.7500   4.7500 -17.0000 Du        
  22073 ****        -5.7500   4.7500 -16.7500 Du        
  22074 ****        -5.7500   4.7500 -16.5000 Du        
  22075 ****        -5.7500   4.7500 -16.2500 Du        
  22076 ****        -5.7500   4.7500 -16.0000 Du        
  22077 ****        -5.7500   5.0000 -17.7500 Du        
  22078 ****        -5.7500   5.0000 -17.5000 Du        
  22079 ****        -5.7500   5.0000 -17.2500 Du        
  22080 ****        -5.7500   5.0000 -17.0000 Du        
  22081 ****        -5.7500   5.0000 -16.7500 Du        
  22082 ****        -5.7500   5.0000 -16.5000 Du        
  22083 ****        -5.7500   5.0000 -16.2500 Du        
  22084 ****        -5.7500   5.0000 -16.0000 Du        
  22085 ****        -5.7500   5.2500 -17.5000 Du        
  22086 ****        -5.7500   5.2500 -17.2500 Du        
  22087 ****        -5.7500   5.2500 -17.0000 Du        
  22088 ****        -5.7500   5.2500 -16.7500 Du        
  22089 ****        -5.7500   5.2500 -16.5000 Du        
  22090 ****        -5.7500   5.2500 -16.2500 Du        
  22091 ****        -5.7500   5.2500 -16.0000 Du        
  22092 ****        -5.7500   5.5000 -17.2500 Du        
  22093 ****        -5.7500   5.5000 -17.0000 Du        
  22094 ****        -5.7500   5.5000 -16.7500 Du        
  22095 ****        -5.7500   5.5000 -16.5000 Du        
  22096 ****        -5.7500   5.5000 -16.2500 Du        
  22097 ****        -5.7500   5.7500 -17.2500 Du        
  22098 ****        -5.7500   5.7500 -17.0000 Du        
  22099 ****        -5.7500   5.7500 -16.7500 Du        
  22100 ****        -5.7500   5.7500 -16.5000 Du        
  22101 ****        -5.7500   5.7500 -16.2500 Du        
  22102 ****        -5.7500   6.0000 -17.2500 Du        
  22103 ****        -5.7500   6.0000 -17.0000 Du        
  22104 ****        -5.7500   6.0000 -16.7500 Du        
  22105 ****        -5.7500   6.0000 -16.5000 Du        
  22106 ****        -5.7500   6.2500 -17.2500 Du        
  22107 ****        -5.7500   6.2500 -17.0000 Du        
  22108 ****        -5.7500   6.2500 -16.7500 Du        
  22109 ****        -5.7500   6.2500 -16.5000 Du        
  22110 ****        -5.5000 -29.0000  -3.5000 Du        
  22111 ****        -5.5000 -29.0000  -3.2500 Du        
  22112 ****        -5.5000 -29.0000  -3.0000 Du        
  22113 ****        -5.5000 -28.7500  -4.2500 Du        
  22114 ****        -5.5000 -28.7500  -4.0000 Du        
  22115 ****        -5.5000 -28.7500  -3.7500 Du        
  22116 ****        -5.5000 -28.7500  -3.5000 Du        
  22117 ****        -5.5000 -28.7500  -3.2500 Du        
  22118 ****        -5.5000 -28.7500  -3.0000 Du        
  22119 ****        -5.5000 -28.7500  -2.7500 Du        
  22120 ****        -5.5000 -28.5000  -4.5000 Du        
  22121 ****        -5.5000 -28.5000  -4.2500 Du        
  22122 ****        -5.5000 -28.5000  -4.0000 Du        
  22123 ****        -5.5000 -28.5000  -3.7500 Du        
  22124 ****        -5.5000 -28.5000  -3.5000 Du        
  22125 ****        -5.5000 -28.5000  -3.2500 Du        
  22126 ****        -5.5000 -28.5000  -3.0000 Du        
  22127 ****        -5.5000 -28.5000  -2.7500 Du        
  22128 ****        -5.5000 -28.2500  -4.2500 Du        
  22129 ****        -5.5000 -28.2500  -4.0000 Du        
  22130 ****        -5.5000 -28.2500  -3.7500 Du        
  22131 ****        -5.5000 -28.2500  -3.5000 Du        
  22132 ****        -5.5000 -28.2500  -3.2500 Du        
  22133 ****        -5.5000 -28.2500  -3.0000 Du        
  22134 ****        -5.5000 -28.2500  -2.7500 Du        
  22135 ****        -5.5000 -28.2500  -2.5000 Du        
  22136 ****        -5.5000 -28.0000  -3.2500 Du        
  22137 ****        -5.5000 -28.0000  -3.0000 Du        
  22138 ****        -5.5000 -28.0000  -2.7500 Du        
  22139 ****        -5.5000 -28.0000  -2.5000 Du        
  22140 ****        -5.5000 -27.7500  -2.5000 Du        
  22141 ****        -5.5000 -27.7500  -2.2500 Du        
  22142 ****        -5.5000 -27.5000  -2.2500 Du        
  22143 ****        -5.5000 -27.5000  -2.0000 Du        
  22144 ****        -5.5000 -27.2500  -2.0000 Du        
  22145 ****        -5.5000 -27.2500  -1.7500 Du        
  22146 ****        -5.5000 -27.0000  -1.7500 Du        
  22147 ****        -5.5000 -27.0000  -1.5000 Du        
  22148 ****        -5.5000 -26.7500 -14.2500 Du        
  22149 ****        -5.5000 -26.7500 -14.0000 Du        
  22150 ****        -5.5000 -26.7500  -1.7500 Du        
  22151 ****        -5.5000 -26.7500  -1.5000 Du        
  22152 ****        -5.5000 -26.7500  -1.2500 Du        
  22153 ****        -5.5000 -26.5000 -14.2500 Du        
  22154 ****        -5.5000 -26.5000 -14.0000 Du        
  22155 ****        -5.5000 -26.5000 -13.7500 Du        
  22156 ****        -5.5000 -26.5000 -13.5000 Du        
  22157 ****        -5.5000 -26.5000  -1.5000 Du        
  22158 ****        -5.5000 -26.5000  -1.2500 Du        
  22159 ****        -5.5000 -26.5000  -1.0000 Du        
  22160 ****        -5.5000 -26.2500 -14.2500 Du        
  22161 ****        -5.5000 -26.2500 -14.0000 Du        
  22162 ****        -5.5000 -26.2500 -13.7500 Du        
  22163 ****        -5.5000 -26.2500 -13.5000 Du        
  22164 ****        -5.5000 -26.2500  -1.5000 Du        
  22165 ****        -5.5000 -26.2500  -1.2500 Du        
  22166 ****        -5.5000 -26.2500  -1.0000 Du        
  22167 ****        -5.5000 -26.2500  -0.7500 Du        
  22168 ****        -5.5000 -26.0000 -28.2500 Du        
  22169 ****        -5.5000 -26.0000 -28.0000 Du        
  22170 ****        -5.5000 -26.0000 -14.2500 Du        
  22171 ****        -5.5000 -26.0000 -14.0000 Du        
  22172 ****        -5.5000 -26.0000 -13.7500 Du        
  22173 ****        -5.5000 -26.0000 -13.5000 Du        
  22174 ****        -5.5000 -26.0000  -1.5000 Du        
  22175 ****        -5.5000 -26.0000  -1.2500 Du        
  22176 ****        -5.5000 -26.0000  -1.0000 Du        
  22177 ****        -5.5000 -26.0000  -0.7500 Du        
  22178 ****        -5.5000 -25.7500 -28.2500 Du        
  22179 ****        -5.5000 -25.7500 -28.0000 Du        
  22180 ****        -5.5000 -25.7500 -14.2500 Du        
  22181 ****        -5.5000 -25.7500 -14.0000 Du        
  22182 ****        -5.5000 -25.7500 -13.7500 Du        
  22183 ****        -5.5000 -25.7500 -13.5000 Du        
  22184 ****        -5.5000 -25.7500  -1.5000 Du        
  22185 ****        -5.5000 -25.7500  -1.2500 Du        
  22186 ****        -5.5000 -25.7500  -1.0000 Du        
  22187 ****        -5.5000 -25.7500  -0.7500 Du        
  22188 ****        -5.5000 -25.5000 -28.7500 Du        
  22189 ****        -5.5000 -25.5000 -28.5000 Du        
  22190 ****        -5.5000 -25.5000 -28.2500 Du        
  22191 ****        -5.5000 -25.5000 -28.0000 Du        
  22192 ****        -5.5000 -25.5000 -14.2500 Du        
  22193 ****        -5.5000 -25.5000 -14.0000 Du        
  22194 ****        -5.5000 -25.5000 -13.7500 Du        
  22195 ****        -5.5000 -25.5000  -1.2500 Du        
  22196 ****        -5.5000 -25.5000  -1.0000 Du        
  22197 ****        -5.5000 -25.5000  -0.7500 Du        
  22198 ****        -5.5000 -25.2500 -28.7500 Du        
  22199 ****        -5.5000 -25.2500 -28.5000 Du        
  22200 ****        -5.5000 -25.2500 -28.2500 Du        
  22201 ****        -5.5000 -25.2500 -28.0000 Du        
  22202 ****        -5.5000 -25.2500 -27.7500 Du        
  22203 ****        -5.5000 -25.2500 -14.2500 Du        
  22204 ****        -5.5000 -25.2500 -14.0000 Du        
  22205 ****        -5.5000 -25.2500 -13.7500 Du        
  22206 ****        -5.5000 -25.2500  -1.2500 Du        
  22207 ****        -5.5000 -25.2500  -1.0000 Du        
  22208 ****        -5.5000 -25.2500  -0.7500 Du        
  22209 ****        -5.5000 -25.2500   1.2500 Du        
  22210 ****        -5.5000 -25.2500   1.5000 Du        
  22211 ****        -5.5000 -25.0000 -29.2500 Du        
  22212 ****        -5.5000 -25.0000 -29.0000 Du        
  22213 ****        -5.5000 -25.0000 -28.7500 Du        
  22214 ****        -5.5000 -25.0000 -28.5000 Du        
  22215 ****        -5.5000 -25.0000 -28.2500 Du        
  22216 ****        -5.5000 -25.0000 -28.0000 Du        
  22217 ****        -5.5000 -25.0000 -27.7500 Du        
  22218 ****        -5.5000 -25.0000 -14.2500 Du        
  22219 ****        -5.5000 -25.0000 -14.0000 Du        
  22220 ****        -5.5000 -25.0000  -1.2500 Du        
  22221 ****        -5.5000 -25.0000  -1.0000 Du        
  22222 ****        -5.5000 -25.0000   1.0000 Du        
  22223 ****        -5.5000 -25.0000   1.2500 Du        
  22224 ****        -5.5000 -25.0000   1.5000 Du        
  22225 ****        -5.5000 -25.0000   1.7500 Du        
  22226 ****        -5.5000 -25.0000   2.0000 Du        
  22227 ****        -5.5000 -24.7500 -29.2500 Du        
  22228 ****        -5.5000 -24.7500 -29.0000 Du        
  22229 ****        -5.5000 -24.7500 -28.7500 Du        
  22230 ****        -5.5000 -24.7500 -28.5000 Du        
  22231 ****        -5.5000 -24.7500 -28.2500 Du        
  22232 ****        -5.5000 -24.7500 -28.0000 Du        
  22233 ****        -5.5000 -24.7500 -27.7500 Du        
  22234 ****        -5.5000 -24.7500 -14.2500 Du        
  22235 ****        -5.5000 -24.7500  -1.2500 Du        
  22236 ****        -5.5000 -24.7500  -1.0000 Du        
  22237 ****        -5.5000 -24.7500   1.0000 Du        
  22238 ****        -5.5000 -24.7500   1.2500 Du        
  22239 ****        -5.5000 -24.7500   1.5000 Du        
  22240 ****        -5.5000 -24.7500   1.7500 Du        
  22241 ****        -5.5000 -24.7500   2.0000 Du        
  22242 ****        -5.5000 -24.5000 -29.0000 Du        
  22243 ****        -5.5000 -24.5000 -28.7500 Du        
  22244 ****        -5.5000 -24.5000 -28.5000 Du        
  22245 ****        -5.5000 -24.5000 -28.2500 Du        
  22246 ****        -5.5000 -24.5000 -28.0000 Du        
  22247 ****        -5.5000 -24.5000 -14.2500 Du        
  22248 ****        -5.5000 -24.5000  -1.5000 Du        
  22249 ****        -5.5000 -24.5000  -1.2500 Du        
  22250 ****        -5.5000 -24.5000  -1.0000 Du        
  22251 ****        -5.5000 -24.5000  -0.7500 Du        
  22252 ****        -5.5000 -24.5000   0.7500 Du        
  22253 ****        -5.5000 -24.5000   1.0000 Du        
  22254 ****        -5.5000 -24.5000   1.2500 Du        
  22255 ****        -5.5000 -24.5000   1.5000 Du        
  22256 ****        -5.5000 -24.5000   1.7500 Du        
  22257 ****        -5.5000 -24.5000   2.0000 Du        
  22258 ****        -5.5000 -24.5000   2.2500 Du        
  22259 ****        -5.5000 -24.5000   2.5000 Du        
  22260 ****        -5.5000 -24.2500 -29.0000 Du        
  22261 ****        -5.5000 -24.2500 -28.7500 Du        
  22262 ****        -5.5000 -24.2500 -28.5000 Du        
  22263 ****        -5.5000 -24.2500 -28.2500 Du        
  22264 ****        -5.5000 -24.2500 -28.0000 Du        
  22265 ****        -5.5000 -24.2500  -1.2500 Du        
  22266 ****        -5.5000 -24.2500  -1.0000 Du        
  22267 ****        -5.5000 -24.2500  -0.7500 Du        
  22268 ****        -5.5000 -24.2500   0.5000 Du        
  22269 ****        -5.5000 -24.2500   0.7500 Du        
  22270 ****        -5.5000 -24.2500   1.0000 Du        
  22271 ****        -5.5000 -24.2500   1.2500 Du        
  22272 ****        -5.5000 -24.2500   1.5000 Du        
  22273 ****        -5.5000 -24.2500   1.7500 Du        
  22274 ****        -5.5000 -24.2500   2.0000 Du        
  22275 ****        -5.5000 -24.2500   2.2500 Du        
  22276 ****        -5.5000 -24.2500   2.5000 Du        
  22277 ****        -5.5000 -24.0000 -29.0000 Du        
  22278 ****        -5.5000 -24.0000 -28.7500 Du        
  22279 ****        -5.5000 -24.0000  -0.7500 Du        
  22280 ****        -5.5000 -24.0000   0.2500 Du        
  22281 ****        -5.5000 -24.0000   0.5000 Du        
  22282 ****        -5.5000 -24.0000   0.7500 Du        
  22283 ****        -5.5000 -24.0000   1.0000 Du        
  22284 ****        -5.5000 -24.0000   1.2500 Du        
  22285 ****        -5.5000 -24.0000   1.5000 Du        
  22286 ****        -5.5000 -24.0000   1.7500 Du        
  22287 ****        -5.5000 -24.0000   2.0000 Du        
  22288 ****        -5.5000 -24.0000   2.2500 Du        
  22289 ****        -5.5000 -24.0000   2.5000 Du        
  22290 ****        -5.5000 -24.0000   2.7500 Du        
  22291 ****        -5.5000 -24.0000   3.0000 Du        
  22292 ****        -5.5000 -23.7500 -29.0000 Du        
  22293 ****        -5.5000 -23.7500 -28.7500 Du        
  22294 ****        -5.5000 -23.7500   0.5000 Du        
  22295 ****        -5.5000 -23.7500   0.7500 Du        
  22296 ****        -5.5000 -23.7500   1.0000 Du        
  22297 ****        -5.5000 -23.7500   1.2500 Du        
  22298 ****        -5.5000 -23.7500   1.5000 Du        
  22299 ****        -5.5000 -23.7500   1.7500 Du        
  22300 ****        -5.5000 -23.7500   2.0000 Du        
  22301 ****        -5.5000 -23.7500   2.2500 Du        
  22302 ****        -5.5000 -23.7500   2.5000 Du        
  22303 ****        -5.5000 -23.7500   2.7500 Du        
  22304 ****        -5.5000 -23.7500   3.0000 Du        
  22305 ****        -5.5000 -23.5000 -29.2500 Du        
  22306 ****        -5.5000 -23.5000 -29.0000 Du        
  22307 ****        -5.5000 -23.5000 -28.7500 Du        
  22308 ****        -5.5000 -23.5000   0.7500 Du        
  22309 ****        -5.5000 -23.5000   1.0000 Du        
  22310 ****        -5.5000 -23.5000   1.2500 Du        
  22311 ****        -5.5000 -23.5000   1.5000 Du        
  22312 ****        -5.5000 -23.5000   1.7500 Du        
  22313 ****        -5.5000 -23.5000   2.0000 Du        
  22314 ****        -5.5000 -23.5000   2.2500 Du        
  22315 ****        -5.5000 -23.5000   2.5000 Du        
  22316 ****        -5.5000 -23.5000   2.7500 Du        
  22317 ****        -5.5000 -23.5000   3.0000 Du        
  22318 ****        -5.5000 -23.5000   3.2500 Du        
  22319 ****        -5.5000 -23.2500 -29.2500 Du        
  22320 ****        -5.5000 -23.2500 -29.0000 Du        
  22321 ****        -5.5000 -23.2500   1.2500 Du        
  22322 ****        -5.5000 -23.2500   1.5000 Du        
  22323 ****        -5.5000 -23.2500   1.7500 Du        
  22324 ****        -5.5000 -23.2500   2.0000 Du        
  22325 ****        -5.5000 -23.2500   2.2500 Du        
  22326 ****        -5.5000 -23.2500   2.5000 Du        
  22327 ****        -5.5000 -23.2500   2.7500 Du        
  22328 ****        -5.5000 -23.2500   3.0000 Du        
  22329 ****        -5.5000 -23.2500   3.2500 Du        
  22330 ****        -5.5000 -23.0000 -29.2500 Du        
  22331 ****        -5.5000 -23.0000 -29.0000 Du        
  22332 ****        -5.5000 -23.0000 -28.7500 Du        
  22333 ****        -5.5000 -23.0000   1.5000 Du        
  22334 ****        -5.5000 -23.0000   1.7500 Du        
  22335 ****        -5.5000 -23.0000   2.0000 Du        
  22336 ****        -5.5000 -23.0000   2.2500 Du        
  22337 ****        -5.5000 -23.0000   2.5000 Du        
  22338 ****        -5.5000 -23.0000   2.7500 Du        
  22339 ****        -5.5000 -23.0000   3.0000 Du        
  22340 ****        -5.5000 -22.7500 -29.2500 Du        
  22341 ****        -5.5000 -22.7500 -29.0000 Du        
  22342 ****        -5.5000 -22.7500   1.7500 Du        
  22343 ****        -5.5000 -22.7500   2.0000 Du        
  22344 ****        -5.5000 -22.7500   2.2500 Du        
  22345 ****        -5.5000 -22.7500   2.5000 Du        
  22346 ****        -5.5000 -22.7500   2.7500 Du        
  22347 ****        -5.5000 -22.5000 -29.2500 Du        
  22348 ****        -5.5000 -22.5000 -29.0000 Du        
  22349 ****        -5.5000 -22.2500 -29.2500 Du        
  22350 ****        -5.5000 -22.2500 -29.0000 Du        
  22351 ****        -5.5000 -19.7500 -28.7500 Du        
  22352 ****        -5.5000 -19.2500 -28.5000 Du        
  22353 ****        -5.5000 -19.2500 -28.2500 Du        
  22354 ****        -5.5000 -19.0000 -28.2500 Du        
  22355 ****        -5.5000 -19.0000 -28.0000 Du        
  22356 ****        -5.5000 -18.7500 -28.2500 Du        
  22357 ****        -5.5000 -18.7500 -28.0000 Du        
  22358 ****        -5.5000 -18.7500 -27.7500 Du        
  22359 ****        -5.5000 -18.5000 -28.2500 Du        
  22360 ****        -5.5000 -18.5000 -28.0000 Du        
  22361 ****        -5.5000 -18.5000 -27.7500 Du        
  22362 ****        -5.5000 -18.2500 -28.2500 Du        
  22363 ****        -5.5000 -18.2500 -28.0000 Du        
  22364 ****        -5.5000 -18.0000 -28.2500 Du        
  22365 ****        -5.5000 -18.0000 -28.0000 Du        
  22366 ****        -5.5000   2.5000 -26.7500 Du        
  22367 ****        -5.5000   2.5000 -26.5000 Du        
  22368 ****        -5.5000   2.5000 -26.2500 Du        
  22369 ****        -5.5000   2.7500 -27.0000 Du        
  22370 ****        -5.5000   2.7500 -26.7500 Du        
  22371 ****        -5.5000   2.7500 -26.5000 Du        
  22372 ****        -5.5000   2.7500 -26.2500 Du        
  22373 ****        -5.5000   3.0000 -26.7500 Du        
  22374 ****        -5.5000   3.0000 -26.5000 Du        
  22375 ****        -5.5000   3.7500 -18.2500 Du        
  22376 ****        -5.5000   3.7500 -18.0000 Du        
  22377 ****        -5.5000   3.7500 -17.7500 Du        
  22378 ****        -5.5000   3.7500 -17.5000 Du        
  22379 ****        -5.5000   3.7500 -17.2500 Du        
  22380 ****        -5.5000   3.7500 -17.0000 Du        
  22381 ****        -5.5000   3.7500 -16.7500 Du        
  22382 ****        -5.5000   3.7500 -16.5000 Du        
  22383 ****        -5.5000   4.0000 -18.2500 Du        
  22384 ****        -5.5000   4.0000 -18.0000 Du        
  22385 ****        -5.5000   4.0000 -17.7500 Du        
  22386 ****        -5.5000   4.0000 -17.5000 Du        
  22387 ****        -5.5000   4.0000 -17.2500 Du        
  22388 ****        -5.5000   4.0000 -17.0000 Du        
  22389 ****        -5.5000   4.0000 -16.7500 Du        
  22390 ****        -5.5000   4.0000 -16.5000 Du        
  22391 ****        -5.5000   4.0000 -16.2500 Du        
  22392 ****        -5.5000   4.2500 -18.0000 Du        
  22393 ****        -5.5000   4.2500 -17.7500 Du        
  22394 ****        -5.5000   4.2500 -17.5000 Du        
  22395 ****        -5.5000   4.2500 -17.2500 Du        
  22396 ****        -5.5000   4.2500 -17.0000 Du        
  22397 ****        -5.5000   4.2500 -16.7500 Du        
  22398 ****        -5.5000   4.2500 -16.5000 Du        
  22399 ****        -5.5000   4.2500 -16.2500 Du        
  22400 ****        -5.5000   4.2500 -16.0000 Du        
  22401 ****        -5.5000   4.5000 -17.7500 Du        
  22402 ****        -5.5000   4.5000 -17.5000 Du        
  22403 ****        -5.5000   4.5000 -17.2500 Du        
  22404 ****        -5.5000   4.5000 -17.0000 Du        
  22405 ****        -5.5000   4.5000 -16.7500 Du        
  22406 ****        -5.5000   4.5000 -16.5000 Du        
  22407 ****        -5.5000   4.5000 -16.2500 Du        
  22408 ****        -5.5000   4.7500 -17.7500 Du        
  22409 ****        -5.5000   4.7500 -17.5000 Du        
  22410 ****        -5.5000   4.7500 -17.2500 Du        
  22411 ****        -5.5000   4.7500 -17.0000 Du        
  22412 ****        -5.5000   4.7500 -16.7500 Du        
  22413 ****        -5.5000   4.7500 -16.5000 Du        
  22414 ****        -5.5000   4.7500 -16.2500 Du        
  22415 ****        -5.5000   5.0000 -17.5000 Du        
  22416 ****        -5.5000   5.0000 -17.2500 Du        
  22417 ****        -5.5000   5.0000 -17.0000 Du        
  22418 ****        -5.5000   5.0000 -16.7500 Du        
  22419 ****        -5.5000   5.0000 -16.5000 Du        
  22420 ****        -5.5000   5.0000 -16.2500 Du        
  22421 ****        -5.5000   5.2500 -17.5000 Du        
  22422 ****        -5.5000   5.2500 -17.2500 Du        
  22423 ****        -5.5000   5.2500 -17.0000 Du        
  22424 ****        -5.5000   5.2500 -16.7500 Du        
  22425 ****        -5.5000   5.2500 -16.5000 Du        
  22426 ****        -5.5000   5.5000 -17.5000 Du        
  22427 ****        -5.5000   5.5000 -17.2500 Du        
  22428 ****        -5.5000   5.5000 -17.0000 Du        
  22429 ****        -5.5000   5.5000 -16.7500 Du        
  22430 ****        -5.5000   5.5000 -16.5000 Du        
  22431 ****        -5.5000   5.7500 -17.5000 Du        
  22432 ****        -5.5000   5.7500 -17.2500 Du        
  22433 ****        -5.5000   5.7500 -17.0000 Du        
  22434 ****        -5.5000   5.7500 -16.7500 Du        
  22435 ****        -5.5000   5.7500 -16.5000 Du        
  22436 ****        -5.5000   6.0000 -17.2500 Du        
  22437 ****        -5.5000   6.0000 -17.0000 Du        
  22438 ****        -5.5000   6.0000 -16.7500 Du        
  22439 ****        -5.5000   6.0000 -16.5000 Du        
  22440 ****        -5.5000   6.2500 -17.0000 Du        
  22441 ****        -5.5000   6.2500 -16.7500 Du        
  22442 ****        -5.2500 -29.0000  -3.2500 Du        
  22443 ****        -5.2500 -29.0000  -3.0000 Du        
  22444 ****        -5.2500 -28.7500  -4.0000 Du        
  22445 ****        -5.2500 -28.7500  -3.7500 Du        
  22446 ****        -5.2500 -28.7500  -3.5000 Du        
  22447 ****        -5.2500 -28.7500  -3.2500 Du        
  22448 ****        -5.2500 -28.7500  -3.0000 Du        
  22449 ****        -5.2500 -28.7500  -2.7500 Du        
  22450 ****        -5.2500 -28.5000  -4.2500 Du        
  22451 ****        -5.2500 -28.5000  -4.0000 Du        
  22452 ****        -5.2500 -28.5000  -3.7500 Du        
  22453 ****        -5.2500 -28.5000  -3.5000 Du        
  22454 ****        -5.2500 -28.5000  -3.2500 Du        
  22455 ****        -5.2500 -28.5000  -3.0000 Du        
  22456 ****        -5.2500 -28.5000  -2.7500 Du        
  22457 ****        -5.2500 -28.2500  -4.0000 Du        
  22458 ****        -5.2500 -28.2500  -3.7500 Du        
  22459 ****        -5.2500 -28.2500  -3.5000 Du        
  22460 ****        -5.2500 -28.2500  -3.2500 Du        
  22461 ****        -5.2500 -28.2500  -3.0000 Du        
  22462 ****        -5.2500 -28.2500  -2.7500 Du        
  22463 ****        -5.2500 -28.2500  -2.5000 Du        
  22464 ****        -5.2500 -28.0000  -3.0000 Du        
  22465 ****        -5.2500 -28.0000  -2.7500 Du        
  22466 ****        -5.2500 -28.0000  -2.5000 Du        
  22467 ****        -5.2500 -27.7500  -2.5000 Du        
  22468 ****        -5.2500 -27.7500  -2.2500 Du        
  22469 ****        -5.2500 -27.5000  -2.0000 Du        
  22470 ****        -5.2500 -27.2500  -2.0000 Du        
  22471 ****        -5.2500 -27.2500  -1.7500 Du        
  22472 ****        -5.2500 -27.0000 -14.0000 Du        
  22473 ****        -5.2500 -27.0000  -1.7500 Du        
  22474 ****        -5.2500 -27.0000  -1.5000 Du        
  22475 ****        -5.2500 -26.7500 -14.2500 Du        
  22476 ****        -5.2500 -26.7500 -14.0000 Du        
  22477 ****        -5.2500 -26.7500  -1.5000 Du        
  22478 ****        -5.2500 -26.7500  -1.2500 Du        
  22479 ****        -5.2500 -26.5000 -14.5000 Du        
  22480 ****        -5.2500 -26.5000 -14.2500 Du        
  22481 ****        -5.2500 -26.5000 -14.0000 Du        
  22482 ****        -5.2500 -26.5000 -13.7500 Du        
  22483 ****        -5.2500 -26.5000  -1.5000 Du        
  22484 ****        -5.2500 -26.5000  -1.2500 Du        
  22485 ****        -5.2500 -26.5000  -1.0000 Du        
  22486 ****        -5.2500 -26.2500 -14.5000 Du        
  22487 ****        -5.2500 -26.2500 -14.2500 Du        
  22488 ****        -5.2500 -26.2500 -14.0000 Du        
  22489 ****        -5.2500 -26.2500 -13.7500 Du        
  22490 ****        -5.2500 -26.2500  -1.5000 Du        
  22491 ****        -5.2500 -26.2500  -1.2500 Du        
  22492 ****        -5.2500 -26.2500  -1.0000 Du        
  22493 ****        -5.2500 -26.2500  -0.7500 Du        
  22494 ****        -5.2500 -26.0000 -28.2500 Du        
  22495 ****        -5.2500 -26.0000 -28.0000 Du        
  22496 ****        -5.2500 -26.0000 -14.5000 Du        
  22497 ****        -5.2500 -26.0000 -14.2500 Du        
  22498 ****        -5.2500 -26.0000 -14.0000 Du        
  22499 ****        -5.2500 -26.0000 -13.7500 Du        
  22500 ****        -5.2500 -26.0000  -1.5000 Du        
  22501 ****        -5.2500 -26.0000  -1.2500 Du        
  22502 ****        -5.2500 -26.0000  -1.0000 Du        
  22503 ****        -5.2500 -26.0000  -0.7500 Du        
  22504 ****        -5.2500 -26.0000  -0.5000 Du        
  22505 ****        -5.2500 -25.7500 -28.2500 Du        
  22506 ****        -5.2500 -25.7500 -28.0000 Du        
  22507 ****        -5.2500 -25.7500 -27.7500 Du        
  22508 ****        -5.2500 -25.7500 -14.5000 Du        
  22509 ****        -5.2500 -25.7500 -14.2500 Du        
  22510 ****        -5.2500 -25.7500 -14.0000 Du        
  22511 ****        -5.2500 -25.7500 -13.7500 Du        
  22512 ****        -5.2500 -25.7500  -1.5000 Du        
  22513 ****        -5.2500 -25.7500  -1.2500 Du        
  22514 ****        -5.2500 -25.7500  -1.0000 Du        
  22515 ****        -5.2500 -25.7500  -0.7500 Du        
  22516 ****        -5.2500 -25.7500  -0.5000 Du        
  22517 ****        -5.2500 -25.7500  -0.2500 Du        
  22518 ****        -5.2500 -25.5000 -28.7500 Du        
  22519 ****        -5.2500 -25.5000 -28.5000 Du        
  22520 ****        -5.2500 -25.5000 -28.2500 Du        
  22521 ****        -5.2500 -25.5000 -28.0000 Du        
  22522 ****        -5.2500 -25.5000 -14.5000 Du        
  22523 ****        -5.2500 -25.5000 -14.2500 Du        
  22524 ****        -5.2500 -25.5000 -14.0000 Du        
  22525 ****        -5.2500 -25.5000 -13.7500 Du        
  22526 ****        -5.2500 -25.5000  -1.5000 Du        
  22527 ****        -5.2500 -25.5000  -1.2500 Du        
  22528 ****        -5.2500 -25.5000  -1.0000 Du        
  22529 ****        -5.2500 -25.5000  -0.7500 Du        
  22530 ****        -5.2500 -25.5000  -0.5000 Du        
  22531 ****        -5.2500 -25.5000  -0.2500 Du        
  22532 ****        -5.2500 -25.5000   0.0000 Du        
  22533 ****        -5.2500 -25.2500 -28.7500 Du        
  22534 ****        -5.2500 -25.2500 -28.5000 Du        
  22535 ****        -5.2500 -25.2500 -28.2500 Du        
  22536 ****        -5.2500 -25.2500 -28.0000 Du        
  22537 ****        -5.2500 -25.2500 -27.7500 Du        
  22538 ****        -5.2500 -25.2500 -14.5000 Du        
  22539 ****        -5.2500 -25.2500 -14.2500 Du        
  22540 ****        -5.2500 -25.2500 -14.0000 Du        
  22541 ****        -5.2500 -25.2500 -13.7500 Du        
  22542 ****        -5.2500 -25.2500  -1.5000 Du        
  22543 ****        -5.2500 -25.2500  -1.2500 Du        
  22544 ****        -5.2500 -25.2500  -1.0000 Du        
  22545 ****        -5.2500 -25.2500  -0.7500 Du        
  22546 ****        -5.2500 -25.2500  -0.5000 Du        
  22547 ****        -5.2500 -25.2500  -0.2500 Du        
  22548 ****        -5.2500 -25.2500   0.0000 Du        
  22549 ****        -5.2500 -25.2500   0.2500 Du        
  22550 ****        -5.2500 -25.2500   0.5000 Du        
  22551 ****        -5.2500 -25.2500   0.7500 Du        
  22552 ****        -5.2500 -25.2500   1.0000 Du        
  22553 ****        -5.2500 -25.2500   1.2500 Du        
  22554 ****        -5.2500 -25.2500   1.5000 Du        
  22555 ****        -5.2500 -25.0000 -29.2500 Du        
  22556 ****        -5.2500 -25.0000 -29.0000 Du        
  22557 ****        -5.2500 -25.0000 -28.7500 Du        
  22558 ****        -5.2500 -25.0000 -28.5000 Du        
  22559 ****        -5.2500 -25.0000 -28.2500 Du        
  22560 ****        -5.2500 -25.0000 -28.0000 Du        
  22561 ****        -5.2500 -25.0000 -14.5000 Du        
  22562 ****        -5.2500 -25.0000 -14.2500 Du        
  22563 ****        -5.2500 -25.0000 -14.0000 Du        
  22564 ****        -5.2500 -25.0000  -1.5000 Du        
  22565 ****        -5.2500 -25.0000  -1.2500 Du        
  22566 ****        -5.2500 -25.0000  -1.0000 Du        
  22567 ****        -5.2500 -25.0000  -0.7500 Du        
  22568 ****        -5.2500 -25.0000  -0.5000 Du        
  22569 ****        -5.2500 -25.0000  -0.2500 Du        
  22570 ****        -5.2500 -25.0000   0.0000 Du        
  22571 ****        -5.2500 -25.0000   0.2500 Du        
  22572 ****        -5.2500 -25.0000   0.5000 Du        
  22573 ****        -5.2500 -25.0000   0.7500 Du        
  22574 ****        -5.2500 -25.0000   1.0000 Du        
  22575 ****        -5.2500 -25.0000   1.2500 Du        
  22576 ****        -5.2500 -25.0000   1.5000 Du        
  22577 ****        -5.2500 -25.0000   1.7500 Du        
  22578 ****        -5.2500 -25.0000   2.0000 Du        
  22579 ****        -5.2500 -24.7500 -29.2500 Du        
  22580 ****        -5.2500 -24.7500 -29.0000 Du        
  22581 ****        -5.2500 -24.7500 -28.7500 Du        
  22582 ****        -5.2500 -24.7500 -28.5000 Du        
  22583 ****        -5.2500 -24.7500 -28.2500 Du        
  22584 ****        -5.2500 -24.7500 -28.0000 Du        
  22585 ****        -5.2500 -24.7500 -14.5000 Du        
  22586 ****        -5.2500 -24.7500 -14.2500 Du        
  22587 ****        -5.2500 -24.7500 -14.0000 Du        
  22588 ****        -5.2500 -24.7500  -1.5000 Du        
  22589 ****        -5.2500 -24.7500  -1.2500 Du        
  22590 ****        -5.2500 -24.7500  -1.0000 Du        
  22591 ****        -5.2500 -24.7500  -0.7500 Du        
  22592 ****        -5.2500 -24.7500  -0.5000 Du        
  22593 ****        -5.2500 -24.7500  -0.2500 Du        
  22594 ****        -5.2500 -24.7500   0.0000 Du        
  22595 ****        -5.2500 -24.7500   0.2500 Du        
  22596 ****        -5.2500 -24.7500   0.5000 Du        
  22597 ****        -5.2500 -24.7500   0.7500 Du        
  22598 ****        -5.2500 -24.7500   1.0000 Du        
  22599 ****        -5.2500 -24.7500   1.2500 Du        
  22600 ****        -5.2500 -24.7500   1.5000 Du        
  22601 ****        -5.2500 -24.7500   1.7500 Du        
  22602 ****        -5.2500 -24.7500   2.0000 Du        
  22603 ****        -5.2500 -24.5000 -29.0000 Du        
  22604 ****        -5.2500 -24.5000 -28.7500 Du        
  22605 ****        -5.2500 -24.5000 -28.5000 Du        
  22606 ****        -5.2500 -24.5000 -14.5000 Du        
  22607 ****        -5.2500 -24.5000 -14.2500 Du        
  22608 ****        -5.2500 -24.5000  -1.5000 Du        
  22609 ****        -5.2500 -24.5000  -1.2500 Du        
  22610 ****        -5.2500 -24.5000  -1.0000 Du        
  22611 ****        -5.2500 -24.5000  -0.7500 Du        
  22612 ****        -5.2500 -24.5000  -0.5000 Du        
  22613 ****        -5.2500 -24.5000  -0.2500 Du        
  22614 ****        -5.2500 -24.5000   0.0000 Du        
  22615 ****        -5.2500 -24.5000   0.2500 Du        
  22616 ****        -5.2500 -24.5000   0.5000 Du        
  22617 ****        -5.2500 -24.5000   0.7500 Du        
  22618 ****        -5.2500 -24.5000   1.0000 Du        
  22619 ****        -5.2500 -24.5000   1.2500 Du        
  22620 ****        -5.2500 -24.5000   1.5000 Du        
  22621 ****        -5.2500 -24.5000   1.7500 Du        
  22622 ****        -5.2500 -24.5000   2.0000 Du        
  22623 ****        -5.2500 -24.5000   2.2500 Du        
  22624 ****        -5.2500 -24.5000   2.5000 Du        
  22625 ****        -5.2500 -24.2500 -29.2500 Du        
  22626 ****        -5.2500 -24.2500 -29.0000 Du        
  22627 ****        -5.2500 -24.2500 -28.7500 Du        
  22628 ****        -5.2500 -24.2500  -1.5000 Du        
  22629 ****        -5.2500 -24.2500  -1.2500 Du        
  22630 ****        -5.2500 -24.2500  -1.0000 Du        
  22631 ****        -5.2500 -24.2500  -0.7500 Du        
  22632 ****        -5.2500 -24.2500  -0.5000 Du        
  22633 ****        -5.2500 -24.2500  -0.2500 Du        
  22634 ****        -5.2500 -24.2500   0.0000 Du        
  22635 ****        -5.2500 -24.2500   0.2500 Du        
  22636 ****        -5.2500 -24.2500   0.5000 Du        
  22637 ****        -5.2500 -24.2500   0.7500 Du        
  22638 ****        -5.2500 -24.2500   1.0000 Du        
  22639 ****        -5.2500 -24.2500   1.2500 Du        
  22640 ****        -5.2500 -24.2500   1.5000 Du        
  22641 ****        -5.2500 -24.2500   1.7500 Du        
  22642 ****        -5.2500 -24.2500   2.0000 Du        
  22643 ****        -5.2500 -24.2500   2.2500 Du        
  22644 ****        -5.2500 -24.2500   2.5000 Du        
  22645 ****        -5.2500 -24.0000 -29.2500 Du        
  22646 ****        -5.2500 -24.0000 -29.0000 Du        
  22647 ****        -5.2500 -24.0000 -28.7500 Du        
  22648 ****        -5.2500 -24.0000  -1.2500 Du        
  22649 ****        -5.2500 -24.0000  -1.0000 Du        
  22650 ****        -5.2500 -24.0000  -0.7500 Du        
  22651 ****        -5.2500 -24.0000  -0.5000 Du        
  22652 ****        -5.2500 -24.0000  -0.2500 Du        
  22653 ****        -5.2500 -24.0000   0.0000 Du        
  22654 ****        -5.2500 -24.0000   0.2500 Du        
  22655 ****        -5.2500 -24.0000   0.5000 Du        
  22656 ****        -5.2500 -24.0000   0.7500 Du        
  22657 ****        -5.2500 -24.0000   1.0000 Du        
  22658 ****        -5.2500 -24.0000   1.2500 Du        
  22659 ****        -5.2500 -24.0000   1.5000 Du        
  22660 ****        -5.2500 -24.0000   1.7500 Du        
  22661 ****        -5.2500 -24.0000   2.0000 Du        
  22662 ****        -5.2500 -24.0000   2.2500 Du        
  22663 ****        -5.2500 -24.0000   2.5000 Du        
  22664 ****        -5.2500 -24.0000   2.7500 Du        
  22665 ****        -5.2500 -24.0000   3.0000 Du        
  22666 ****        -5.2500 -23.7500 -29.2500 Du        
  22667 ****        -5.2500 -23.7500 -29.0000 Du        
  22668 ****        -5.2500 -23.7500  -1.0000 Du        
  22669 ****        -5.2500 -23.7500  -0.7500 Du        
  22670 ****        -5.2500 -23.7500  -0.5000 Du        
  22671 ****        -5.2500 -23.7500  -0.2500 Du        
  22672 ****        -5.2500 -23.7500   0.0000 Du        
  22673 ****        -5.2500 -23.7500   0.2500 Du        
  22674 ****        -5.2500 -23.7500   0.5000 Du        
  22675 ****        -5.2500 -23.7500   0.7500 Du        
  22676 ****        -5.2500 -23.7500   1.0000 Du        
  22677 ****        -5.2500 -23.7500   1.2500 Du        
  22678 ****        -5.2500 -23.7500   1.5000 Du        
  22679 ****        -5.2500 -23.7500   1.7500 Du        
  22680 ****        -5.2500 -23.7500   2.0000 Du        
  22681 ****        -5.2500 -23.7500   2.2500 Du        
  22682 ****        -5.2500 -23.7500   2.5000 Du        
  22683 ****        -5.2500 -23.7500   2.7500 Du        
  22684 ****        -5.2500 -23.7500   3.0000 Du        
  22685 ****        -5.2500 -23.5000 -29.0000 Du        
  22686 ****        -5.2500 -23.5000   0.0000 Du        
  22687 ****        -5.2500 -23.5000   0.2500 Du        
  22688 ****        -5.2500 -23.5000   0.5000 Du        
  22689 ****        -5.2500 -23.5000   0.7500 Du        
  22690 ****        -5.2500 -23.5000   1.0000 Du        
  22691 ****        -5.2500 -23.5000   1.2500 Du        
  22692 ****        -5.2500 -23.5000   1.5000 Du        
  22693 ****        -5.2500 -23.5000   1.7500 Du        
  22694 ****        -5.2500 -23.5000   2.0000 Du        
  22695 ****        -5.2500 -23.5000   2.2500 Du        
  22696 ****        -5.2500 -23.5000   2.5000 Du        
  22697 ****        -5.2500 -23.5000   2.7500 Du        
  22698 ****        -5.2500 -23.5000   3.0000 Du        
  22699 ****        -5.2500 -23.5000   3.2500 Du        
  22700 ****        -5.2500 -23.5000   3.5000 Du        
  22701 ****        -5.2500 -23.2500 -29.2500 Du        
  22702 ****        -5.2500 -23.2500 -29.0000 Du        
  22703 ****        -5.2500 -23.2500   0.7500 Du        
  22704 ****        -5.2500 -23.2500   1.0000 Du        
  22705 ****        -5.2500 -23.2500   1.2500 Du        
  22706 ****        -5.2500 -23.2500   1.5000 Du        
  22707 ****        -5.2500 -23.2500   1.7500 Du        
  22708 ****        -5.2500 -23.2500   2.0000 Du        
  22709 ****        -5.2500 -23.2500   2.2500 Du        
  22710 ****        -5.2500 -23.2500   2.5000 Du        
  22711 ****        -5.2500 -23.2500   2.7500 Du        
  22712 ****        -5.2500 -23.2500   3.0000 Du        
  22713 ****        -5.2500 -23.2500   3.2500 Du        
  22714 ****        -5.2500 -23.0000   1.2500 Du        
  22715 ****        -5.2500 -23.0000   1.5000 Du        
  22716 ****        -5.2500 -23.0000   1.7500 Du        
  22717 ****        -5.2500 -23.0000   2.0000 Du        
  22718 ****        -5.2500 -23.0000   2.2500 Du        
  22719 ****        -5.2500 -23.0000   2.5000 Du        
  22720 ****        -5.2500 -23.0000   2.7500 Du        
  22721 ****        -5.2500 -23.0000   3.0000 Du        
  22722 ****        -5.2500 -22.7500   1.5000 Du        
  22723 ****        -5.2500 -22.7500   1.7500 Du        
  22724 ****        -5.2500 -22.7500   2.0000 Du        
  22725 ****        -5.2500 -22.7500   2.2500 Du        
  22726 ****        -5.2500 -22.7500   2.5000 Du        
  22727 ****        -5.2500 -22.7500   2.7500 Du        
  22728 ****        -5.2500 -22.5000   2.0000 Du        
  22729 ****        -5.2500 -22.5000   2.2500 Du        
  22730 ****        -5.2500 -19.0000 -28.0000 Du        
  22731 ****        -5.2500 -18.7500 -28.0000 Du        
  22732 ****        -5.2500 -18.7500 -27.7500 Du        
  22733 ****        -5.2500 -18.5000 -28.0000 Du        
  22734 ****        -5.2500 -18.5000 -27.7500 Du        
  22735 ****        -5.2500 -18.2500 -28.0000 Du        
  22736 ****        -5.2500 -18.2500 -27.7500 Du        
  22737 ****        -5.2500 -18.0000 -28.0000 Du        
  22738 ****        -5.2500 -17.7500 -28.0000 Du        
  22739 ****        -5.2500   3.2500 -18.5000 Du        
  22740 ****        -5.2500   3.2500 -18.2500 Du        
  22741 ****        -5.2500   3.5000 -18.5000 Du        
  22742 ****        -5.2500   3.5000 -18.2500 Du        
  22743 ****        -5.2500   3.5000 -18.0000 Du        
  22744 ****        -5.2500   3.5000 -17.7500 Du        
  22745 ****        -5.2500   3.5000 -17.5000 Du        
  22746 ****        -5.2500   3.5000 -17.2500 Du        
  22747 ****        -5.2500   3.5000 -17.0000 Du        
  22748 ****        -5.2500   3.5000 -16.7500 Du        
  22749 ****        -5.2500   3.7500 -18.5000 Du        
  22750 ****        -5.2500   3.7500 -18.2500 Du        
  22751 ****        -5.2500   3.7500 -18.0000 Du        
  22752 ****        -5.2500   3.7500 -17.7500 Du        
  22753 ****        -5.2500   3.7500 -17.5000 Du        
  22754 ****        -5.2500   3.7500 -17.2500 Du        
  22755 ****        -5.2500   3.7500 -17.0000 Du        
  22756 ****        -5.2500   3.7500 -16.7500 Du        
  22757 ****        -5.2500   3.7500 -16.5000 Du        
  22758 ****        -5.2500   4.0000 -18.5000 Du        
  22759 ****        -5.2500   4.0000 -18.2500 Du        
  22760 ****        -5.2500   4.0000 -18.0000 Du        
  22761 ****        -5.2500   4.0000 -17.7500 Du        
  22762 ****        -5.2500   4.0000 -17.5000 Du        
  22763 ****        -5.2500   4.0000 -17.2500 Du        
  22764 ****        -5.2500   4.0000 -17.0000 Du        
  22765 ****        -5.2500   4.0000 -16.7500 Du        
  22766 ****        -5.2500   4.0000 -16.5000 Du        
  22767 ****        -5.2500   4.0000 -16.2500 Du        
  22768 ****        -5.2500   4.2500 -18.2500 Du        
  22769 ****        -5.2500   4.2500 -18.0000 Du        
  22770 ****        -5.2500   4.2500 -17.7500 Du        
  22771 ****        -5.2500   4.2500 -17.5000 Du        
  22772 ****        -5.2500   4.2500 -17.2500 Du        
  22773 ****        -5.2500   4.2500 -17.0000 Du        
  22774 ****        -5.2500   4.2500 -16.7500 Du        
  22775 ****        -5.2500   4.2500 -16.5000 Du        
  22776 ****        -5.2500   4.2500 -16.2500 Du        
  22777 ****        -5.2500   4.5000 -18.0000 Du        
  22778 ****        -5.2500   4.5000 -17.7500 Du        
  22779 ****        -5.2500   4.5000 -17.5000 Du        
  22780 ****        -5.2500   4.5000 -17.2500 Du        
  22781 ****        -5.2500   4.5000 -17.0000 Du        
  22782 ****        -5.2500   4.5000 -16.7500 Du        
  22783 ****        -5.2500   4.5000 -16.5000 Du        
  22784 ****        -5.2500   4.5000 -16.2500 Du        
  22785 ****        -5.2500   4.7500 -17.7500 Du        
  22786 ****        -5.2500   4.7500 -17.5000 Du        
  22787 ****        -5.2500   4.7500 -17.2500 Du        
  22788 ****        -5.2500   4.7500 -17.0000 Du        
  22789 ****        -5.2500   4.7500 -16.7500 Du        
  22790 ****        -5.2500   4.7500 -16.5000 Du        
  22791 ****        -5.2500   5.0000 -17.5000 Du        
  22792 ****        -5.2500   5.0000 -17.2500 Du        
  22793 ****        -5.2500   5.0000 -17.0000 Du        
  22794 ****        -5.2500   5.0000 -16.7500 Du        
  22795 ****        -5.2500   5.0000 -16.5000 Du        
  22796 ****        -5.2500   5.2500 -17.5000 Du        
  22797 ****        -5.2500   5.2500 -17.2500 Du        
  22798 ****        -5.2500   5.2500 -17.0000 Du        
  22799 ****        -5.2500   5.2500 -16.7500 Du        
  22800 ****        -5.2500   5.2500 -16.5000 Du        
  22801 ****        -5.2500   5.5000 -17.5000 Du        
  22802 ****        -5.2500   5.5000 -17.2500 Du        
  22803 ****        -5.2500   5.5000 -17.0000 Du        
  22804 ****        -5.2500   5.5000 -16.7500 Du        
  22805 ****        -5.2500   5.7500 -17.5000 Du        
  22806 ****        -5.2500   5.7500 -17.2500 Du        
  22807 ****        -5.2500   5.7500 -17.0000 Du        
  22808 ****        -5.2500   5.7500 -16.7500 Du        
  22809 ****        -5.2500   6.0000 -17.5000 Du        
  22810 ****        -5.2500   6.0000 -17.2500 Du        
  22811 ****        -5.2500   6.0000 -17.0000 Du        
  22812 ****        -5.2500   6.0000 -16.7500 Du        
  22813 ****        -5.2500   6.2500 -17.2500 Du        
  22814 ****        -5.2500   6.2500 -17.0000 Du        
  22815 ****        -5.2500   6.2500 -16.7500 Du        
  22816 ****        -5.0000 -29.0000  -3.2500 Du        
  22817 ****        -5.0000 -29.0000  -3.0000 Du        
  22818 ****        -5.0000 -28.7500  -4.0000 Du        
  22819 ****        -5.0000 -28.7500  -3.7500 Du        
  22820 ****        -5.0000 -28.7500  -3.5000 Du        
  22821 ****        -5.0000 -28.7500  -3.2500 Du        
  22822 ****        -5.0000 -28.7500  -3.0000 Du        
  22823 ****        -5.0000 -28.5000  -4.0000 Du        
  22824 ****        -5.0000 -28.5000  -3.7500 Du        
  22825 ****        -5.0000 -28.5000  -3.5000 Du        
  22826 ****        -5.0000 -28.5000  -3.2500 Du        
  22827 ****        -5.0000 -28.5000  -3.0000 Du        
  22828 ****        -5.0000 -28.5000  -2.7500 Du        
  22829 ****        -5.0000 -28.2500  -3.5000 Du        
  22830 ****        -5.0000 -28.2500  -3.2500 Du        
  22831 ****        -5.0000 -28.2500  -3.0000 Du        
  22832 ****        -5.0000 -28.2500  -2.7500 Du        
  22833 ****        -5.0000 -28.2500  -2.5000 Du        
  22834 ****        -5.0000 -28.0000  -3.0000 Du        
  22835 ****        -5.0000 -28.0000  -2.7500 Du        
  22836 ****        -5.0000 -28.0000  -2.5000 Du        
  22837 ****        -5.0000 -28.0000  -2.2500 Du        
  22838 ****        -5.0000 -27.7500  -2.2500 Du        
  22839 ****        -5.0000 -27.5000  -2.0000 Du        
  22840 ****        -5.0000 -27.2500  -1.7500 Du        
  22841 ****        -5.0000 -27.0000  -1.7500 Du        
  22842 ****        -5.0000 -27.0000  -1.5000 Du        
  22843 ****        -5.0000 -26.7500 -14.5000 Du        
  22844 ****        -5.0000 -26.7500 -14.2500 Du        
  22845 ****        -5.0000 -26.7500  -1.5000 Du        
  22846 ****        -5.0000 -26.7500  -1.2500 Du        
  22847 ****        -5.0000 -26.5000 -14.7500 Du        
  22848 ****        -5.0000 -26.5000 -14.5000 Du        
  22849 ****        -5.0000 -26.5000 -14.2500 Du        
  22850 ****        -5.0000 -26.5000 -14.0000 Du        
  22851 ****        -5.0000 -26.5000  -1.5000 Du        
  22852 ****        -5.0000 -26.5000  -1.2500 Du        
  22853 ****        -5.0000 -26.5000  -1.0000 Du        
  22854 ****        -5.0000 -26.2500 -14.7500 Du        
  22855 ****        -5.0000 -26.2500 -14.5000 Du        
  22856 ****        -5.0000 -26.2500 -14.2500 Du        
  22857 ****        -5.0000 -26.2500 -14.0000 Du        
  22858 ****        -5.0000 -26.2500  -1.5000 Du        
  22859 ****        -5.0000 -26.2500  -1.2500 Du        
  22860 ****        -5.0000 -26.2500  -1.0000 Du        
  22861 ****        -5.0000 -26.2500  -0.7500 Du        
  22862 ****        -5.0000 -26.0000 -28.2500 Du        
  22863 ****        -5.0000 -26.0000 -28.0000 Du        
  22864 ****        -5.0000 -26.0000 -14.7500 Du        
  22865 ****        -5.0000 -26.0000 -14.5000 Du        
  22866 ****        -5.0000 -26.0000 -14.2500 Du        
  22867 ****        -5.0000 -26.0000 -14.0000 Du        
  22868 ****        -5.0000 -26.0000 -13.7500 Du        
  22869 ****        -5.0000 -26.0000  -1.5000 Du        
  22870 ****        -5.0000 -26.0000  -1.2500 Du        
  22871 ****        -5.0000 -26.0000  -1.0000 Du        
  22872 ****        -5.0000 -26.0000  -0.7500 Du        
  22873 ****        -5.0000 -26.0000  -0.5000 Du        
  22874 ****        -5.0000 -25.7500 -28.2500 Du        
  22875 ****        -5.0000 -25.7500 -28.0000 Du        
  22876 ****        -5.0000 -25.7500 -27.7500 Du        
  22877 ****        -5.0000 -25.7500 -14.5000 Du        
  22878 ****        -5.0000 -25.7500 -14.2500 Du        
  22879 ****        -5.0000 -25.7500 -14.0000 Du        
  22880 ****        -5.0000 -25.7500 -13.7500 Du        
  22881 ****        -5.0000 -25.7500  -1.2500 Du        
  22882 ****        -5.0000 -25.7500  -1.0000 Du        
  22883 ****        -5.0000 -25.7500  -0.7500 Du        
  22884 ****        -5.0000 -25.7500  -0.5000 Du        
  22885 ****        -5.0000 -25.7500  -0.2500 Du        
  22886 ****        -5.0000 -25.5000 -28.7500 Du        
  22887 ****        -5.0000 -25.5000 -28.5000 Du        
  22888 ****        -5.0000 -25.5000 -28.2500 Du        
  22889 ****        -5.0000 -25.5000 -28.0000 Du        
  22890 ****        -5.0000 -25.5000 -14.7500 Du        
  22891 ****        -5.0000 -25.5000 -14.5000 Du        
  22892 ****        -5.0000 -25.5000 -14.2500 Du        
  22893 ****        -5.0000 -25.5000 -14.0000 Du        
  22894 ****        -5.0000 -25.5000 -13.7500 Du        
  22895 ****        -5.0000 -25.5000  -1.2500 Du        
  22896 ****        -5.0000 -25.5000  -1.0000 Du        
  22897 ****        -5.0000 -25.5000  -0.7500 Du        
  22898 ****        -5.0000 -25.5000  -0.5000 Du        
  22899 ****        -5.0000 -25.5000  -0.2500 Du        
  22900 ****        -5.0000 -25.5000   0.0000 Du        
  22901 ****        -5.0000 -25.5000   0.2500 Du        
  22902 ****        -5.0000 -25.5000   0.5000 Du        
  22903 ****        -5.0000 -25.2500 -28.7500 Du        
  22904 ****        -5.0000 -25.2500 -28.5000 Du        
  22905 ****        -5.0000 -25.2500 -28.2500 Du        
  22906 ****        -5.0000 -25.2500 -28.0000 Du        
  22907 ****        -5.0000 -25.2500 -14.5000 Du        
  22908 ****        -5.0000 -25.2500 -14.2500 Du        
  22909 ****        -5.0000 -25.2500 -14.0000 Du        
  22910 ****        -5.0000 -25.2500  -1.2500 Du        
  22911 ****        -5.0000 -25.2500  -1.0000 Du        
  22912 ****        -5.0000 -25.2500  -0.7500 Du        
  22913 ****        -5.0000 -25.2500  -0.5000 Du        
  22914 ****        -5.0000 -25.2500  -0.2500 Du        
  22915 ****        -5.0000 -25.2500   0.0000 Du        
  22916 ****        -5.0000 -25.2500   0.2500 Du        
  22917 ****        -5.0000 -25.2500   0.5000 Du        
  22918 ****        -5.0000 -25.2500   0.7500 Du        
  22919 ****        -5.0000 -25.2500   1.0000 Du        
  22920 ****        -5.0000 -25.2500   1.2500 Du        
  22921 ****        -5.0000 -25.2500   1.5000 Du        
  22922 ****        -5.0000 -25.0000 -29.2500 Du        
  22923 ****        -5.0000 -25.0000 -29.0000 Du        
  22924 ****        -5.0000 -25.0000 -28.7500 Du        
  22925 ****        -5.0000 -25.0000 -28.5000 Du        
  22926 ****        -5.0000 -25.0000 -28.2500 Du        
  22927 ****        -5.0000 -25.0000 -14.5000 Du        
  22928 ****        -5.0000 -25.0000 -14.2500 Du        
  22929 ****        -5.0000 -25.0000 -14.0000 Du        
  22930 ****        -5.0000 -25.0000  -1.2500 Du        
  22931 ****        -5.0000 -25.0000  -1.0000 Du        
  22932 ****        -5.0000 -25.0000  -0.7500 Du        
  22933 ****        -5.0000 -25.0000  -0.5000 Du        
  22934 ****        -5.0000 -25.0000  -0.2500 Du        
  22935 ****        -5.0000 -25.0000   0.0000 Du        
  22936 ****        -5.0000 -25.0000   0.2500 Du        
  22937 ****        -5.0000 -25.0000   0.5000 Du        
  22938 ****        -5.0000 -25.0000   0.7500 Du        
  22939 ****        -5.0000 -25.0000   1.0000 Du        
  22940 ****        -5.0000 -25.0000   1.2500 Du        
  22941 ****        -5.0000 -25.0000   1.5000 Du        
  22942 ****        -5.0000 -25.0000   1.7500 Du        
  22943 ****        -5.0000 -25.0000   2.0000 Du        
  22944 ****        -5.0000 -24.7500 -29.2500 Du        
  22945 ****        -5.0000 -24.7500 -29.0000 Du        
  22946 ****        -5.0000 -24.7500 -28.7500 Du        
  22947 ****        -5.0000 -24.7500 -14.5000 Du        
  22948 ****        -5.0000 -24.7500 -14.2500 Du        
  22949 ****        -5.0000 -24.7500  -1.2500 Du        
  22950 ****        -5.0000 -24.7500  -1.0000 Du        
  22951 ****        -5.0000 -24.7500  -0.7500 Du        
  22952 ****        -5.0000 -24.7500  -0.5000 Du        
  22953 ****        -5.0000 -24.7500  -0.2500 Du        
  22954 ****        -5.0000 -24.7500   0.0000 Du        
  22955 ****        -5.0000 -24.7500   0.2500 Du        
  22956 ****        -5.0000 -24.7500   0.5000 Du        
  22957 ****        -5.0000 -24.7500   0.7500 Du        
  22958 ****        -5.0000 -24.7500   1.0000 Du        
  22959 ****        -5.0000 -24.7500   1.2500 Du        
  22960 ****        -5.0000 -24.7500   1.5000 Du        
  22961 ****        -5.0000 -24.7500   1.7500 Du        
  22962 ****        -5.0000 -24.7500   2.0000 Du        
  22963 ****        -5.0000 -24.5000 -29.2500 Du        
  22964 ****        -5.0000 -24.5000 -29.0000 Du        
  22965 ****        -5.0000 -24.5000 -28.7500 Du        
  22966 ****        -5.0000 -24.5000 -14.5000 Du        
  22967 ****        -5.0000 -24.5000 -14.2500 Du        
  22968 ****        -5.0000 -24.5000  -1.2500 Du        
  22969 ****        -5.0000 -24.5000  -1.0000 Du        
  22970 ****        -5.0000 -24.5000  -0.7500 Du        
  22971 ****        -5.0000 -24.5000  -0.5000 Du        
  22972 ****        -5.0000 -24.5000  -0.2500 Du        
  22973 ****        -5.0000 -24.5000   0.0000 Du        
  22974 ****        -5.0000 -24.5000   0.2500 Du        
  22975 ****        -5.0000 -24.5000   0.5000 Du        
  22976 ****        -5.0000 -24.5000   0.7500 Du        
  22977 ****        -5.0000 -24.5000   1.0000 Du        
  22978 ****        -5.0000 -24.5000   1.2500 Du        
  22979 ****        -5.0000 -24.5000   1.5000 Du        
  22980 ****        -5.0000 -24.5000   1.7500 Du        
  22981 ****        -5.0000 -24.5000   2.0000 Du        
  22982 ****        -5.0000 -24.5000   2.2500 Du        
  22983 ****        -5.0000 -24.5000   2.5000 Du        
  22984 ****        -5.0000 -24.2500 -29.2500 Du        
  22985 ****        -5.0000 -24.2500 -29.0000 Du        
  22986 ****        -5.0000 -24.2500  -1.2500 Du        
  22987 ****        -5.0000 -24.2500  -1.0000 Du        
  22988 ****        -5.0000 -24.2500  -0.7500 Du        
  22989 ****        -5.0000 -24.2500  -0.5000 Du        
  22990 ****        -5.0000 -24.2500  -0.2500 Du        
  22991 ****        -5.0000 -24.2500   0.0000 Du        
  22992 ****        -5.0000 -24.2500   0.2500 Du        
  22993 ****        -5.0000 -24.2500   0.5000 Du        
  22994 ****        -5.0000 -24.2500   0.7500 Du        
  22995 ****        -5.0000 -24.2500   1.0000 Du        
  22996 ****        -5.0000 -24.2500   1.2500 Du        
  22997 ****        -5.0000 -24.2500   1.5000 Du        
  22998 ****        -5.0000 -24.2500   1.7500 Du        
  22999 ****        -5.0000 -24.2500   2.0000 Du        
  23000 ****        -5.0000 -24.2500   2.2500 Du        
  23001 ****        -5.0000 -24.2500   2.5000 Du        
  23002 ****        -5.0000 -24.0000 -29.2500 Du        
  23003 ****        -5.0000 -24.0000 -29.0000 Du        
  23004 ****        -5.0000 -24.0000  -1.2500 Du        
  23005 ****        -5.0000 -24.0000  -1.0000 Du        
  23006 ****        -5.0000 -24.0000  -0.7500 Du        
  23007 ****        -5.0000 -24.0000  -0.5000 Du        
  23008 ****        -5.0000 -24.0000  -0.2500 Du        
  23009 ****        -5.0000 -24.0000   0.0000 Du        
  23010 ****        -5.0000 -24.0000   0.2500 Du        
  23011 ****        -5.0000 -24.0000   0.5000 Du        
  23012 ****        -5.0000 -24.0000   0.7500 Du        
  23013 ****        -5.0000 -24.0000   1.0000 Du        
  23014 ****        -5.0000 -24.0000   1.2500 Du        
  23015 ****        -5.0000 -24.0000   1.5000 Du        
  23016 ****        -5.0000 -24.0000   1.7500 Du        
  23017 ****        -5.0000 -24.0000   2.0000 Du        
  23018 ****        -5.0000 -24.0000   2.2500 Du        
  23019 ****        -5.0000 -24.0000   2.5000 Du        
  23020 ****        -5.0000 -24.0000   2.7500 Du        
  23021 ****        -5.0000 -24.0000   3.0000 Du        
  23022 ****        -5.0000 -23.7500  -1.2500 Du        
  23023 ****        -5.0000 -23.7500  -1.0000 Du        
  23024 ****        -5.0000 -23.7500  -0.7500 Du        
  23025 ****        -5.0000 -23.7500  -0.5000 Du        
  23026 ****        -5.0000 -23.7500  -0.2500 Du        
  23027 ****        -5.0000 -23.7500   0.0000 Du        
  23028 ****        -5.0000 -23.7500   0.2500 Du        
  23029 ****        -5.0000 -23.7500   0.5000 Du        
  23030 ****        -5.0000 -23.7500   0.7500 Du        
  23031 ****        -5.0000 -23.7500   1.0000 Du        
  23032 ****        -5.0000 -23.7500   1.2500 Du        
  23033 ****        -5.0000 -23.7500   1.5000 Du        
  23034 ****        -5.0000 -23.7500   1.7500 Du        
  23035 ****        -5.0000 -23.7500   2.0000 Du        
  23036 ****        -5.0000 -23.7500   2.2500 Du        
  23037 ****        -5.0000 -23.7500   2.5000 Du        
  23038 ****        -5.0000 -23.7500   2.7500 Du        
  23039 ****        -5.0000 -23.7500   3.0000 Du        
  23040 ****        -5.0000 -23.5000  -1.0000 Du        
  23041 ****        -5.0000 -23.5000  -0.7500 Du        
  23042 ****        -5.0000 -23.5000  -0.5000 Du        
  23043 ****        -5.0000 -23.5000  -0.2500 Du        
  23044 ****        -5.0000 -23.5000   0.0000 Du        
  23045 ****        -5.0000 -23.5000   0.2500 Du        
  23046 ****        -5.0000 -23.5000   0.5000 Du        
  23047 ****        -5.0000 -23.5000   0.7500 Du        
  23048 ****        -5.0000 -23.5000   1.0000 Du        
  23049 ****        -5.0000 -23.5000   1.2500 Du        
  23050 ****        -5.0000 -23.5000   1.5000 Du        
  23051 ****        -5.0000 -23.5000   1.7500 Du        
  23052 ****        -5.0000 -23.5000   2.0000 Du        
  23053 ****        -5.0000 -23.5000   2.2500 Du        
  23054 ****        -5.0000 -23.5000   2.5000 Du        
  23055 ****        -5.0000 -23.5000   2.7500 Du        
  23056 ****        -5.0000 -23.5000   3.0000 Du        
  23057 ****        -5.0000 -23.2500   0.0000 Du        
  23058 ****        -5.0000 -23.2500   0.2500 Du        
  23059 ****        -5.0000 -23.2500   0.5000 Du        
  23060 ****        -5.0000 -23.2500   0.7500 Du        
  23061 ****        -5.0000 -23.2500   1.0000 Du        
  23062 ****        -5.0000 -23.2500   1.2500 Du        
  23063 ****        -5.0000 -23.2500   1.5000 Du        
  23064 ****        -5.0000 -23.2500   1.7500 Du        
  23065 ****        -5.0000 -23.2500   2.0000 Du        
  23066 ****        -5.0000 -23.2500   2.2500 Du        
  23067 ****        -5.0000 -23.2500   2.5000 Du        
  23068 ****        -5.0000 -23.2500   2.7500 Du        
  23069 ****        -5.0000 -23.2500   3.0000 Du        
  23070 ****        -5.0000 -23.0000   0.7500 Du        
  23071 ****        -5.0000 -23.0000   1.0000 Du        
  23072 ****        -5.0000 -23.0000   1.2500 Du        
  23073 ****        -5.0000 -23.0000   1.5000 Du        
  23074 ****        -5.0000 -23.0000   1.7500 Du        
  23075 ****        -5.0000 -23.0000   2.0000 Du        
  23076 ****        -5.0000 -23.0000   2.2500 Du        
  23077 ****        -5.0000 -23.0000   2.5000 Du        
  23078 ****        -5.0000 -23.0000   2.7500 Du        
  23079 ****        -5.0000 -23.0000   3.0000 Du        
  23080 ****        -5.0000 -22.7500   1.2500 Du        
  23081 ****        -5.0000 -22.7500   1.5000 Du        
  23082 ****        -5.0000 -22.7500   1.7500 Du        
  23083 ****        -5.0000 -22.7500   2.0000 Du        
  23084 ****        -5.0000 -22.7500   2.2500 Du        
  23085 ****        -5.0000 -22.7500   2.5000 Du        
  23086 ****        -5.0000 -22.7500   2.7500 Du        
  23087 ****        -5.0000 -22.5000   2.0000 Du        
  23088 ****        -5.0000 -22.5000   2.2500 Du        
  23089 ****        -5.0000 -22.5000   2.5000 Du        
  23090 ****        -5.0000 -19.0000 -23.5000 Du        
  23091 ****        -5.0000 -19.0000 -23.2500 Du        
  23092 ****        -5.0000 -18.7500 -28.0000 Du        
  23093 ****        -5.0000 -18.7500 -23.5000 Du        
  23094 ****        -5.0000 -18.7500 -23.2500 Du        
  23095 ****        -5.0000 -18.5000 -28.0000 Du        
  23096 ****        -5.0000 -18.5000 -23.2500 Du        
  23097 ****        -5.0000 -18.2500 -28.0000 Du        
  23098 ****        -5.0000 -18.2500 -27.7500 Du        
  23099 ****        -5.0000 -18.0000 -28.0000 Du        
  23100 ****        -5.0000 -18.0000 -27.7500 Du        
  23101 ****        -5.0000 -17.7500 -28.0000 Du        
  23102 ****        -5.0000 -17.7500 -27.7500 Du        
  23103 ****        -5.0000  -3.2500 -19.5000 Du        
  23104 ****        -5.0000   3.0000 -18.5000 Du        
  23105 ****        -5.0000   3.2500 -18.5000 Du        
  23106 ****        -5.0000   3.2500 -18.2500 Du        
  23107 ****        -5.0000   3.2500 -18.0000 Du        
  23108 ****        -5.0000   3.5000 -18.5000 Du        
  23109 ****        -5.0000   3.5000 -18.2500 Du        
  23110 ****        -5.0000   3.5000 -18.0000 Du        
  23111 ****        -5.0000   3.5000 -17.7500 Du        
  23112 ****        -5.0000   3.5000 -17.5000 Du        
  23113 ****        -5.0000   3.5000 -17.2500 Du        
  23114 ****        -5.0000   3.5000 -17.0000 Du        
  23115 ****        -5.0000   3.7500 -18.5000 Du        
  23116 ****        -5.0000   3.7500 -18.2500 Du        
  23117 ****        -5.0000   3.7500 -18.0000 Du        
  23118 ****        -5.0000   3.7500 -17.7500 Du        
  23119 ****        -5.0000   3.7500 -17.5000 Du        
  23120 ****        -5.0000   3.7500 -17.2500 Du        
  23121 ****        -5.0000   3.7500 -17.0000 Du        
  23122 ****        -5.0000   3.7500 -16.7500 Du        
  23123 ****        -5.0000   3.7500 -16.5000 Du        
  23124 ****        -5.0000   4.0000 -18.5000 Du        
  23125 ****        -5.0000   4.0000 -18.2500 Du        
  23126 ****        -5.0000   4.0000 -18.0000 Du        
  23127 ****        -5.0000   4.0000 -17.7500 Du        
  23128 ****        -5.0000   4.0000 -17.5000 Du        
  23129 ****        -5.0000   4.0000 -17.2500 Du        
  23130 ****        -5.0000   4.0000 -17.0000 Du        
  23131 ****        -5.0000   4.0000 -16.7500 Du        
  23132 ****        -5.0000   4.0000 -16.5000 Du        
  23133 ****        -5.0000   4.2500 -18.2500 Du        
  23134 ****        -5.0000   4.2500 -18.0000 Du        
  23135 ****        -5.0000   4.2500 -17.7500 Du        
  23136 ****        -5.0000   4.2500 -17.5000 Du        
  23137 ****        -5.0000   4.2500 -17.2500 Du        
  23138 ****        -5.0000   4.2500 -17.0000 Du        
  23139 ****        -5.0000   4.2500 -16.7500 Du        
  23140 ****        -5.0000   4.2500 -16.5000 Du        
  23141 ****        -5.0000   4.5000 -18.0000 Du        
  23142 ****        -5.0000   4.5000 -17.7500 Du        
  23143 ****        -5.0000   4.5000 -17.5000 Du        
  23144 ****        -5.0000   4.5000 -17.2500 Du        
  23145 ****        -5.0000   4.5000 -17.0000 Du        
  23146 ****        -5.0000   4.5000 -16.7500 Du        
  23147 ****        -5.0000   4.5000 -16.5000 Du        
  23148 ****        -5.0000   4.7500 -17.7500 Du        
  23149 ****        -5.0000   4.7500 -17.5000 Du        
  23150 ****        -5.0000   4.7500 -17.2500 Du        
  23151 ****        -5.0000   4.7500 -17.0000 Du        
  23152 ****        -5.0000   4.7500 -16.7500 Du        
  23153 ****        -5.0000   4.7500 -16.5000 Du        
  23154 ****        -5.0000   5.0000 -17.7500 Du        
  23155 ****        -5.0000   5.0000 -17.5000 Du        
  23156 ****        -5.0000   5.0000 -17.2500 Du        
  23157 ****        -5.0000   5.0000 -17.0000 Du        
  23158 ****        -5.0000   5.0000 -16.7500 Du        
  23159 ****        -5.0000   5.2500 -17.5000 Du        
  23160 ****        -5.0000   5.2500 -17.2500 Du        
  23161 ****        -5.0000   5.2500 -17.0000 Du        
  23162 ****        -5.0000   5.2500 -16.7500 Du        
  23163 ****        -5.0000   5.5000 -17.5000 Du        
  23164 ****        -5.0000   5.5000 -17.2500 Du        
  23165 ****        -5.0000   5.5000 -17.0000 Du        
  23166 ****        -5.0000   5.7500 -17.5000 Du        
  23167 ****        -5.0000   5.7500 -17.2500 Du        
  23168 ****        -5.0000   5.7500 -17.0000 Du        
  23169 ****        -5.0000   6.0000 -17.5000 Du        
  23170 ****        -5.0000   6.0000 -17.2500 Du        
  23171 ****        -5.0000   6.0000 -17.0000 Du        
  23172 ****        -5.0000   6.2500 -17.2500 Du        
  23173 ****        -5.0000   6.2500 -17.0000 Du        
  23174 ****        -4.7500 -29.0000  -3.2500 Du        
  23175 ****        -4.7500 -29.0000  -3.0000 Du        
  23176 ****        -4.7500 -28.7500  -3.7500 Du        
  23177 ****        -4.7500 -28.7500  -3.5000 Du        
  23178 ****        -4.7500 -28.7500  -3.2500 Du        
  23179 ****        -4.7500 -28.7500  -3.0000 Du        
  23180 ****        -4.7500 -28.5000  -4.0000 Du        
  23181 ****        -4.7500 -28.5000  -3.7500 Du        
  23182 ****        -4.7500 -28.5000  -3.5000 Du        
  23183 ****        -4.7500 -28.5000  -3.2500 Du        
  23184 ****        -4.7500 -28.5000  -3.0000 Du        
  23185 ****        -4.7500 -28.5000  -2.7500 Du        
  23186 ****        -4.7500 -28.5000  -2.5000 Du        
  23187 ****        -4.7500 -28.2500  -3.5000 Du        
  23188 ****        -4.7500 -28.2500  -3.2500 Du        
  23189 ****        -4.7500 -28.2500  -3.0000 Du        
  23190 ****        -4.7500 -28.2500  -2.7500 Du        
  23191 ****        -4.7500 -28.2500  -2.5000 Du        
  23192 ****        -4.7500 -28.0000  -2.7500 Du        
  23193 ****        -4.7500 -28.0000  -2.5000 Du        
  23194 ****        -4.7500 -28.0000  -2.2500 Du        
  23195 ****        -4.7500 -27.7500  -2.2500 Du        
  23196 ****        -4.7500 -26.7500 -14.5000 Du        
  23197 ****        -4.7500 -26.7500 -14.2500 Du        
  23198 ****        -4.7500 -26.5000 -14.7500 Du        
  23199 ****        -4.7500 -26.5000 -14.5000 Du        
  23200 ****        -4.7500 -26.5000 -14.2500 Du        
  23201 ****        -4.7500 -26.5000  -1.5000 Du        
  23202 ****        -4.7500 -26.5000  -1.2500 Du        
  23203 ****        -4.7500 -26.2500 -14.7500 Du        
  23204 ****        -4.7500 -26.2500 -14.5000 Du        
  23205 ****        -4.7500 -26.2500 -14.2500 Du        
  23206 ****        -4.7500 -26.2500 -14.0000 Du        
  23207 ****        -4.7500 -26.2500  -1.2500 Du        
  23208 ****        -4.7500 -26.2500  -1.0000 Du        
  23209 ****        -4.7500 -26.2500  -0.7500 Du        
  23210 ****        -4.7500 -26.0000 -28.2500 Du        
  23211 ****        -4.7500 -26.0000 -28.0000 Du        
  23212 ****        -4.7500 -26.0000 -14.7500 Du        
  23213 ****        -4.7500 -26.0000 -14.5000 Du        
  23214 ****        -4.7500 -26.0000 -14.2500 Du        
  23215 ****        -4.7500 -26.0000 -14.0000 Du        
  23216 ****        -4.7500 -26.0000  -1.2500 Du        
  23217 ****        -4.7500 -26.0000  -1.0000 Du        
  23218 ****        -4.7500 -26.0000  -0.7500 Du        
  23219 ****        -4.7500 -26.0000  -0.5000 Du        
  23220 ****        -4.7500 -25.7500 -28.2500 Du        
  23221 ****        -4.7500 -25.7500 -28.0000 Du        
  23222 ****        -4.7500 -25.7500 -14.7500 Du        
  23223 ****        -4.7500 -25.7500 -14.5000 Du        
  23224 ****        -4.7500 -25.7500 -14.2500 Du        
  23225 ****        -4.7500 -25.7500 -14.0000 Du        
  23226 ****        -4.7500 -25.7500  -1.2500 Du        
  23227 ****        -4.7500 -25.7500  -1.0000 Du        
  23228 ****        -4.7500 -25.7500  -0.7500 Du        
  23229 ****        -4.7500 -25.7500  -0.5000 Du        
  23230 ****        -4.7500 -25.7500  -0.2500 Du        
  23231 ****        -4.7500 -25.5000 -28.7500 Du        
  23232 ****        -4.7500 -25.5000 -28.5000 Du        
  23233 ****        -4.7500 -25.5000 -28.2500 Du        
  23234 ****        -4.7500 -25.5000 -28.0000 Du        
  23235 ****        -4.7500 -25.5000 -14.7500 Du        
  23236 ****        -4.7500 -25.5000 -14.5000 Du        
  23237 ****        -4.7500 -25.5000 -14.2500 Du        
  23238 ****        -4.7500 -25.5000 -14.0000 Du        
  23239 ****        -4.7500 -25.5000  -1.2500 Du        
  23240 ****        -4.7500 -25.5000  -1.0000 Du        
  23241 ****        -4.7500 -25.5000  -0.7500 Du        
  23242 ****        -4.7500 -25.5000  -0.5000 Du        
  23243 ****        -4.7500 -25.5000  -0.2500 Du        
  23244 ****        -4.7500 -25.5000   0.0000 Du        
  23245 ****        -4.7500 -25.5000   0.2500 Du        
  23246 ****        -4.7500 -25.5000   0.5000 Du        
  23247 ****        -4.7500 -25.2500 -28.7500 Du        
  23248 ****        -4.7500 -25.2500 -28.5000 Du        
  23249 ****        -4.7500 -25.2500 -28.2500 Du        
  23250 ****        -4.7500 -25.2500 -14.7500 Du        
  23251 ****        -4.7500 -25.2500 -14.5000 Du        
  23252 ****        -4.7500 -25.2500 -14.2500 Du        
  23253 ****        -4.7500 -25.2500 -14.0000 Du        
  23254 ****        -4.7500 -25.2500  -1.2500 Du        
  23255 ****        -4.7500 -25.2500  -1.0000 Du        
  23256 ****        -4.7500 -25.2500  -0.7500 Du        
  23257 ****        -4.7500 -25.2500  -0.5000 Du        
  23258 ****        -4.7500 -25.2500  -0.2500 Du        
  23259 ****        -4.7500 -25.2500   0.0000 Du        
  23260 ****        -4.7500 -25.2500   0.2500 Du        
  23261 ****        -4.7500 -25.2500   0.5000 Du        
  23262 ****        -4.7500 -25.2500   0.7500 Du        
  23263 ****        -4.7500 -25.2500   1.0000 Du        
  23264 ****        -4.7500 -25.2500   1.2500 Du        
  23265 ****        -4.7500 -25.2500   1.5000 Du        
  23266 ****        -4.7500 -25.0000 -29.2500 Du        
  23267 ****        -4.7500 -25.0000 -29.0000 Du        
  23268 ****        -4.7500 -25.0000 -28.7500 Du        
  23269 ****        -4.7500 -25.0000 -14.7500 Du        
  23270 ****        -4.7500 -25.0000 -14.5000 Du        
  23271 ****        -4.7500 -25.0000 -14.2500 Du        
  23272 ****        -4.7500 -25.0000  -1.2500 Du        
  23273 ****        -4.7500 -25.0000  -1.0000 Du        
  23274 ****        -4.7500 -25.0000  -0.7500 Du        
  23275 ****        -4.7500 -25.0000  -0.5000 Du        
  23276 ****        -4.7500 -25.0000  -0.2500 Du        
  23277 ****        -4.7500 -25.0000   0.0000 Du        
  23278 ****        -4.7500 -25.0000   0.2500 Du        
  23279 ****        -4.7500 -25.0000   0.5000 Du        
  23280 ****        -4.7500 -25.0000   0.7500 Du        
  23281 ****        -4.7500 -25.0000   1.0000 Du        
  23282 ****        -4.7500 -25.0000   1.2500 Du        
  23283 ****        -4.7500 -25.0000   1.5000 Du        
  23284 ****        -4.7500 -25.0000   1.7500 Du        
  23285 ****        -4.7500 -25.0000   2.0000 Du        
  23286 ****        -4.7500 -24.7500 -29.2500 Du        
  23287 ****        -4.7500 -24.7500 -29.0000 Du        
  23288 ****        -4.7500 -24.7500 -28.7500 Du        
  23289 ****        -4.7500 -24.7500 -14.5000 Du        
  23290 ****        -4.7500 -24.7500 -14.2500 Du        
  23291 ****        -4.7500 -24.7500  -1.2500 Du        
  23292 ****        -4.7500 -24.7500  -1.0000 Du        
  23293 ****        -4.7500 -24.7500  -0.7500 Du        
  23294 ****        -4.7500 -24.7500  -0.5000 Du        
  23295 ****        -4.7500 -24.7500  -0.2500 Du        
  23296 ****        -4.7500 -24.7500   0.0000 Du        
  23297 ****        -4.7500 -24.7500   0.2500 Du        
  23298 ****        -4.7500 -24.7500   0.5000 Du        
  23299 ****        -4.7500 -24.7500   0.7500 Du        
  23300 ****        -4.7500 -24.7500   1.0000 Du        
  23301 ****        -4.7500 -24.7500   1.2500 Du        
  23302 ****        -4.7500 -24.7500   1.5000 Du        
  23303 ****        -4.7500 -24.7500   1.7500 Du        
  23304 ****        -4.7500 -24.7500   2.0000 Du        
  23305 ****        -4.7500 -24.5000 -29.2500 Du        
  23306 ****        -4.7500 -24.5000 -29.0000 Du        
  23307 ****        -4.7500 -24.5000  -1.2500 Du        
  23308 ****        -4.7500 -24.5000  -1.0000 Du        
  23309 ****        -4.7500 -24.5000  -0.7500 Du        
  23310 ****        -4.7500 -24.5000  -0.5000 Du        
  23311 ****        -4.7500 -24.5000  -0.2500 Du        
  23312 ****        -4.7500 -24.5000   0.0000 Du        
  23313 ****        -4.7500 -24.5000   0.2500 Du        
  23314 ****        -4.7500 -24.5000   0.5000 Du        
  23315 ****        -4.7500 -24.5000   0.7500 Du        
  23316 ****        -4.7500 -24.5000   1.0000 Du        
  23317 ****        -4.7500 -24.5000   1.2500 Du        
  23318 ****        -4.7500 -24.5000   1.5000 Du        
  23319 ****        -4.7500 -24.5000   1.7500 Du        
  23320 ****        -4.7500 -24.5000   2.0000 Du        
  23321 ****        -4.7500 -24.5000   2.2500 Du        
  23322 ****        -4.7500 -24.5000   2.5000 Du        
  23323 ****        -4.7500 -24.2500  -1.2500 Du        
  23324 ****        -4.7500 -24.2500  -1.0000 Du        
  23325 ****        -4.7500 -24.2500  -0.7500 Du        
  23326 ****        -4.7500 -24.2500  -0.5000 Du        
  23327 ****        -4.7500 -24.2500  -0.2500 Du        
  23328 ****        -4.7500 -24.2500   0.0000 Du        
  23329 ****        -4.7500 -24.2500   0.2500 Du        
  23330 ****        -4.7500 -24.2500   0.5000 Du        
  23331 ****        -4.7500 -24.2500   0.7500 Du        
  23332 ****        -4.7500 -24.2500   1.0000 Du        
  23333 ****        -4.7500 -24.2500   1.2500 Du        
  23334 ****        -4.7500 -24.2500   1.5000 Du        
  23335 ****        -4.7500 -24.2500   1.7500 Du        
  23336 ****        -4.7500 -24.2500   2.0000 Du        
  23337 ****        -4.7500 -24.2500   2.2500 Du        
  23338 ****        -4.7500 -24.2500   2.5000 Du        
  23339 ****        -4.7500 -24.0000  -1.2500 Du        
  23340 ****        -4.7500 -24.0000  -1.0000 Du        
  23341 ****        -4.7500 -24.0000  -0.7500 Du        
  23342 ****        -4.7500 -24.0000  -0.5000 Du        
  23343 ****        -4.7500 -24.0000  -0.2500 Du        
  23344 ****        -4.7500 -24.0000   0.0000 Du        
  23345 ****        -4.7500 -24.0000   0.2500 Du        
  23346 ****        -4.7500 -24.0000   0.5000 Du        
  23347 ****        -4.7500 -24.0000   0.7500 Du        
  23348 ****        -4.7500 -24.0000   1.0000 Du        
  23349 ****        -4.7500 -24.0000   1.2500 Du        
  23350 ****        -4.7500 -24.0000   1.5000 Du        
  23351 ****        -4.7500 -24.0000   1.7500 Du        
  23352 ****        -4.7500 -24.0000   2.0000 Du        
  23353 ****        -4.7500 -24.0000   2.2500 Du        
  23354 ****        -4.7500 -24.0000   2.5000 Du        
  23355 ****        -4.7500 -24.0000   2.7500 Du        
  23356 ****        -4.7500 -24.0000   3.0000 Du        
  23357 ****        -4.7500 -23.7500  -1.2500 Du        
  23358 ****        -4.7500 -23.7500  -1.0000 Du        
  23359 ****        -4.7500 -23.7500  -0.7500 Du        
  23360 ****        -4.7500 -23.7500  -0.5000 Du        
  23361 ****        -4.7500 -23.7500  -0.2500 Du        
  23362 ****        -4.7500 -23.7500   0.0000 Du        
  23363 ****        -4.7500 -23.7500   0.2500 Du        
  23364 ****        -4.7500 -23.7500   0.5000 Du        
  23365 ****        -4.7500 -23.7500   0.7500 Du        
  23366 ****        -4.7500 -23.7500   1.0000 Du        
  23367 ****        -4.7500 -23.7500   1.2500 Du        
  23368 ****        -4.7500 -23.7500   1.5000 Du        
  23369 ****        -4.7500 -23.7500   1.7500 Du        
  23370 ****        -4.7500 -23.7500   2.0000 Du        
  23371 ****        -4.7500 -23.7500   2.2500 Du        
  23372 ****        -4.7500 -23.7500   2.5000 Du        
  23373 ****        -4.7500 -23.7500   2.7500 Du        
  23374 ****        -4.7500 -23.5000  -1.2500 Du        
  23375 ****        -4.7500 -23.5000  -1.0000 Du        
  23376 ****        -4.7500 -23.5000  -0.7500 Du        
  23377 ****        -4.7500 -23.5000  -0.5000 Du        
  23378 ****        -4.7500 -23.5000  -0.2500 Du        
  23379 ****        -4.7500 -23.5000   0.0000 Du        
  23380 ****        -4.7500 -23.5000   0.2500 Du        
  23381 ****        -4.7500 -23.5000   0.5000 Du        
  23382 ****        -4.7500 -23.5000   0.7500 Du        
  23383 ****        -4.7500 -23.5000   1.0000 Du        
  23384 ****        -4.7500 -23.5000   1.2500 Du        
  23385 ****        -4.7500 -23.5000   1.5000 Du        
  23386 ****        -4.7500 -23.5000   1.7500 Du        
  23387 ****        -4.7500 -23.5000   2.0000 Du        
  23388 ****        -4.7500 -23.5000   2.2500 Du        
  23389 ****        -4.7500 -23.5000   2.5000 Du        
  23390 ****        -4.7500 -23.5000   2.7500 Du        
  23391 ****        -4.7500 -23.2500  -1.0000 Du        
  23392 ****        -4.7500 -23.2500  -0.7500 Du        
  23393 ****        -4.7500 -23.2500  -0.5000 Du        
  23394 ****        -4.7500 -23.2500  -0.2500 Du        
  23395 ****        -4.7500 -23.2500   0.0000 Du        
  23396 ****        -4.7500 -23.2500   0.2500 Du        
  23397 ****        -4.7500 -23.2500   0.5000 Du        
  23398 ****        -4.7500 -23.2500   0.7500 Du        
  23399 ****        -4.7500 -23.2500   1.0000 Du        
  23400 ****        -4.7500 -23.2500   1.2500 Du        
  23401 ****        -4.7500 -23.2500   1.5000 Du        
  23402 ****        -4.7500 -23.2500   1.7500 Du        
  23403 ****        -4.7500 -23.2500   2.0000 Du        
  23404 ****        -4.7500 -23.2500   2.2500 Du        
  23405 ****        -4.7500 -23.2500   2.5000 Du        
  23406 ****        -4.7500 -23.0000  -0.7500 Du        
  23407 ****        -4.7500 -23.0000   0.0000 Du        
  23408 ****        -4.7500 -23.0000   0.2500 Du        
  23409 ****        -4.7500 -23.0000   0.5000 Du        
  23410 ****        -4.7500 -23.0000   0.7500 Du        
  23411 ****        -4.7500 -23.0000   1.0000 Du        
  23412 ****        -4.7500 -23.0000   1.2500 Du        
  23413 ****        -4.7500 -23.0000   1.5000 Du        
  23414 ****        -4.7500 -23.0000   1.7500 Du        
  23415 ****        -4.7500 -23.0000   2.0000 Du        
  23416 ****        -4.7500 -23.0000   2.2500 Du        
  23417 ****        -4.7500 -23.0000   2.5000 Du        
  23418 ****        -4.7500 -22.7500   1.0000 Du        
  23419 ****        -4.7500 -22.7500   1.2500 Du        
  23420 ****        -4.7500 -22.7500   1.5000 Du        
  23421 ****        -4.7500 -22.7500   1.7500 Du        
  23422 ****        -4.7500 -22.7500   2.0000 Du        
  23423 ****        -4.7500 -22.7500   2.2500 Du        
  23424 ****        -4.7500 -22.7500   2.5000 Du        
  23425 ****        -4.7500 -22.5000   1.7500 Du        
  23426 ****        -4.7500 -22.5000   2.0000 Du        
  23427 ****        -4.7500 -22.5000   2.2500 Du        
  23428 ****        -4.7500 -19.2500 -23.2500 Du        
  23429 ****        -4.7500 -19.0000 -23.5000 Du        
  23430 ****        -4.7500 -19.0000 -23.2500 Du        
  23431 ****        -4.7500 -19.0000 -23.0000 Du        
  23432 ****        -4.7500 -18.7500 -23.5000 Du        
  23433 ****        -4.7500 -18.7500 -23.2500 Du        
  23434 ****        -4.7500 -18.7500 -23.0000 Du        
  23435 ****        -4.7500 -18.5000 -23.2500 Du        
  23436 ****        -4.7500 -18.5000 -23.0000 Du        
  23437 ****        -4.7500 -18.2500 -23.2500 Du        
  23438 ****        -4.7500 -18.2500 -23.0000 Du        
  23439 ****        -4.7500 -18.0000 -27.7500 Du        
  23440 ****        -4.7500 -17.7500 -28.0000 Du        
  23441 ****        -4.7500  -3.7500 -19.7500 Du        
  23442 ****        -4.7500  -3.7500 -19.5000 Du        
  23443 ****        -4.7500  -3.5000 -19.5000 Du        
  23444 ****        -4.7500  -3.5000 -19.2500 Du        
  23445 ****        -4.7500  -3.2500 -19.5000 Du        
  23446 ****        -4.7500   3.0000 -18.5000 Du        
  23447 ****        -4.7500   3.2500 -18.5000 Du        
  23448 ****        -4.7500   3.2500 -18.2500 Du        
  23449 ****        -4.7500   3.2500 -18.0000 Du        
  23450 ****        -4.7500   3.5000 -18.5000 Du        
  23451 ****        -4.7500   3.5000 -18.2500 Du        
  23452 ****        -4.7500   3.5000 -18.0000 Du        
  23453 ****        -4.7500   3.5000 -17.7500 Du        
  23454 ****        -4.7500   3.5000 -17.5000 Du        
  23455 ****        -4.7500   3.7500 -18.5000 Du        
  23456 ****        -4.7500   3.7500 -18.2500 Du        
  23457 ****        -4.7500   3.7500 -18.0000 Du        
  23458 ****        -4.7500   3.7500 -17.7500 Du        
  23459 ****        -4.7500   3.7500 -17.5000 Du        
  23460 ****        -4.7500   3.7500 -17.2500 Du        
  23461 ****        -4.7500   3.7500 -17.0000 Du        
  23462 ****        -4.7500   4.0000 -18.5000 Du        
  23463 ****        -4.7500   4.0000 -18.2500 Du        
  23464 ****        -4.7500   4.0000 -18.0000 Du        
  23465 ****        -4.7500   4.0000 -17.7500 Du        
  23466 ****        -4.7500   4.0000 -17.5000 Du        
  23467 ****        -4.7500   4.0000 -17.2500 Du        
  23468 ****        -4.7500   4.0000 -17.0000 Du        
  23469 ****        -4.7500   4.0000 -16.7500 Du        
  23470 ****        -4.7500   4.0000 -16.5000 Du        
  23471 ****        -4.7500   4.2500 -18.2500 Du        
  23472 ****        -4.7500   4.2500 -18.0000 Du        
  23473 ****        -4.7500   4.2500 -17.7500 Du        
  23474 ****        -4.7500   4.2500 -17.5000 Du        
  23475 ****        -4.7500   4.2500 -17.2500 Du        
  23476 ****        -4.7500   4.2500 -17.0000 Du        
  23477 ****        -4.7500   4.2500 -16.7500 Du        
  23478 ****        -4.7500   4.2500 -16.5000 Du        
  23479 ****        -4.7500   4.5000 -18.0000 Du        
  23480 ****        -4.7500   4.5000 -17.7500 Du        
  23481 ****        -4.7500   4.5000 -17.5000 Du        
  23482 ****        -4.7500   4.5000 -17.2500 Du        
  23483 ****        -4.7500   4.5000 -17.0000 Du        
  23484 ****        -4.7500   4.5000 -16.7500 Du        
  23485 ****        -4.7500   4.7500 -18.0000 Du        
  23486 ****        -4.7500   4.7500 -17.7500 Du        
  23487 ****        -4.7500   4.7500 -17.5000 Du        
  23488 ****        -4.7500   4.7500 -17.2500 Du        
  23489 ****        -4.7500   4.7500 -17.0000 Du        
  23490 ****        -4.7500   4.7500 -16.7500 Du        
  23491 ****        -4.7500   5.0000 -17.7500 Du        
  23492 ****        -4.7500   5.0000 -17.5000 Du        
  23493 ****        -4.7500   5.0000 -17.2500 Du        
  23494 ****        -4.7500   5.0000 -17.0000 Du        
  23495 ****        -4.7500   5.0000 -16.7500 Du        
  23496 ****        -4.7500   5.2500 -17.5000 Du        
  23497 ****        -4.7500   5.2500 -17.2500 Du        
  23498 ****        -4.7500   5.2500 -17.0000 Du        
  23499 ****        -4.7500   5.5000 -17.5000 Du        
  23500 ****        -4.7500   5.5000 -17.2500 Du        
  23501 ****        -4.7500   5.5000 -17.0000 Du        
  23502 ****        -4.7500   5.7500 -17.5000 Du        
  23503 ****        -4.7500   5.7500 -17.2500 Du        
  23504 ****        -4.7500   5.7500 -17.0000 Du        
  23505 ****        -4.7500   6.0000 -17.5000 Du        
  23506 ****        -4.7500   6.0000 -17.2500 Du        
  23507 ****        -4.7500   6.0000 -17.0000 Du        
  23508 ****        -4.7500   6.2500 -17.2500 Du        
  23509 ****        -4.5000 -29.0000  -3.0000 Du        
  23510 ****        -4.5000 -28.7500  -3.5000 Du        
  23511 ****        -4.5000 -28.7500  -3.2500 Du        
  23512 ****        -4.5000 -28.7500  -3.0000 Du        
  23513 ****        -4.5000 -28.5000  -3.7500 Du        
  23514 ****        -4.5000 -28.5000  -3.5000 Du        
  23515 ****        -4.5000 -28.5000  -3.2500 Du        
  23516 ****        -4.5000 -28.5000  -3.0000 Du        
  23517 ****        -4.5000 -28.5000  -2.7500 Du        
  23518 ****        -4.5000 -28.5000  -2.5000 Du        
  23519 ****        -4.5000 -28.2500  -3.2500 Du        
  23520 ****        -4.5000 -28.2500  -3.0000 Du        
  23521 ****        -4.5000 -28.2500  -2.7500 Du        
  23522 ****        -4.5000 -28.2500  -2.5000 Du        
  23523 ****        -4.5000 -28.0000  -2.7500 Du        
  23524 ****        -4.5000 -28.0000  -2.5000 Du        
  23525 ****        -4.5000 -28.0000  -2.2500 Du        
  23526 ****        -4.5000 -26.5000  -1.2500 Du        
  23527 ****        -4.5000 -26.2500 -14.7500 Du        
  23528 ****        -4.5000 -26.2500  -1.2500 Du        
  23529 ****        -4.5000 -26.2500  -1.0000 Du        
  23530 ****        -4.5000 -26.0000 -28.2500 Du        
  23531 ****        -4.5000 -26.0000 -28.0000 Du        
  23532 ****        -4.5000 -26.0000 -14.7500 Du        
  23533 ****        -4.5000 -26.0000 -14.5000 Du        
  23534 ****        -4.5000 -26.0000 -14.2500 Du        
  23535 ****        -4.5000 -26.0000  -1.2500 Du        
  23536 ****        -4.5000 -26.0000  -1.0000 Du        
  23537 ****        -4.5000 -26.0000  -0.7500 Du        
  23538 ****        -4.5000 -26.0000  -0.5000 Du        
  23539 ****        -4.5000 -25.7500 -28.2500 Du        
  23540 ****        -4.5000 -25.7500 -28.0000 Du        
  23541 ****        -4.5000 -25.7500 -14.7500 Du        
  23542 ****        -4.5000 -25.7500 -14.5000 Du        
  23543 ****        -4.5000 -25.7500 -14.2500 Du        
  23544 ****        -4.5000 -25.7500  -1.2500 Du        
  23545 ****        -4.5000 -25.7500  -1.0000 Du        
  23546 ****        -4.5000 -25.7500  -0.7500 Du        
  23547 ****        -4.5000 -25.7500  -0.5000 Du        
  23548 ****        -4.5000 -25.7500  -0.2500 Du        
  23549 ****        -4.5000 -25.5000 -28.7500 Du        
  23550 ****        -4.5000 -25.5000 -28.5000 Du        
  23551 ****        -4.5000 -25.5000 -28.2500 Du        
  23552 ****        -4.5000 -25.5000 -14.7500 Du        
  23553 ****        -4.5000 -25.5000 -14.5000 Du        
  23554 ****        -4.5000 -25.5000 -14.2500 Du        
  23555 ****        -4.5000 -25.5000 -14.0000 Du        
  23556 ****        -4.5000 -25.5000  -1.2500 Du        
  23557 ****        -4.5000 -25.5000  -1.0000 Du        
  23558 ****        -4.5000 -25.5000  -0.7500 Du        
  23559 ****        -4.5000 -25.5000  -0.5000 Du        
  23560 ****        -4.5000 -25.5000  -0.2500 Du        
  23561 ****        -4.5000 -25.5000   0.0000 Du        
  23562 ****        -4.5000 -25.5000   0.2500 Du        
  23563 ****        -4.5000 -25.2500 -28.7500 Du        
  23564 ****        -4.5000 -25.2500 -28.5000 Du        
  23565 ****        -4.5000 -25.2500 -14.7500 Du        
  23566 ****        -4.5000 -25.2500 -14.5000 Du        
  23567 ****        -4.5000 -25.2500 -14.2500 Du        
  23568 ****        -4.5000 -25.2500  -1.2500 Du        
  23569 ****        -4.5000 -25.2500  -1.0000 Du        
  23570 ****        -4.5000 -25.2500  -0.7500 Du        
  23571 ****        -4.5000 -25.2500  -0.5000 Du        
  23572 ****        -4.5000 -25.2500  -0.2500 Du        
  23573 ****        -4.5000 -25.2500   0.0000 Du        
  23574 ****        -4.5000 -25.2500   0.2500 Du        
  23575 ****        -4.5000 -25.2500   0.5000 Du        
  23576 ****        -4.5000 -25.2500   0.7500 Du        
  23577 ****        -4.5000 -25.2500   1.0000 Du        
  23578 ****        -4.5000 -25.2500   1.2500 Du        
  23579 ****        -4.5000 -25.2500   1.5000 Du        
  23580 ****        -4.5000 -25.0000 -29.2500 Du        
  23581 ****        -4.5000 -25.0000 -29.0000 Du        
  23582 ****        -4.5000 -25.0000 -28.7500 Du        
  23583 ****        -4.5000 -25.0000 -14.7500 Du        
  23584 ****        -4.5000 -25.0000 -14.5000 Du        
  23585 ****        -4.5000 -25.0000 -14.2500 Du        
  23586 ****        -4.5000 -25.0000  -1.2500 Du        
  23587 ****        -4.5000 -25.0000  -1.0000 Du        
  23588 ****        -4.5000 -25.0000  -0.7500 Du        
  23589 ****        -4.5000 -25.0000  -0.5000 Du        
  23590 ****        -4.5000 -25.0000  -0.2500 Du        
  23591 ****        -4.5000 -25.0000   0.0000 Du        
  23592 ****        -4.5000 -25.0000   0.2500 Du        
  23593 ****        -4.5000 -25.0000   0.5000 Du        
  23594 ****        -4.5000 -25.0000   0.7500 Du        
  23595 ****        -4.5000 -25.0000   1.0000 Du        
  23596 ****        -4.5000 -25.0000   1.2500 Du        
  23597 ****        -4.5000 -25.0000   1.5000 Du        
  23598 ****        -4.5000 -25.0000   1.7500 Du        
  23599 ****        -4.5000 -25.0000   2.0000 Du        
  23600 ****        -4.5000 -24.7500 -29.2500 Du        
  23601 ****        -4.5000 -24.7500 -29.0000 Du        
  23602 ****        -4.5000 -24.7500 -14.5000 Du        
  23603 ****        -4.5000 -24.7500  -1.0000 Du        
  23604 ****        -4.5000 -24.7500  -0.7500 Du        
  23605 ****        -4.5000 -24.7500  -0.5000 Du        
  23606 ****        -4.5000 -24.7500  -0.2500 Du        
  23607 ****        -4.5000 -24.7500   0.0000 Du        
  23608 ****        -4.5000 -24.7500   0.2500 Du        
  23609 ****        -4.5000 -24.7500   0.5000 Du        
  23610 ****        -4.5000 -24.7500   0.7500 Du        
  23611 ****        -4.5000 -24.7500   1.0000 Du        
  23612 ****        -4.5000 -24.7500   1.2500 Du        
  23613 ****        -4.5000 -24.7500   1.5000 Du        
  23614 ****        -4.5000 -24.7500   1.7500 Du        
  23615 ****        -4.5000 -24.7500   2.0000 Du        
  23616 ****        -4.5000 -24.5000  -1.0000 Du        
  23617 ****        -4.5000 -24.5000  -0.7500 Du        
  23618 ****        -4.5000 -24.5000  -0.5000 Du        
  23619 ****        -4.5000 -24.5000  -0.2500 Du        
  23620 ****        -4.5000 -24.5000   0.0000 Du        
  23621 ****        -4.5000 -24.5000   0.2500 Du        
  23622 ****        -4.5000 -24.5000   0.5000 Du        
  23623 ****        -4.5000 -24.5000   0.7500 Du        
  23624 ****        -4.5000 -24.5000   1.0000 Du        
  23625 ****        -4.5000 -24.5000   1.2500 Du        
  23626 ****        -4.5000 -24.5000   1.5000 Du        
  23627 ****        -4.5000 -24.5000   1.7500 Du        
  23628 ****        -4.5000 -24.5000   2.0000 Du        
  23629 ****        -4.5000 -24.5000   2.2500 Du        
  23630 ****        -4.5000 -24.5000   2.5000 Du        
  23631 ****        -4.5000 -24.2500  -1.0000 Du        
  23632 ****        -4.5000 -24.2500  -0.7500 Du        
  23633 ****        -4.5000 -24.2500  -0.5000 Du        
  23634 ****        -4.5000 -24.2500  -0.2500 Du        
  23635 ****        -4.5000 -24.2500   0.0000 Du        
  23636 ****        -4.5000 -24.2500   0.2500 Du        
  23637 ****        -4.5000 -24.2500   0.5000 Du        
  23638 ****        -4.5000 -24.2500   0.7500 Du        
  23639 ****        -4.5000 -24.2500   1.0000 Du        
  23640 ****        -4.5000 -24.2500   1.2500 Du        
  23641 ****        -4.5000 -24.2500   1.5000 Du        
  23642 ****        -4.5000 -24.2500   1.7500 Du        
  23643 ****        -4.5000 -24.2500   2.0000 Du        
  23644 ****        -4.5000 -24.2500   2.2500 Du        
  23645 ****        -4.5000 -24.2500   2.5000 Du        
  23646 ****        -4.5000 -24.0000  -1.0000 Du        
  23647 ****        -4.5000 -24.0000  -0.7500 Du        
  23648 ****        -4.5000 -24.0000  -0.5000 Du        
  23649 ****        -4.5000 -24.0000  -0.2500 Du        
  23650 ****        -4.5000 -24.0000   0.0000 Du        
  23651 ****        -4.5000 -24.0000   0.2500 Du        
  23652 ****        -4.5000 -24.0000   0.5000 Du        
  23653 ****        -4.5000 -24.0000   0.7500 Du        
  23654 ****        -4.5000 -24.0000   1.0000 Du        
  23655 ****        -4.5000 -24.0000   1.2500 Du        
  23656 ****        -4.5000 -24.0000   1.5000 Du        
  23657 ****        -4.5000 -24.0000   1.7500 Du        
  23658 ****        -4.5000 -24.0000   2.0000 Du        
  23659 ****        -4.5000 -24.0000   2.2500 Du        
  23660 ****        -4.5000 -24.0000   2.5000 Du        
  23661 ****        -4.5000 -23.7500  -1.0000 Du        
  23662 ****        -4.5000 -23.7500  -0.7500 Du        
  23663 ****        -4.5000 -23.7500  -0.5000 Du        
  23664 ****        -4.5000 -23.7500  -0.2500 Du        
  23665 ****        -4.5000 -23.7500   0.0000 Du        
  23666 ****        -4.5000 -23.7500   0.2500 Du        
  23667 ****        -4.5000 -23.7500   0.5000 Du        
  23668 ****        -4.5000 -23.7500   0.7500 Du        
  23669 ****        -4.5000 -23.7500   1.0000 Du        
  23670 ****        -4.5000 -23.7500   1.2500 Du        
  23671 ****        -4.5000 -23.7500   1.5000 Du        
  23672 ****        -4.5000 -23.7500   1.7500 Du        
  23673 ****        -4.5000 -23.7500   2.0000 Du        
  23674 ****        -4.5000 -23.7500   2.2500 Du        
  23675 ****        -4.5000 -23.5000  -1.0000 Du        
  23676 ****        -4.5000 -23.5000  -0.7500 Du        
  23677 ****        -4.5000 -23.5000  -0.5000 Du        
  23678 ****        -4.5000 -23.5000  -0.2500 Du        
  23679 ****        -4.5000 -23.5000   0.0000 Du        
  23680 ****        -4.5000 -23.5000   0.2500 Du        
  23681 ****        -4.5000 -23.5000   0.5000 Du        
  23682 ****        -4.5000 -23.5000   0.7500 Du        
  23683 ****        -4.5000 -23.5000   1.0000 Du        
  23684 ****        -4.5000 -23.5000   1.2500 Du        
  23685 ****        -4.5000 -23.5000   1.5000 Du        
  23686 ****        -4.5000 -23.5000   1.7500 Du        
  23687 ****        -4.5000 -23.5000   2.0000 Du        
  23688 ****        -4.5000 -23.5000   2.2500 Du        
  23689 ****        -4.5000 -23.2500  -1.0000 Du        
  23690 ****        -4.5000 -23.2500  -0.7500 Du        
  23691 ****        -4.5000 -23.2500  -0.5000 Du        
  23692 ****        -4.5000 -23.2500  -0.2500 Du        
  23693 ****        -4.5000 -23.2500   0.0000 Du        
  23694 ****        -4.5000 -23.2500   0.2500 Du        
  23695 ****        -4.5000 -23.2500   0.5000 Du        
  23696 ****        -4.5000 -23.2500   0.7500 Du        
  23697 ****        -4.5000 -23.2500   1.0000 Du        
  23698 ****        -4.5000 -23.2500   1.2500 Du        
  23699 ****        -4.5000 -23.2500   1.5000 Du        
  23700 ****        -4.5000 -23.2500   1.7500 Du        
  23701 ****        -4.5000 -23.2500   2.0000 Du        
  23702 ****        -4.5000 -23.2500   2.2500 Du        
  23703 ****        -4.5000 -23.0000  -1.0000 Du        
  23704 ****        -4.5000 -23.0000  -0.7500 Du        
  23705 ****        -4.5000 -23.0000  -0.5000 Du        
  23706 ****        -4.5000 -23.0000  -0.2500 Du        
  23707 ****        -4.5000 -23.0000   0.0000 Du        
  23708 ****        -4.5000 -23.0000   0.2500 Du        
  23709 ****        -4.5000 -23.0000   0.5000 Du        
  23710 ****        -4.5000 -23.0000   0.7500 Du        
  23711 ****        -4.5000 -23.0000   1.0000 Du        
  23712 ****        -4.5000 -23.0000   1.2500 Du        
  23713 ****        -4.5000 -23.0000   1.5000 Du        
  23714 ****        -4.5000 -23.0000   1.7500 Du        
  23715 ****        -4.5000 -23.0000   2.0000 Du        
  23716 ****        -4.5000 -23.0000   2.2500 Du        
  23717 ****        -4.5000 -22.7500  -0.7500 Du        
  23718 ****        -4.5000 -22.7500   0.0000 Du        
  23719 ****        -4.5000 -22.7500   0.2500 Du        
  23720 ****        -4.5000 -22.7500   0.5000 Du        
  23721 ****        -4.5000 -22.7500   0.7500 Du        
  23722 ****        -4.5000 -22.7500   1.0000 Du        
  23723 ****        -4.5000 -22.7500   1.2500 Du        
  23724 ****        -4.5000 -22.7500   1.5000 Du        
  23725 ****        -4.5000 -22.7500   1.7500 Du        
  23726 ****        -4.5000 -22.7500   2.0000 Du        
  23727 ****        -4.5000 -22.5000   1.7500 Du        
  23728 ****        -4.5000 -19.7500 -23.2500 Du        
  23729 ****        -4.5000 -19.7500 -23.0000 Du        
  23730 ****        -4.5000 -19.5000 -23.2500 Du        
  23731 ****        -4.5000 -19.5000 -23.0000 Du        
  23732 ****        -4.5000 -19.2500 -23.2500 Du        
  23733 ****        -4.5000 -19.2500 -23.0000 Du        
  23734 ****        -4.5000 -19.2500 -22.7500 Du        
  23735 ****        -4.5000 -19.0000 -23.2500 Du        
  23736 ****        -4.5000 -19.0000 -23.0000 Du        
  23737 ****        -4.5000 -19.0000 -22.7500 Du        
  23738 ****        -4.5000 -18.7500 -23.2500 Du        
  23739 ****        -4.5000 -18.7500 -23.0000 Du        
  23740 ****        -4.5000 -18.7500 -22.7500 Du        
  23741 ****        -4.5000 -18.5000 -23.2500 Du        
  23742 ****        -4.5000 -18.5000 -23.0000 Du        
  23743 ****        -4.5000 -18.5000 -22.7500 Du        
  23744 ****        -4.5000 -18.2500 -23.0000 Du        
  23745 ****        -4.5000 -18.2500 -22.7500 Du        
  23746 ****        -4.5000 -18.2500 -22.5000 Du        
  23747 ****        -4.5000 -18.0000 -22.5000 Du        
  23748 ****        -4.5000 -17.2500 -27.7500 Du        
  23749 ****        -4.5000 -17.0000 -27.7500 Du        
  23750 ****        -4.5000  -3.7500 -19.2500 Du        
  23751 ****        -4.5000   3.2500 -18.5000 Du        
  23752 ****        -4.5000   3.5000 -18.5000 Du        
  23753 ****        -4.5000   3.5000 -18.2500 Du        
  23754 ****        -4.5000   3.7500 -18.5000 Du        
  23755 ****        -4.5000   3.7500 -18.2500 Du        
  23756 ****        -4.5000   3.7500 -18.0000 Du        
  23757 ****        -4.5000   3.7500 -17.7500 Du        
  23758 ****        -4.5000   3.7500 -17.5000 Du        
  23759 ****        -4.5000   4.0000 -18.5000 Du        
  23760 ****        -4.5000   4.0000 -18.2500 Du        
  23761 ****        -4.5000   4.0000 -18.0000 Du        
  23762 ****        -4.5000   4.0000 -17.7500 Du        
  23763 ****        -4.5000   4.0000 -17.5000 Du        
  23764 ****        -4.5000   4.0000 -17.2500 Du        
  23765 ****        -4.5000   4.0000 -17.0000 Du        
  23766 ****        -4.5000   4.2500 -18.2500 Du        
  23767 ****        -4.5000   4.2500 -18.0000 Du        
  23768 ****        -4.5000   4.2500 -17.7500 Du        
  23769 ****        -4.5000   4.2500 -17.5000 Du        
  23770 ****        -4.5000   4.2500 -17.2500 Du        
  23771 ****        -4.5000   4.2500 -17.0000 Du        
  23772 ****        -4.5000   4.2500 -16.7500 Du        
  23773 ****        -4.5000   4.5000 -18.0000 Du        
  23774 ****        -4.5000   4.5000 -17.7500 Du        
  23775 ****        -4.5000   4.5000 -17.5000 Du        
  23776 ****        -4.5000   4.5000 -17.2500 Du        
  23777 ****        -4.5000   4.5000 -17.0000 Du        
  23778 ****        -4.5000   4.5000 -16.7500 Du        
  23779 ****        -4.5000   4.7500 -17.7500 Du        
  23780 ****        -4.5000   4.7500 -17.5000 Du        
  23781 ****        -4.5000   4.7500 -17.2500 Du        
  23782 ****        -4.5000   4.7500 -17.0000 Du        
  23783 ****        -4.5000   4.7500 -16.7500 Du        
  23784 ****        -4.5000   5.0000 -17.7500 Du        
  23785 ****        -4.5000   5.0000 -17.5000 Du        
  23786 ****        -4.5000   5.0000 -17.2500 Du        
  23787 ****        -4.5000   5.0000 -17.0000 Du        
  23788 ****        -4.5000   5.2500 -17.5000 Du        
  23789 ****        -4.5000   5.2500 -17.2500 Du        
  23790 ****        -4.5000   5.2500 -17.0000 Du        
  23791 ****        -4.5000   5.5000 -17.5000 Du        
  23792 ****        -4.5000   5.5000 -17.2500 Du        
  23793 ****        -4.5000   5.7500 -17.5000 Du        
  23794 ****        -4.5000   5.7500 -17.2500 Du        
  23795 ****        -4.5000   6.0000 -17.5000 Du        
  23796 ****        -4.2500 -28.7500  -3.2500 Du        
  23797 ****        -4.2500 -28.7500  -3.0000 Du        
  23798 ****        -4.2500 -28.5000  -3.5000 Du        
  23799 ****        -4.2500 -28.5000  -3.2500 Du        
  23800 ****        -4.2500 -28.5000  -3.0000 Du        
  23801 ****        -4.2500 -28.5000  -2.7500 Du        
  23802 ****        -4.2500 -28.2500  -3.0000 Du        
  23803 ****        -4.2500 -28.2500  -2.7500 Du        
  23804 ****        -4.2500 -26.5000 -14.7500 Du        
  23805 ****        -4.2500 -26.2500 -15.0000 Du        
  23806 ****        -4.2500 -26.2500 -14.7500 Du        
  23807 ****        -4.2500 -26.2500  -1.2500 Du        
  23808 ****        -4.2500 -26.2500  -1.0000 Du        
  23809 ****        -4.2500 -26.0000 -28.2500 Du        
  23810 ****        -4.2500 -26.0000 -28.0000 Du        
  23811 ****        -4.2500 -26.0000 -15.0000 Du        
  23812 ****        -4.2500 -26.0000 -14.7500 Du        
  23813 ****        -4.2500 -26.0000 -14.5000 Du        
  23814 ****        -4.2500 -26.0000 -14.2500 Du        
  23815 ****        -4.2500 -26.0000  -1.2500 Du        
  23816 ****        -4.2500 -26.0000  -1.0000 Du        
  23817 ****        -4.2500 -26.0000  -0.7500 Du        
  23818 ****        -4.2500 -26.0000  -0.5000 Du        
  23819 ****        -4.2500 -25.7500 -28.2500 Du        
  23820 ****        -4.2500 -25.7500 -28.0000 Du        
  23821 ****        -4.2500 -25.7500 -15.0000 Du        
  23822 ****        -4.2500 -25.7500 -14.7500 Du        
  23823 ****        -4.2500 -25.7500 -14.5000 Du        
  23824 ****        -4.2500 -25.7500 -14.2500 Du        
  23825 ****        -4.2500 -25.7500  -1.2500 Du        
  23826 ****        -4.2500 -25.7500  -1.0000 Du        
  23827 ****        -4.2500 -25.7500  -0.7500 Du        
  23828 ****        -4.2500 -25.7500  -0.5000 Du        
  23829 ****        -4.2500 -25.7500  -0.2500 Du        
  23830 ****        -4.2500 -25.5000 -28.7500 Du        
  23831 ****        -4.2500 -25.5000 -28.5000 Du        
  23832 ****        -4.2500 -25.5000 -28.2500 Du        
  23833 ****        -4.2500 -25.5000 -15.0000 Du        
  23834 ****        -4.2500 -25.5000 -14.7500 Du        
  23835 ****        -4.2500 -25.5000 -14.5000 Du        
  23836 ****        -4.2500 -25.5000 -14.2500 Du        
  23837 ****        -4.2500 -25.5000  -1.0000 Du        
  23838 ****        -4.2500 -25.5000  -0.7500 Du        
  23839 ****        -4.2500 -25.5000  -0.5000 Du        
  23840 ****        -4.2500 -25.5000  -0.2500 Du        
  23841 ****        -4.2500 -25.5000   0.0000 Du        
  23842 ****        -4.2500 -25.5000   0.2500 Du        
  23843 ****        -4.2500 -25.2500 -28.7500 Du        
  23844 ****        -4.2500 -25.2500 -15.0000 Du        
  23845 ****        -4.2500 -25.2500 -14.7500 Du        
  23846 ****        -4.2500 -25.2500 -14.5000 Du        
  23847 ****        -4.2500 -25.2500 -14.2500 Du        
  23848 ****        -4.2500 -25.2500  -1.0000 Du        
  23849 ****        -4.2500 -25.2500  -0.7500 Du        
  23850 ****        -4.2500 -25.2500  -0.5000 Du        
  23851 ****        -4.2500 -25.2500  -0.2500 Du        
  23852 ****        -4.2500 -25.2500   0.0000 Du        
  23853 ****        -4.2500 -25.2500   0.2500 Du        
  23854 ****        -4.2500 -25.2500   0.5000 Du        
  23855 ****        -4.2500 -25.2500   0.7500 Du        
  23856 ****        -4.2500 -25.2500   1.0000 Du        
  23857 ****        -4.2500 -25.2500   1.2500 Du        
  23858 ****        -4.2500 -25.0000 -29.2500 Du        
  23859 ****        -4.2500 -25.0000 -29.0000 Du        
  23860 ****        -4.2500 -25.0000 -14.7500 Du        
  23861 ****        -4.2500 -25.0000 -14.5000 Du        
  23862 ****        -4.2500 -25.0000 -14.2500 Du        
  23863 ****        -4.2500 -25.0000  -1.0000 Du        
  23864 ****        -4.2500 -25.0000  -0.7500 Du        
  23865 ****        -4.2500 -25.0000  -0.5000 Du        
  23866 ****        -4.2500 -25.0000  -0.2500 Du        
  23867 ****        -4.2500 -25.0000   0.0000 Du        
  23868 ****        -4.2500 -25.0000   0.2500 Du        
  23869 ****        -4.2500 -25.0000   0.5000 Du        
  23870 ****        -4.2500 -25.0000   0.7500 Du        
  23871 ****        -4.2500 -25.0000   1.0000 Du        
  23872 ****        -4.2500 -25.0000   1.2500 Du        
  23873 ****        -4.2500 -25.0000   1.5000 Du        
  23874 ****        -4.2500 -25.0000   1.7500 Du        
  23875 ****        -4.2500 -25.0000   2.0000 Du        
  23876 ****        -4.2500 -24.7500  -1.0000 Du        
  23877 ****        -4.2500 -24.7500  -0.7500 Du        
  23878 ****        -4.2500 -24.7500  -0.5000 Du        
  23879 ****        -4.2500 -24.7500  -0.2500 Du        
  23880 ****        -4.2500 -24.7500   0.0000 Du        
  23881 ****        -4.2500 -24.7500   0.2500 Du        
  23882 ****        -4.2500 -24.7500   0.5000 Du        
  23883 ****        -4.2500 -24.7500   0.7500 Du        
  23884 ****        -4.2500 -24.7500   1.0000 Du        
  23885 ****        -4.2500 -24.7500   1.2500 Du        
  23886 ****        -4.2500 -24.7500   1.5000 Du        
  23887 ****        -4.2500 -24.7500   1.7500 Du        
  23888 ****        -4.2500 -24.7500   2.0000 Du        
  23889 ****        -4.2500 -24.5000  -1.0000 Du        
  23890 ****        -4.2500 -24.5000  -0.7500 Du        
  23891 ****        -4.2500 -24.5000  -0.5000 Du        
  23892 ****        -4.2500 -24.5000  -0.2500 Du        
  23893 ****        -4.2500 -24.5000   0.0000 Du        
  23894 ****        -4.2500 -24.5000   0.2500 Du        
  23895 ****        -4.2500 -24.5000   0.5000 Du        
  23896 ****        -4.2500 -24.5000   0.7500 Du        
  23897 ****        -4.2500 -24.5000   1.0000 Du        
  23898 ****        -4.2500 -24.5000   1.2500 Du        
  23899 ****        -4.2500 -24.5000   1.5000 Du        
  23900 ****        -4.2500 -24.5000   1.7500 Du        
  23901 ****        -4.2500 -24.5000   2.0000 Du        
  23902 ****        -4.2500 -24.5000   2.2500 Du        
  23903 ****        -4.2500 -24.5000   2.5000 Du        
  23904 ****        -4.2500 -24.2500  -1.0000 Du        
  23905 ****        -4.2500 -24.2500  -0.7500 Du        
  23906 ****        -4.2500 -24.2500  -0.5000 Du        
  23907 ****        -4.2500 -24.2500  -0.2500 Du        
  23908 ****        -4.2500 -24.2500   0.0000 Du        
  23909 ****        -4.2500 -24.2500   0.2500 Du        
  23910 ****        -4.2500 -24.2500   0.5000 Du        
  23911 ****        -4.2500 -24.2500   0.7500 Du        
  23912 ****        -4.2500 -24.2500   1.0000 Du        
  23913 ****        -4.2500 -24.2500   1.2500 Du        
  23914 ****        -4.2500 -24.2500   1.5000 Du        
  23915 ****        -4.2500 -24.2500   1.7500 Du        
  23916 ****        -4.2500 -24.2500   2.0000 Du        
  23917 ****        -4.2500 -24.2500   2.2500 Du        
  23918 ****        -4.2500 -24.0000  -1.0000 Du        
  23919 ****        -4.2500 -24.0000  -0.7500 Du        
  23920 ****        -4.2500 -24.0000  -0.5000 Du        
  23921 ****        -4.2500 -24.0000  -0.2500 Du        
  23922 ****        -4.2500 -24.0000   0.0000 Du        
  23923 ****        -4.2500 -24.0000   0.2500 Du        
  23924 ****        -4.2500 -24.0000   0.5000 Du        
  23925 ****        -4.2500 -24.0000   0.7500 Du        
  23926 ****        -4.2500 -24.0000   1.0000 Du        
  23927 ****        -4.2500 -24.0000   1.2500 Du        
  23928 ****        -4.2500 -24.0000   1.5000 Du        
  23929 ****        -4.2500 -24.0000   1.7500 Du        
  23930 ****        -4.2500 -24.0000   2.0000 Du        
  23931 ****        -4.2500 -24.0000   2.2500 Du        
  23932 ****        -4.2500 -23.7500  -1.0000 Du        
  23933 ****        -4.2500 -23.7500  -0.7500 Du        
  23934 ****        -4.2500 -23.7500  -0.5000 Du        
  23935 ****        -4.2500 -23.7500  -0.2500 Du        
  23936 ****        -4.2500 -23.7500   0.0000 Du        
  23937 ****        -4.2500 -23.7500   0.2500 Du        
  23938 ****        -4.2500 -23.7500   0.5000 Du        
  23939 ****        -4.2500 -23.7500   0.7500 Du        
  23940 ****        -4.2500 -23.7500   1.0000 Du        
  23941 ****        -4.2500 -23.7500   1.2500 Du        
  23942 ****        -4.2500 -23.7500   1.5000 Du        
  23943 ****        -4.2500 -23.7500   1.7500 Du        
  23944 ****        -4.2500 -23.7500   2.0000 Du        
  23945 ****        -4.2500 -23.5000  -1.0000 Du        
  23946 ****        -4.2500 -23.5000  -0.7500 Du        
  23947 ****        -4.2500 -23.5000  -0.5000 Du        
  23948 ****        -4.2500 -23.5000  -0.2500 Du        
  23949 ****        -4.2500 -23.5000   0.0000 Du        
  23950 ****        -4.2500 -23.5000   0.2500 Du        
  23951 ****        -4.2500 -23.5000   0.5000 Du        
  23952 ****        -4.2500 -23.5000   0.7500 Du        
  23953 ****        -4.2500 -23.5000   1.0000 Du        
  23954 ****        -4.2500 -23.5000   1.2500 Du        
  23955 ****        -4.2500 -23.5000   1.5000 Du        
  23956 ****        -4.2500 -23.5000   1.7500 Du        
  23957 ****        -4.2500 -23.5000   2.0000 Du        
  23958 ****        -4.2500 -23.2500  -1.0000 Du        
  23959 ****        -4.2500 -23.2500  -0.7500 Du        
  23960 ****        -4.2500 -23.2500  -0.5000 Du        
  23961 ****        -4.2500 -23.2500  -0.2500 Du        
  23962 ****        -4.2500 -23.2500   0.0000 Du        
  23963 ****        -4.2500 -23.2500   0.2500 Du        
  23964 ****        -4.2500 -23.2500   0.5000 Du        
  23965 ****        -4.2500 -23.2500   0.7500 Du        
  23966 ****        -4.2500 -23.2500   1.0000 Du        
  23967 ****        -4.2500 -23.2500   1.2500 Du        
  23968 ****        -4.2500 -23.2500   1.5000 Du        
  23969 ****        -4.2500 -23.2500   1.7500 Du        
  23970 ****        -4.2500 -23.2500   2.0000 Du        
  23971 ****        -4.2500 -23.0000  -1.0000 Du        
  23972 ****        -4.2500 -23.0000  -0.7500 Du        
  23973 ****        -4.2500 -23.0000  -0.5000 Du        
  23974 ****        -4.2500 -23.0000  -0.2500 Du        
  23975 ****        -4.2500 -23.0000   0.0000 Du        
  23976 ****        -4.2500 -23.0000   0.2500 Du        
  23977 ****        -4.2500 -23.0000   0.5000 Du        
  23978 ****        -4.2500 -23.0000   0.7500 Du        
  23979 ****        -4.2500 -23.0000   1.0000 Du        
  23980 ****        -4.2500 -23.0000   1.2500 Du        
  23981 ****        -4.2500 -23.0000   1.5000 Du        
  23982 ****        -4.2500 -23.0000   1.7500 Du        
  23983 ****        -4.2500 -23.0000   2.0000 Du        
  23984 ****        -4.2500 -22.7500  -0.7500 Du        
  23985 ****        -4.2500 -22.7500  -0.5000 Du        
  23986 ****        -4.2500 -22.7500  -0.2500 Du        
  23987 ****        -4.2500 -22.7500   0.0000 Du        
  23988 ****        -4.2500 -22.7500   0.2500 Du        
  23989 ****        -4.2500 -22.7500   0.5000 Du        
  23990 ****        -4.2500 -22.7500   0.7500 Du        
  23991 ****        -4.2500 -22.7500   1.0000 Du        
  23992 ****        -4.2500 -22.7500   1.2500 Du        
  23993 ****        -4.2500 -22.7500   1.5000 Du        
  23994 ****        -4.2500 -22.7500   1.7500 Du        
  23995 ****        -4.2500 -22.7500   2.0000 Du        
  23996 ****        -4.2500 -22.5000   0.7500 Du        
  23997 ****        -4.2500 -22.5000   1.0000 Du        
  23998 ****        -4.2500 -22.5000   1.2500 Du        
  23999 ****        -4.2500 -22.5000   1.5000 Du        
  24000 ****        -4.2500 -22.5000   1.7500 Du        
  24001 ****        -4.2500 -20.2500 -23.0000 Du        
  24002 ****        -4.2500 -20.2500 -22.7500 Du        
  24003 ****        -4.2500 -20.0000 -23.0000 Du        
  24004 ****        -4.2500 -20.0000 -22.7500 Du        
  24005 ****        -4.2500 -19.7500 -23.2500 Du        
  24006 ****        -4.2500 -19.7500 -23.0000 Du        
  24007 ****        -4.2500 -19.7500 -22.7500 Du        
  24008 ****        -4.2500 -19.5000 -23.2500 Du        
  24009 ****        -4.2500 -19.5000 -23.0000 Du        
  24010 ****        -4.2500 -19.5000 -22.7500 Du        
  24011 ****        -4.2500 -19.2500 -23.2500 Du        
  24012 ****        -4.2500 -19.2500 -23.0000 Du        
  24013 ****        -4.2500 -19.2500 -22.7500 Du        
  24014 ****        -4.2500 -19.2500 -22.5000 Du        
  24015 ****        -4.2500 -19.0000 -23.2500 Du        
  24016 ****        -4.2500 -19.0000 -23.0000 Du        
  24017 ****        -4.2500 -19.0000 -22.7500 Du        
  24018 ****        -4.2500 -19.0000 -22.5000 Du        
  24019 ****        -4.2500 -18.7500 -23.2500 Du        
  24020 ****        -4.2500 -18.7500 -23.0000 Du        
  24021 ****        -4.2500 -18.7500 -22.7500 Du        
  24022 ****        -4.2500 -18.7500 -22.5000 Du        
  24023 ****        -4.2500 -18.5000 -23.2500 Du        
  24024 ****        -4.2500 -18.5000 -23.0000 Du        
  24025 ****        -4.2500 -18.5000 -22.7500 Du        
  24026 ****        -4.2500 -18.5000 -22.5000 Du        
  24027 ****        -4.2500 -18.2500 -23.0000 Du        
  24028 ****        -4.2500 -18.2500 -22.7500 Du        
  24029 ****        -4.2500 -18.2500 -22.5000 Du        
  24030 ****        -4.2500 -18.2500 -22.2500 Du        
  24031 ****        -4.2500 -18.0000 -22.7500 Du        
  24032 ****        -4.2500 -18.0000 -22.5000 Du        
  24033 ****        -4.2500 -18.0000 -22.2500 Du        
  24034 ****        -4.2500 -17.2500 -27.7500 Du        
  24035 ****        -4.2500 -17.0000 -27.7500 Du        
  24036 ****        -4.2500  -3.7500 -19.2500 Du        
  24037 ****        -4.2500   3.7500 -18.5000 Du        
  24038 ****        -4.2500   3.7500 -18.2500 Du        
  24039 ****        -4.2500   3.7500 -18.0000 Du        
  24040 ****        -4.2500   4.0000 -18.5000 Du        
  24041 ****        -4.2500   4.0000 -18.2500 Du        
  24042 ****        -4.2500   4.0000 -18.0000 Du        
  24043 ****        -4.2500   4.0000 -17.7500 Du        
  24044 ****        -4.2500   4.0000 -17.5000 Du        
  24045 ****        -4.2500   4.0000 -17.2500 Du        
  24046 ****        -4.2500   4.2500 -18.5000 Du        
  24047 ****        -4.2500   4.2500 -18.2500 Du        
  24048 ****        -4.2500   4.2500 -18.0000 Du        
  24049 ****        -4.2500   4.2500 -17.7500 Du        
  24050 ****        -4.2500   4.2500 -17.5000 Du        
  24051 ****        -4.2500   4.2500 -17.2500 Du        
  24052 ****        -4.2500   4.2500 -17.0000 Du        
  24053 ****        -4.2500   4.5000 -18.2500 Du        
  24054 ****        -4.2500   4.5000 -18.0000 Du        
  24055 ****        -4.2500   4.5000 -17.7500 Du        
  24056 ****        -4.2500   4.5000 -17.5000 Du        
  24057 ****        -4.2500   4.5000 -17.2500 Du        
  24058 ****        -4.2500   4.5000 -17.0000 Du        
  24059 ****        -4.2500   4.7500 -18.0000 Du        
  24060 ****        -4.2500   4.7500 -17.7500 Du        
  24061 ****        -4.2500   4.7500 -17.5000 Du        
  24062 ****        -4.2500   4.7500 -17.2500 Du        
  24063 ****        -4.2500   4.7500 -17.0000 Du        
  24064 ****        -4.2500   5.0000 -17.7500 Du        
  24065 ****        -4.2500   5.0000 -17.5000 Du        
  24066 ****        -4.2500   5.0000 -17.2500 Du        
  24067 ****        -4.2500   5.0000 -17.0000 Du        
  24068 ****        -4.2500   5.2500 -17.5000 Du        
  24069 ****        -4.2500   5.2500 -17.2500 Du        
  24070 ****        -4.2500   5.2500 -17.0000 Du        
  24071 ****        -4.2500   5.5000 -17.5000 Du        
  24072 ****        -4.2500   5.5000 -17.2500 Du        
  24073 ****        -4.0000 -26.5000 -27.7500 Du        
  24074 ****        -4.0000 -26.5000 -14.7500 Du        
  24075 ****        -4.0000 -26.2500 -27.7500 Du        
  24076 ****        -4.0000 -26.2500 -15.0000 Du        
  24077 ****        -4.0000 -26.2500 -14.7500 Du        
  24078 ****        -4.0000 -26.0000 -28.2500 Du        
  24079 ****        -4.0000 -26.0000 -28.0000 Du        
  24080 ****        -4.0000 -26.0000 -27.7500 Du        
  24081 ****        -4.0000 -26.0000 -15.2500 Du        
  24082 ****        -4.0000 -26.0000 -15.0000 Du        
  24083 ****        -4.0000 -26.0000 -14.7500 Du        
  24084 ****        -4.0000 -26.0000 -14.5000 Du        
  24085 ****        -4.0000 -26.0000  -1.0000 Du        
  24086 ****        -4.0000 -26.0000  -0.7500 Du        
  24087 ****        -4.0000 -25.7500 -28.2500 Du        
  24088 ****        -4.0000 -25.7500 -28.0000 Du        
  24089 ****        -4.0000 -25.7500 -15.0000 Du        
  24090 ****        -4.0000 -25.7500 -14.7500 Du        
  24091 ****        -4.0000 -25.7500 -14.5000 Du        
  24092 ****        -4.0000 -25.7500  -1.0000 Du        
  24093 ****        -4.0000 -25.7500  -0.7500 Du        
  24094 ****        -4.0000 -25.7500  -0.5000 Du        
  24095 ****        -4.0000 -25.7500  -0.2500 Du        
  24096 ****        -4.0000 -25.5000 -28.7500 Du        
  24097 ****        -4.0000 -25.5000 -28.5000 Du        
  24098 ****        -4.0000 -25.5000 -15.0000 Du        
  24099 ****        -4.0000 -25.5000 -14.7500 Du        
  24100 ****        -4.0000 -25.5000 -14.5000 Du        
  24101 ****        -4.0000 -25.5000  -1.0000 Du        
  24102 ****        -4.0000 -25.5000  -0.7500 Du        
  24103 ****        -4.0000 -25.5000  -0.5000 Du        
  24104 ****        -4.0000 -25.5000  -0.2500 Du        
  24105 ****        -4.0000 -25.5000   0.0000 Du        
  24106 ****        -4.0000 -25.2500 -15.0000 Du        
  24107 ****        -4.0000 -25.2500 -14.7500 Du        
  24108 ****        -4.0000 -25.2500 -14.5000 Du        
  24109 ****        -4.0000 -25.2500 -14.2500 Du        
  24110 ****        -4.0000 -25.2500  -1.0000 Du        
  24111 ****        -4.0000 -25.2500  -0.7500 Du        
  24112 ****        -4.0000 -25.2500  -0.5000 Du        
  24113 ****        -4.0000 -25.2500  -0.2500 Du        
  24114 ****        -4.0000 -25.2500   0.0000 Du        
  24115 ****        -4.0000 -25.2500   0.2500 Du        
  24116 ****        -4.0000 -25.2500   0.5000 Du        
  24117 ****        -4.0000 -25.2500   0.7500 Du        
  24118 ****        -4.0000 -25.2500   1.0000 Du        
  24119 ****        -4.0000 -25.0000 -29.2500 Du        
  24120 ****        -4.0000 -25.0000 -14.7500 Du        
  24121 ****        -4.0000 -25.0000 -14.5000 Du        
  24122 ****        -4.0000 -25.0000  -1.0000 Du        
  24123 ****        -4.0000 -25.0000  -0.7500 Du        
  24124 ****        -4.0000 -25.0000  -0.5000 Du        
  24125 ****        -4.0000 -25.0000  -0.2500 Du        
  24126 ****        -4.0000 -25.0000   0.0000 Du        
  24127 ****        -4.0000 -25.0000   0.2500 Du        
  24128 ****        -4.0000 -25.0000   0.5000 Du        
  24129 ****        -4.0000 -25.0000   0.7500 Du        
  24130 ****        -4.0000 -25.0000   1.0000 Du        
  24131 ****        -4.0000 -25.0000   1.2500 Du        
  24132 ****        -4.0000 -25.0000   1.5000 Du        
  24133 ****        -4.0000 -25.0000   1.7500 Du        
  24134 ****        -4.0000 -24.7500  -0.7500 Du        
  24135 ****        -4.0000 -24.7500  -0.5000 Du        
  24136 ****        -4.0000 -24.7500  -0.2500 Du        
  24137 ****        -4.0000 -24.7500   0.0000 Du        
  24138 ****        -4.0000 -24.7500   0.2500 Du        
  24139 ****        -4.0000 -24.7500   0.5000 Du        
  24140 ****        -4.0000 -24.7500   0.7500 Du        
  24141 ****        -4.0000 -24.7500   1.0000 Du        
  24142 ****        -4.0000 -24.7500   1.2500 Du        
  24143 ****        -4.0000 -24.7500   1.5000 Du        
  24144 ****        -4.0000 -24.7500   1.7500 Du        
  24145 ****        -4.0000 -24.7500   2.0000 Du        
  24146 ****        -4.0000 -24.5000  -0.7500 Du        
  24147 ****        -4.0000 -24.5000  -0.5000 Du        
  24148 ****        -4.0000 -24.5000  -0.2500 Du        
  24149 ****        -4.0000 -24.5000   0.0000 Du        
  24150 ****        -4.0000 -24.5000   0.2500 Du        
  24151 ****        -4.0000 -24.5000   0.5000 Du        
  24152 ****        -4.0000 -24.5000   0.7500 Du        
  24153 ****        -4.0000 -24.5000   1.0000 Du        
  24154 ****        -4.0000 -24.5000   1.2500 Du        
  24155 ****        -4.0000 -24.5000   1.5000 Du        
  24156 ****        -4.0000 -24.5000   1.7500 Du        
  24157 ****        -4.0000 -24.5000   2.0000 Du        
  24158 ****        -4.0000 -24.5000   2.2500 Du        
  24159 ****        -4.0000 -24.2500  -0.7500 Du        
  24160 ****        -4.0000 -24.2500  -0.5000 Du        
  24161 ****        -4.0000 -24.2500  -0.2500 Du        
  24162 ****        -4.0000 -24.2500   0.0000 Du        
  24163 ****        -4.0000 -24.2500   0.2500 Du        
  24164 ****        -4.0000 -24.2500   0.5000 Du        
  24165 ****        -4.0000 -24.2500   0.7500 Du        
  24166 ****        -4.0000 -24.2500   1.0000 Du        
  24167 ****        -4.0000 -24.2500   1.2500 Du        
  24168 ****        -4.0000 -24.2500   1.5000 Du        
  24169 ****        -4.0000 -24.2500   1.7500 Du        
  24170 ****        -4.0000 -24.2500   2.0000 Du        
  24171 ****        -4.0000 -24.2500   2.2500 Du        
  24172 ****        -4.0000 -24.0000  -0.7500 Du        
  24173 ****        -4.0000 -24.0000  -0.5000 Du        
  24174 ****        -4.0000 -24.0000  -0.2500 Du        
  24175 ****        -4.0000 -24.0000   0.0000 Du        
  24176 ****        -4.0000 -24.0000   0.2500 Du        
  24177 ****        -4.0000 -24.0000   0.5000 Du        
  24178 ****        -4.0000 -24.0000   0.7500 Du        
  24179 ****        -4.0000 -24.0000   1.0000 Du        
  24180 ****        -4.0000 -24.0000   1.2500 Du        
  24181 ****        -4.0000 -24.0000   1.5000 Du        
  24182 ****        -4.0000 -24.0000   1.7500 Du        
  24183 ****        -4.0000 -24.0000   2.0000 Du        
  24184 ****        -4.0000 -23.7500  -0.7500 Du        
  24185 ****        -4.0000 -23.7500  -0.5000 Du        
  24186 ****        -4.0000 -23.7500  -0.2500 Du        
  24187 ****        -4.0000 -23.7500   0.0000 Du        
  24188 ****        -4.0000 -23.7500   0.2500 Du        
  24189 ****        -4.0000 -23.7500   0.5000 Du        
  24190 ****        -4.0000 -23.7500   0.7500 Du        
  24191 ****        -4.0000 -23.7500   1.0000 Du        
  24192 ****        -4.0000 -23.7500   1.2500 Du        
  24193 ****        -4.0000 -23.7500   1.5000 Du        
  24194 ****        -4.0000 -23.7500   1.7500 Du        
  24195 ****        -4.0000 -23.7500   2.0000 Du        
  24196 ****        -4.0000 -23.5000  -0.7500 Du        
  24197 ****        -4.0000 -23.5000  -0.5000 Du        
  24198 ****        -4.0000 -23.5000  -0.2500 Du        
  24199 ****        -4.0000 -23.5000   0.0000 Du        
  24200 ****        -4.0000 -23.5000   0.2500 Du        
  24201 ****        -4.0000 -23.5000   0.5000 Du        
  24202 ****        -4.0000 -23.5000   0.7500 Du        
  24203 ****        -4.0000 -23.5000   1.0000 Du        
  24204 ****        -4.0000 -23.5000   1.2500 Du        
  24205 ****        -4.0000 -23.5000   1.5000 Du        
  24206 ****        -4.0000 -23.5000   1.7500 Du        
  24207 ****        -4.0000 -23.2500  -0.7500 Du        
  24208 ****        -4.0000 -23.2500  -0.5000 Du        
  24209 ****        -4.0000 -23.2500  -0.2500 Du        
  24210 ****        -4.0000 -23.2500   0.0000 Du        
  24211 ****        -4.0000 -23.2500   0.2500 Du        
  24212 ****        -4.0000 -23.2500   0.5000 Du        
  24213 ****        -4.0000 -23.2500   0.7500 Du        
  24214 ****        -4.0000 -23.2500   1.0000 Du        
  24215 ****        -4.0000 -23.2500   1.2500 Du        
  24216 ****        -4.0000 -23.2500   1.5000 Du        
  24217 ****        -4.0000 -23.2500   1.7500 Du        
  24218 ****        -4.0000 -23.0000  -0.7500 Du        
  24219 ****        -4.0000 -23.0000  -0.5000 Du        
  24220 ****        -4.0000 -23.0000  -0.2500 Du        
  24221 ****        -4.0000 -23.0000   0.0000 Du        
  24222 ****        -4.0000 -23.0000   0.2500 Du        
  24223 ****        -4.0000 -23.0000   0.5000 Du        
  24224 ****        -4.0000 -23.0000   0.7500 Du        
  24225 ****        -4.0000 -23.0000   1.0000 Du        
  24226 ****        -4.0000 -23.0000   1.2500 Du        
  24227 ****        -4.0000 -23.0000   1.5000 Du        
  24228 ****        -4.0000 -23.0000   1.7500 Du        
  24229 ****        -4.0000 -22.7500  -0.7500 Du        
  24230 ****        -4.0000 -22.7500  -0.5000 Du        
  24231 ****        -4.0000 -22.7500  -0.2500 Du        
  24232 ****        -4.0000 -22.7500   0.0000 Du        
  24233 ****        -4.0000 -22.7500   0.2500 Du        
  24234 ****        -4.0000 -22.7500   0.5000 Du        
  24235 ****        -4.0000 -22.7500   0.7500 Du        
  24236 ****        -4.0000 -22.7500   1.0000 Du        
  24237 ****        -4.0000 -22.7500   1.2500 Du        
  24238 ****        -4.0000 -22.7500   1.5000 Du        
  24239 ****        -4.0000 -22.7500   1.7500 Du        
  24240 ****        -4.0000 -22.5000   0.2500 Du        
  24241 ****        -4.0000 -22.5000   0.5000 Du        
  24242 ****        -4.0000 -22.5000   0.7500 Du        
  24243 ****        -4.0000 -22.5000   1.0000 Du        
  24244 ****        -4.0000 -22.5000   1.2500 Du        
  24245 ****        -4.0000 -22.5000   1.5000 Du        
  24246 ****        -4.0000 -20.7500 -22.7500 Du        
  24247 ****        -4.0000 -20.7500 -22.5000 Du        
  24248 ****        -4.0000 -20.5000 -22.7500 Du        
  24249 ****        -4.0000 -20.5000 -22.5000 Du        
  24250 ****        -4.0000 -20.2500 -23.0000 Du        
  24251 ****        -4.0000 -20.2500 -22.7500 Du        
  24252 ****        -4.0000 -20.2500 -22.5000 Du        
  24253 ****        -4.0000 -20.0000 -23.0000 Du        
  24254 ****        -4.0000 -20.0000 -22.7500 Du        
  24255 ****        -4.0000 -20.0000 -22.5000 Du        
  24256 ****        -4.0000 -19.7500 -23.0000 Du        
  24257 ****        -4.0000 -19.7500 -22.7500 Du        
  24258 ****        -4.0000 -19.7500 -22.5000 Du        
  24259 ****        -4.0000 -19.5000 -23.0000 Du        
  24260 ****        -4.0000 -19.5000 -22.7500 Du        
  24261 ****        -4.0000 -19.5000 -22.5000 Du        
  24262 ****        -4.0000 -19.2500 -23.0000 Du        
  24263 ****        -4.0000 -19.2500 -22.7500 Du        
  24264 ****        -4.0000 -19.2500 -22.5000 Du        
  24265 ****        -4.0000 -19.0000 -23.0000 Du        
  24266 ****        -4.0000 -19.0000 -22.7500 Du        
  24267 ****        -4.0000 -19.0000 -22.5000 Du        
  24268 ****        -4.0000 -19.0000 -22.2500 Du        
  24269 ****        -4.0000 -18.7500 -23.0000 Du        
  24270 ****        -4.0000 -18.7500 -22.7500 Du        
  24271 ****        -4.0000 -18.7500 -22.5000 Du        
  24272 ****        -4.0000 -18.7500 -22.2500 Du        
  24273 ****        -4.0000 -18.5000 -23.0000 Du        
  24274 ****        -4.0000 -18.5000 -22.7500 Du        
  24275 ****        -4.0000 -18.5000 -22.5000 Du        
  24276 ****        -4.0000 -18.5000 -22.2500 Du        
  24277 ****        -4.0000 -18.2500 -23.0000 Du        
  24278 ****        -4.0000 -18.2500 -22.7500 Du        
  24279 ****        -4.0000 -18.2500 -22.5000 Du        
  24280 ****        -4.0000 -18.2500 -22.2500 Du        
  24281 ****        -4.0000 -18.0000 -22.7500 Du        
  24282 ****        -4.0000 -18.0000 -22.5000 Du        
  24283 ****        -4.0000 -18.0000 -22.2500 Du        
  24284 ****        -4.0000 -18.0000 -22.0000 Du        
  24285 ****        -4.0000  -4.0000 -19.2500 Du        
  24286 ****        -4.0000  -4.0000 -19.0000 Du        
  24287 ****        -4.0000   3.7500 -18.5000 Du        
  24288 ****        -4.0000   4.0000 -18.5000 Du        
  24289 ****        -4.0000   4.0000 -18.2500 Du        
  24290 ****        -4.0000   4.0000 -18.0000 Du        
  24291 ****        -4.0000   4.0000 -17.7500 Du        
  24292 ****        -4.0000   4.0000 -17.5000 Du        
  24293 ****        -4.0000   4.2500 -18.5000 Du        
  24294 ****        -4.0000   4.2500 -18.2500 Du        
  24295 ****        -4.0000   4.2500 -18.0000 Du        
  24296 ****        -4.0000   4.2500 -17.7500 Du        
  24297 ****        -4.0000   4.2500 -17.5000 Du        
  24298 ****        -4.0000   4.2500 -17.2500 Du        
  24299 ****        -4.0000   4.2500 -17.0000 Du        
  24300 ****        -4.0000   4.5000 -18.2500 Du        
  24301 ****        -4.0000   4.5000 -18.0000 Du        
  24302 ****        -4.0000   4.5000 -17.7500 Du        
  24303 ****        -4.0000   4.5000 -17.5000 Du        
  24304 ****        -4.0000   4.5000 -17.2500 Du        
  24305 ****        -4.0000   4.5000 -17.0000 Du        
  24306 ****        -4.0000   4.7500 -18.0000 Du        
  24307 ****        -4.0000   4.7500 -17.7500 Du        
  24308 ****        -4.0000   4.7500 -17.5000 Du        
  24309 ****        -4.0000   4.7500 -17.2500 Du        
  24310 ****        -4.0000   4.7500 -17.0000 Du        
  24311 ****        -4.0000   5.0000 -18.0000 Du        
  24312 ****        -4.0000   5.0000 -17.7500 Du        
  24313 ****        -4.0000   5.0000 -17.5000 Du        
  24314 ****        -4.0000   5.0000 -17.2500 Du        
  24315 ****        -4.0000   5.0000 -17.0000 Du        
  24316 ****        -4.0000   5.2500 -17.5000 Du        
  24317 ****        -4.0000   5.2500 -17.2500 Du        
  24318 ****        -3.7500 -26.5000 -27.7500 Du        
  24319 ****        -3.7500 -26.2500 -27.7500 Du        
  24320 ****        -3.7500 -26.2500 -15.0000 Du        
  24321 ****        -3.7500 -26.2500 -14.7500 Du        
  24322 ****        -3.7500 -26.0000 -28.2500 Du        
  24323 ****        -3.7500 -26.0000 -28.0000 Du        
  24324 ****        -3.7500 -26.0000 -15.2500 Du        
  24325 ****        -3.7500 -26.0000 -15.0000 Du        
  24326 ****        -3.7500 -26.0000 -14.7500 Du        
  24327 ****        -3.7500 -25.7500 -28.2500 Du        
  24328 ****        -3.7500 -25.7500 -15.2500 Du        
  24329 ****        -3.7500 -25.7500 -15.0000 Du        
  24330 ****        -3.7500 -25.7500 -14.7500 Du        
  24331 ****        -3.7500 -25.7500 -14.5000 Du        
  24332 ****        -3.7500 -25.5000 -28.7500 Du        
  24333 ****        -3.7500 -25.5000 -15.2500 Du        
  24334 ****        -3.7500 -25.5000 -15.0000 Du        
  24335 ****        -3.7500 -25.5000 -14.7500 Du        
  24336 ****        -3.7500 -25.5000 -14.5000 Du        
  24337 ****        -3.7500 -25.2500 -15.0000 Du        
  24338 ****        -3.7500 -25.2500 -14.7500 Du        
  24339 ****        -3.7500 -25.2500 -14.5000 Du        
  24340 ****        -3.7500 -25.2500  -0.5000 Du        
  24341 ****        -3.7500 -25.2500  -0.2500 Du        
  24342 ****        -3.7500 -25.2500   0.0000 Du        
  24343 ****        -3.7500 -25.2500   0.2500 Du        
  24344 ****        -3.7500 -25.0000 -14.7500 Du        
  24345 ****        -3.7500 -25.0000 -14.5000 Du        
  24346 ****        -3.7500 -25.0000  -0.5000 Du        
  24347 ****        -3.7500 -25.0000  -0.2500 Du        
  24348 ****        -3.7500 -25.0000   0.0000 Du        
  24349 ****        -3.7500 -25.0000   0.2500 Du        
  24350 ****        -3.7500 -25.0000   0.5000 Du        
  24351 ****        -3.7500 -25.0000   0.7500 Du        
  24352 ****        -3.7500 -25.0000   1.0000 Du        
  24353 ****        -3.7500 -25.0000   1.2500 Du        
  24354 ****        -3.7500 -25.0000   1.5000 Du        
  24355 ****        -3.7500 -24.7500 -21.0000 Du        
  24356 ****        -3.7500 -24.7500  -0.5000 Du        
  24357 ****        -3.7500 -24.7500  -0.2500 Du        
  24358 ****        -3.7500 -24.7500   0.0000 Du        
  24359 ****        -3.7500 -24.7500   0.2500 Du        
  24360 ****        -3.7500 -24.7500   0.5000 Du        
  24361 ****        -3.7500 -24.7500   0.7500 Du        
  24362 ****        -3.7500 -24.7500   1.0000 Du        
  24363 ****        -3.7500 -24.7500   1.2500 Du        
  24364 ****        -3.7500 -24.7500   1.5000 Du        
  24365 ****        -3.7500 -24.7500   1.7500 Du        
  24366 ****        -3.7500 -24.7500   2.0000 Du        
  24367 ****        -3.7500 -24.5000 -21.0000 Du        
  24368 ****        -3.7500 -24.5000 -20.7500 Du        
  24369 ****        -3.7500 -24.5000  -0.5000 Du        
  24370 ****        -3.7500 -24.5000  -0.2500 Du        
  24371 ****        -3.7500 -24.5000   0.0000 Du        
  24372 ****        -3.7500 -24.5000   0.2500 Du        
  24373 ****        -3.7500 -24.5000   0.5000 Du        
  24374 ****        -3.7500 -24.5000   0.7500 Du        
  24375 ****        -3.7500 -24.5000   1.0000 Du        
  24376 ****        -3.7500 -24.5000   1.2500 Du        
  24377 ****        -3.7500 -24.5000   1.5000 Du        
  24378 ****        -3.7500 -24.5000   1.7500 Du        
  24379 ****        -3.7500 -24.5000   2.0000 Du        
  24380 ****        -3.7500 -24.2500 -21.0000 Du        
  24381 ****        -3.7500 -24.2500 -20.7500 Du        
  24382 ****        -3.7500 -24.2500  -0.7500 Du        
  24383 ****        -3.7500 -24.2500  -0.5000 Du        
  24384 ****        -3.7500 -24.2500  -0.2500 Du        
  24385 ****        -3.7500 -24.2500   0.0000 Du        
  24386 ****        -3.7500 -24.2500   0.2500 Du        
  24387 ****        -3.7500 -24.2500   0.5000 Du        
  24388 ****        -3.7500 -24.2500   0.7500 Du        
  24389 ****        -3.7500 -24.2500   1.0000 Du        
  24390 ****        -3.7500 -24.2500   1.2500 Du        
  24391 ****        -3.7500 -24.2500   1.5000 Du        
  24392 ****        -3.7500 -24.2500   1.7500 Du        
  24393 ****        -3.7500 -24.2500   2.0000 Du        
  24394 ****        -3.7500 -24.0000  -0.7500 Du        
  24395 ****        -3.7500 -24.0000  -0.5000 Du        
  24396 ****        -3.7500 -24.0000  -0.2500 Du        
  24397 ****        -3.7500 -24.0000   0.0000 Du        
  24398 ****        -3.7500 -24.0000   0.2500 Du        
  24399 ****        -3.7500 -24.0000   0.5000 Du        
  24400 ****        -3.7500 -24.0000   0.7500 Du        
  24401 ****        -3.7500 -24.0000   1.0000 Du        
  24402 ****        -3.7500 -24.0000   1.2500 Du        
  24403 ****        -3.7500 -24.0000   1.5000 Du        
  24404 ****        -3.7500 -24.0000   1.7500 Du        
  24405 ****        -3.7500 -23.7500  -0.7500 Du        
  24406 ****        -3.7500 -23.7500  -0.5000 Du        
  24407 ****        -3.7500 -23.7500  -0.2500 Du        
  24408 ****        -3.7500 -23.7500   0.0000 Du        
  24409 ****        -3.7500 -23.7500   0.2500 Du        
  24410 ****        -3.7500 -23.7500   0.5000 Du        
  24411 ****        -3.7500 -23.7500   0.7500 Du        
  24412 ****        -3.7500 -23.7500   1.0000 Du        
  24413 ****        -3.7500 -23.7500   1.2500 Du        
  24414 ****        -3.7500 -23.7500   1.5000 Du        
  24415 ****        -3.7500 -23.7500   1.7500 Du        
  24416 ****        -3.7500 -23.5000  -0.7500 Du        
  24417 ****        -3.7500 -23.5000  -0.5000 Du        
  24418 ****        -3.7500 -23.5000  -0.2500 Du        
  24419 ****        -3.7500 -23.5000   0.0000 Du        
  24420 ****        -3.7500 -23.5000   0.2500 Du        
  24421 ****        -3.7500 -23.5000   0.5000 Du        
  24422 ****        -3.7500 -23.5000   0.7500 Du        
  24423 ****        -3.7500 -23.5000   1.0000 Du        
  24424 ****        -3.7500 -23.5000   1.2500 Du        
  24425 ****        -3.7500 -23.5000   1.5000 Du        
  24426 ****        -3.7500 -23.5000   1.7500 Du        
  24427 ****        -3.7500 -23.2500  -0.7500 Du        
  24428 ****        -3.7500 -23.2500  -0.5000 Du        
  24429 ****        -3.7500 -23.2500  -0.2500 Du        
  24430 ****        -3.7500 -23.2500   0.0000 Du        
  24431 ****        -3.7500 -23.2500   0.2500 Du        
  24432 ****        -3.7500 -23.2500   0.5000 Du        
  24433 ****        -3.7500 -23.2500   0.7500 Du        
  24434 ****        -3.7500 -23.2500   1.0000 Du        
  24435 ****        -3.7500 -23.2500   1.2500 Du        
  24436 ****        -3.7500 -23.2500   1.5000 Du        
  24437 ****        -3.7500 -23.2500   1.7500 Du        
  24438 ****        -3.7500 -23.0000  -0.7500 Du        
  24439 ****        -3.7500 -23.0000  -0.5000 Du        
  24440 ****        -3.7500 -23.0000  -0.2500 Du        
  24441 ****        -3.7500 -23.0000   0.0000 Du        
  24442 ****        -3.7500 -23.0000   0.2500 Du        
  24443 ****        -3.7500 -23.0000   0.5000 Du        
  24444 ****        -3.7500 -23.0000   0.7500 Du        
  24445 ****        -3.7500 -23.0000   1.0000 Du        
  24446 ****        -3.7500 -23.0000   1.2500 Du        
  24447 ****        -3.7500 -23.0000   1.5000 Du        
  24448 ****        -3.7500 -22.7500  -0.5000 Du        
  24449 ****        -3.7500 -22.7500  -0.2500 Du        
  24450 ****        -3.7500 -22.7500   0.0000 Du        
  24451 ****        -3.7500 -22.7500   0.2500 Du        
  24452 ****        -3.7500 -22.7500   0.5000 Du        
  24453 ****        -3.7500 -22.7500   0.7500 Du        
  24454 ****        -3.7500 -22.7500   1.0000 Du        
  24455 ****        -3.7500 -22.7500   1.2500 Du        
  24456 ****        -3.7500 -22.7500   1.5000 Du        
  24457 ****        -3.7500 -22.5000   0.2500 Du        
  24458 ****        -3.7500 -22.5000   0.5000 Du        
  24459 ****        -3.7500 -22.5000   0.7500 Du        
  24460 ****        -3.7500 -22.5000   1.0000 Du        
  24461 ****        -3.7500 -22.5000   1.2500 Du        
  24462 ****        -3.7500 -22.5000   1.5000 Du        
  24463 ****        -3.7500 -21.0000 -22.5000 Du        
  24464 ****        -3.7500 -20.7500 -22.7500 Du        
  24465 ****        -3.7500 -20.7500 -22.5000 Du        
  24466 ****        -3.7500 -20.7500 -22.2500 Du        
  24467 ****        -3.7500 -20.5000 -22.7500 Du        
  24468 ****        -3.7500 -20.5000 -22.5000 Du        
  24469 ****        -3.7500 -20.5000 -22.2500 Du        
  24470 ****        -3.7500 -20.2500 -22.7500 Du        
  24471 ****        -3.7500 -20.2500 -22.5000 Du        
  24472 ****        -3.7500 -20.2500 -22.2500 Du        
  24473 ****        -3.7500 -20.0000 -23.0000 Du        
  24474 ****        -3.7500 -20.0000 -22.7500 Du        
  24475 ****        -3.7500 -20.0000 -22.5000 Du        
  24476 ****        -3.7500 -19.7500 -22.7500 Du        
  24477 ****        -3.7500 -19.7500 -22.5000 Du        
  24478 ****        -3.7500 -19.7500 -22.2500 Du        
  24479 ****        -3.7500 -19.5000 -22.7500 Du        
  24480 ****        -3.7500 -19.5000 -22.5000 Du        
  24481 ****        -3.7500 -19.2500 -22.7500 Du        
  24482 ****        -3.7500 -19.2500 -22.5000 Du        
  24483 ****        -3.7500 -19.2500 -22.2500 Du        
  24484 ****        -3.7500 -19.0000 -22.7500 Du        
  24485 ****        -3.7500 -19.0000 -22.5000 Du        
  24486 ****        -3.7500 -19.0000 -22.2500 Du        
  24487 ****        -3.7500 -18.7500 -22.7500 Du        
  24488 ****        -3.7500 -18.7500 -22.5000 Du        
  24489 ****        -3.7500 -18.7500 -22.2500 Du        
  24490 ****        -3.7500 -18.5000 -22.7500 Du        
  24491 ****        -3.7500 -18.5000 -22.5000 Du        
  24492 ****        -3.7500 -18.5000 -22.2500 Du        
  24493 ****        -3.7500 -18.2500 -22.7500 Du        
  24494 ****        -3.7500 -18.2500 -22.5000 Du        
  24495 ****        -3.7500 -18.2500 -22.2500 Du        
  24496 ****        -3.7500 -18.2500 -22.0000 Du        
  24497 ****        -3.7500 -18.0000 -22.7500 Du        
  24498 ****        -3.7500 -18.0000 -22.5000 Du        
  24499 ****        -3.7500 -18.0000 -22.2500 Du        
  24500 ****        -3.7500 -18.0000 -22.0000 Du        
  24501 ****        -3.7500 -16.2500 -17.2500 Du        
  24502 ****        -3.7500  -4.0000 -19.2500 Du        
  24503 ****        -3.7500   4.0000 -18.5000 Du        
  24504 ****        -3.7500   4.0000 -18.0000 Du        
  24505 ****        -3.7500   4.2500 -18.2500 Du        
  24506 ****        -3.7500   4.2500 -18.0000 Du        
  24507 ****        -3.7500   4.2500 -17.7500 Du        
  24508 ****        -3.7500   4.2500 -17.5000 Du        
  24509 ****        -3.7500   4.2500 -17.2500 Du        
  24510 ****        -3.7500   4.5000 -18.0000 Du        
  24511 ****        -3.7500   4.5000 -17.7500 Du        
  24512 ****        -3.7500   4.5000 -17.5000 Du        
  24513 ****        -3.7500   4.5000 -17.2500 Du        
  24514 ****        -3.7500   4.7500 -17.7500 Du        
  24515 ****        -3.7500   4.7500 -17.5000 Du        
  24516 ****        -3.7500   4.7500 -17.2500 Du        
  24517 ****        -3.7500   4.7500 -17.0000 Du        
  24518 ****        -3.7500   5.0000 -17.5000 Du        
  24519 ****        -3.7500   5.0000 -17.2500 Du        
  24520 ****        -3.5000 -26.5000 -27.7500 Du        
  24521 ****        -3.5000 -26.5000 -27.5000 Du        
  24522 ****        -3.5000 -26.2500 -27.7500 Du        
  24523 ****        -3.5000 -26.2500 -15.2500 Du        
  24524 ****        -3.5000 -26.0000 -28.2500 Du        
  24525 ****        -3.5000 -26.0000 -28.0000 Du        
  24526 ****        -3.5000 -26.0000 -27.7500 Du        
  24527 ****        -3.5000 -26.0000 -15.5000 Du        
  24528 ****        -3.5000 -26.0000 -15.2500 Du        
  24529 ****        -3.5000 -26.0000 -15.0000 Du        
  24530 ****        -3.5000 -26.0000 -14.7500 Du        
  24531 ****        -3.5000 -25.7500 -28.2500 Du        
  24532 ****        -3.5000 -25.7500 -15.5000 Du        
  24533 ****        -3.5000 -25.7500 -15.2500 Du        
  24534 ****        -3.5000 -25.7500 -15.0000 Du        
  24535 ****        -3.5000 -25.7500 -14.7500 Du        
  24536 ****        -3.5000 -25.5000 -15.2500 Du        
  24537 ****        -3.5000 -25.5000 -15.0000 Du        
  24538 ****        -3.5000 -25.5000 -14.7500 Du        
  24539 ****        -3.5000 -25.5000 -14.5000 Du        
  24540 ****        -3.5000 -25.2500 -21.2500 Du        
  24541 ****        -3.5000 -25.2500 -21.0000 Du        
  24542 ****        -3.5000 -25.2500 -20.7500 Du        
  24543 ****        -3.5000 -25.2500 -15.2500 Du        
  24544 ****        -3.5000 -25.2500 -15.0000 Du        
  24545 ****        -3.5000 -25.2500 -14.7500 Du        
  24546 ****        -3.5000 -25.2500 -14.5000 Du        
  24547 ****        -3.5000 -25.0000 -21.5000 Du        
  24548 ****        -3.5000 -25.0000 -21.2500 Du        
  24549 ****        -3.5000 -25.0000 -21.0000 Du        
  24550 ****        -3.5000 -25.0000 -20.7500 Du        
  24551 ****        -3.5000 -25.0000 -15.0000 Du        
  24552 ****        -3.5000 -25.0000 -14.7500 Du        
  24553 ****        -3.5000 -25.0000 -14.5000 Du        
  24554 ****        -3.5000 -25.0000   1.2500 Du        
  24555 ****        -3.5000 -24.7500 -21.5000 Du        
  24556 ****        -3.5000 -24.7500 -21.2500 Du        
  24557 ****        -3.5000 -24.7500 -21.0000 Du        
  24558 ****        -3.5000 -24.7500 -20.7500 Du        
  24559 ****        -3.5000 -24.7500 -20.5000 Du        
  24560 ****        -3.5000 -24.7500   0.2500 Du        
  24561 ****        -3.5000 -24.7500   0.5000 Du        
  24562 ****        -3.5000 -24.7500   0.7500 Du        
  24563 ****        -3.5000 -24.7500   1.0000 Du        
  24564 ****        -3.5000 -24.7500   1.2500 Du        
  24565 ****        -3.5000 -24.7500   1.5000 Du        
  24566 ****        -3.5000 -24.7500   1.7500 Du        
  24567 ****        -3.5000 -24.5000 -21.5000 Du        
  24568 ****        -3.5000 -24.5000 -21.2500 Du        
  24569 ****        -3.5000 -24.5000 -21.0000 Du        
  24570 ****        -3.5000 -24.5000 -20.7500 Du        
  24571 ****        -3.5000 -24.5000 -20.5000 Du        
  24572 ****        -3.5000 -24.5000  -0.2500 Du        
  24573 ****        -3.5000 -24.5000   0.0000 Du        
  24574 ****        -3.5000 -24.5000   0.2500 Du        
  24575 ****        -3.5000 -24.5000   0.5000 Du        
  24576 ****        -3.5000 -24.5000   0.7500 Du        
  24577 ****        -3.5000 -24.5000   1.0000 Du        
  24578 ****        -3.5000 -24.5000   1.2500 Du        
  24579 ****        -3.5000 -24.5000   1.5000 Du        
  24580 ****        -3.5000 -24.5000   1.7500 Du        
  24581 ****        -3.5000 -24.5000   2.0000 Du        
  24582 ****        -3.5000 -24.2500 -21.5000 Du        
  24583 ****        -3.5000 -24.2500 -21.2500 Du        
  24584 ****        -3.5000 -24.2500 -21.0000 Du        
  24585 ****        -3.5000 -24.2500 -20.7500 Du        
  24586 ****        -3.5000 -24.2500 -20.5000 Du        
  24587 ****        -3.5000 -24.2500  -0.5000 Du        
  24588 ****        -3.5000 -24.2500  -0.2500 Du        
  24589 ****        -3.5000 -24.2500   0.0000 Du        
  24590 ****        -3.5000 -24.2500   0.2500 Du        
  24591 ****        -3.5000 -24.2500   0.5000 Du        
  24592 ****        -3.5000 -24.2500   0.7500 Du        
  24593 ****        -3.5000 -24.2500   1.0000 Du        
  24594 ****        -3.5000 -24.2500   1.2500 Du        
  24595 ****        -3.5000 -24.2500   1.5000 Du        
  24596 ****        -3.5000 -24.2500   1.7500 Du        
  24597 ****        -3.5000 -24.0000 -21.5000 Du        
  24598 ****        -3.5000 -24.0000 -21.2500 Du        
  24599 ****        -3.5000 -24.0000 -21.0000 Du        
  24600 ****        -3.5000 -24.0000 -20.7500 Du        
  24601 ****        -3.5000 -24.0000  -0.5000 Du        
  24602 ****        -3.5000 -24.0000  -0.2500 Du        
  24603 ****        -3.5000 -24.0000   0.0000 Du        
  24604 ****        -3.5000 -24.0000   0.2500 Du        
  24605 ****        -3.5000 -24.0000   0.5000 Du        
  24606 ****        -3.5000 -24.0000   0.7500 Du        
  24607 ****        -3.5000 -24.0000   1.0000 Du        
  24608 ****        -3.5000 -24.0000   1.2500 Du        
  24609 ****        -3.5000 -24.0000   1.5000 Du        
  24610 ****        -3.5000 -24.0000   1.7500 Du        
  24611 ****        -3.5000 -23.7500 -21.2500 Du        
  24612 ****        -3.5000 -23.7500 -21.0000 Du        
  24613 ****        -3.5000 -23.7500  -0.5000 Du        
  24614 ****        -3.5000 -23.7500  -0.2500 Du        
  24615 ****        -3.5000 -23.7500   0.0000 Du        
  24616 ****        -3.5000 -23.7500   0.2500 Du        
  24617 ****        -3.5000 -23.7500   0.5000 Du        
  24618 ****        -3.5000 -23.7500   0.7500 Du        
  24619 ****        -3.5000 -23.7500   1.0000 Du        
  24620 ****        -3.5000 -23.7500   1.2500 Du        
  24621 ****        -3.5000 -23.7500   1.5000 Du        
  24622 ****        -3.5000 -23.5000  -0.5000 Du        
  24623 ****        -3.5000 -23.5000  -0.2500 Du        
  24624 ****        -3.5000 -23.5000   0.0000 Du        
  24625 ****        -3.5000 -23.5000   0.2500 Du        
  24626 ****        -3.5000 -23.5000   0.5000 Du        
  24627 ****        -3.5000 -23.5000   0.7500 Du        
  24628 ****        -3.5000 -23.5000   1.0000 Du        
  24629 ****        -3.5000 -23.5000   1.2500 Du        
  24630 ****        -3.5000 -23.5000   1.5000 Du        
  24631 ****        -3.5000 -23.2500  -0.5000 Du        
  24632 ****        -3.5000 -23.2500  -0.2500 Du        
  24633 ****        -3.5000 -23.2500   0.0000 Du        
  24634 ****        -3.5000 -23.2500   0.2500 Du        
  24635 ****        -3.5000 -23.2500   0.5000 Du        
  24636 ****        -3.5000 -23.2500   0.7500 Du        
  24637 ****        -3.5000 -23.2500   1.0000 Du        
  24638 ****        -3.5000 -23.2500   1.2500 Du        
  24639 ****        -3.5000 -23.2500   1.5000 Du        
  24640 ****        -3.5000 -23.0000  -0.5000 Du        
  24641 ****        -3.5000 -23.0000  -0.2500 Du        
  24642 ****        -3.5000 -23.0000   0.0000 Du        
  24643 ****        -3.5000 -23.0000   0.2500 Du        
  24644 ****        -3.5000 -23.0000   0.5000 Du        
  24645 ****        -3.5000 -23.0000   0.7500 Du        
  24646 ****        -3.5000 -23.0000   1.0000 Du        
  24647 ****        -3.5000 -23.0000   1.2500 Du        
  24648 ****        -3.5000 -23.0000   1.5000 Du        
  24649 ****        -3.5000 -22.7500   0.0000 Du        
  24650 ****        -3.5000 -22.7500   0.2500 Du        
  24651 ****        -3.5000 -22.7500   0.5000 Du        
  24652 ****        -3.5000 -22.7500   0.7500 Du        
  24653 ****        -3.5000 -22.7500   1.0000 Du        
  24654 ****        -3.5000 -22.7500   1.2500 Du        
  24655 ****        -3.5000 -22.7500   1.5000 Du        
  24656 ****        -3.5000 -22.5000   0.5000 Du        
  24657 ****        -3.5000 -22.5000   0.7500 Du        
  24658 ****        -3.5000 -22.5000   1.0000 Du        
  24659 ****        -3.5000 -22.5000   1.2500 Du        
  24660 ****        -3.5000 -22.5000   1.5000 Du        
  24661 ****        -3.5000 -21.5000 -22.2500 Du        
  24662 ****        -3.5000 -21.2500 -22.5000 Du        
  24663 ****        -3.5000 -21.2500 -22.2500 Du        
  24664 ****        -3.5000 -21.0000 -22.7500 Du        
  24665 ****        -3.5000 -21.0000 -22.5000 Du        
  24666 ****        -3.5000 -21.0000 -22.2500 Du        
  24667 ****        -3.5000 -20.7500 -22.7500 Du        
  24668 ****        -3.5000 -20.7500 -22.5000 Du        
  24669 ****        -3.5000 -20.7500 -22.2500 Du        
  24670 ****        -3.5000 -20.5000 -22.7500 Du        
  24671 ****        -3.5000 -20.5000 -22.5000 Du        
  24672 ****        -3.5000 -20.5000 -22.2500 Du        
  24673 ****        -3.5000 -20.2500 -22.7500 Du        
  24674 ****        -3.5000 -20.2500 -22.5000 Du        
  24675 ****        -3.5000 -20.2500 -22.2500 Du        
  24676 ****        -3.5000 -20.0000 -22.7500 Du        
  24677 ****        -3.5000 -20.0000 -22.5000 Du        
  24678 ****        -3.5000 -20.0000 -22.2500 Du        
  24679 ****        -3.5000 -19.7500 -22.7500 Du        
  24680 ****        -3.5000 -19.7500 -22.5000 Du        
  24681 ****        -3.5000 -19.7500 -22.2500 Du        
  24682 ****        -3.5000 -19.5000 -22.7500 Du        
  24683 ****        -3.5000 -19.5000 -22.5000 Du        
  24684 ****        -3.5000 -19.5000 -22.2500 Du        
  24685 ****        -3.5000 -19.2500 -22.7500 Du        
  24686 ****        -3.5000 -19.2500 -22.5000 Du        
  24687 ****        -3.5000 -19.2500 -22.2500 Du        
  24688 ****        -3.5000 -19.0000 -22.7500 Du        
  24689 ****        -3.5000 -19.0000 -22.5000 Du        
  24690 ****        -3.5000 -19.0000 -22.2500 Du        
  24691 ****        -3.5000 -18.7500 -22.7500 Du        
  24692 ****        -3.5000 -18.7500 -22.5000 Du        
  24693 ****        -3.5000 -18.7500 -22.2500 Du        
  24694 ****        -3.5000 -18.7500 -22.0000 Du        
  24695 ****        -3.5000 -18.5000 -22.5000 Du        
  24696 ****        -3.5000 -18.5000 -22.2500 Du        
  24697 ****        -3.5000 -18.5000 -22.0000 Du        
  24698 ****        -3.5000 -18.2500 -22.5000 Du        
  24699 ****        -3.5000 -18.2500 -22.2500 Du        
  24700 ****        -3.5000 -18.2500 -22.0000 Du        
  24701 ****        -3.5000 -18.0000 -22.5000 Du        
  24702 ****        -3.5000 -18.0000 -22.2500 Du        
  24703 ****        -3.5000 -18.0000 -22.0000 Du        
  24704 ****        -3.5000   4.5000 -17.5000 Du        
  24705 ****        -3.2500 -26.5000 -27.7500 Du        
  24706 ****        -3.2500 -26.5000 -27.5000 Du        
  24707 ****        -3.2500 -26.5000 -15.2500 Du        
  24708 ****        -3.2500 -26.2500 -27.7500 Du        
  24709 ****        -3.2500 -26.2500 -27.5000 Du        
  24710 ****        -3.2500 -26.2500 -15.7500 Du        
  24711 ****        -3.2500 -26.2500 -15.5000 Du        
  24712 ****        -3.2500 -26.2500 -15.2500 Du        
  24713 ****        -3.2500 -26.2500 -15.0000 Du        
  24714 ****        -3.2500 -26.0000 -28.2500 Du        
  24715 ****        -3.2500 -26.0000 -28.0000 Du        
  24716 ****        -3.2500 -26.0000 -27.7500 Du        
  24717 ****        -3.2500 -26.0000 -15.7500 Du        
  24718 ****        -3.2500 -26.0000 -15.5000 Du        
  24719 ****        -3.2500 -26.0000 -15.2500 Du        
  24720 ****        -3.2500 -26.0000 -15.0000 Du        
  24721 ****        -3.2500 -26.0000 -14.7500 Du        
  24722 ****        -3.2500 -25.7500 -15.5000 Du        
  24723 ****        -3.2500 -25.7500 -15.2500 Du        
  24724 ****        -3.2500 -25.7500 -15.0000 Du        
  24725 ****        -3.2500 -25.7500 -14.7500 Du        
  24726 ****        -3.2500 -25.5000 -21.5000 Du        
  24727 ****        -3.2500 -25.5000 -21.2500 Du        
  24728 ****        -3.2500 -25.5000 -21.0000 Du        
  24729 ****        -3.2500 -25.5000 -20.7500 Du        
  24730 ****        -3.2500 -25.5000 -15.5000 Du        
  24731 ****        -3.2500 -25.5000 -15.2500 Du        
  24732 ****        -3.2500 -25.5000 -15.0000 Du        
  24733 ****        -3.2500 -25.5000 -14.7500 Du        
  24734 ****        -3.2500 -25.2500 -21.7500 Du        
  24735 ****        -3.2500 -25.2500 -21.5000 Du        
  24736 ****        -3.2500 -25.2500 -21.2500 Du        
  24737 ****        -3.2500 -25.2500 -21.0000 Du        
  24738 ****        -3.2500 -25.2500 -20.7500 Du        
  24739 ****        -3.2500 -25.2500 -20.5000 Du        
  24740 ****        -3.2500 -25.2500 -15.5000 Du        
  24741 ****        -3.2500 -25.2500 -15.2500 Du        
  24742 ****        -3.2500 -25.2500 -15.0000 Du        
  24743 ****        -3.2500 -25.2500 -14.7500 Du        
  24744 ****        -3.2500 -25.2500 -14.5000 Du        
  24745 ****        -3.2500 -25.0000 -21.7500 Du        
  24746 ****        -3.2500 -25.0000 -21.5000 Du        
  24747 ****        -3.2500 -25.0000 -21.2500 Du        
  24748 ****        -3.2500 -25.0000 -21.0000 Du        
  24749 ****        -3.2500 -25.0000 -20.7500 Du        
  24750 ****        -3.2500 -25.0000 -20.5000 Du        
  24751 ****        -3.2500 -25.0000 -20.2500 Du        
  24752 ****        -3.2500 -25.0000 -15.2500 Du        
  24753 ****        -3.2500 -25.0000 -15.0000 Du        
  24754 ****        -3.2500 -25.0000 -14.7500 Du        
  24755 ****        -3.2500 -25.0000 -14.5000 Du        
  24756 ****        -3.2500 -24.7500 -21.7500 Du        
  24757 ****        -3.2500 -24.7500 -21.5000 Du        
  24758 ****        -3.2500 -24.7500 -21.2500 Du        
  24759 ****        -3.2500 -24.7500 -21.0000 Du        
  24760 ****        -3.2500 -24.7500 -20.7500 Du        
  24761 ****        -3.2500 -24.7500 -20.5000 Du        
  24762 ****        -3.2500 -24.7500 -20.2500 Du        
  24763 ****        -3.2500 -24.7500   1.2500 Du        
  24764 ****        -3.2500 -24.7500   1.5000 Du        
  24765 ****        -3.2500 -24.5000 -22.0000 Du        
  24766 ****        -3.2500 -24.5000 -21.7500 Du        
  24767 ****        -3.2500 -24.5000 -21.5000 Du        
  24768 ****        -3.2500 -24.5000 -21.2500 Du        
  24769 ****        -3.2500 -24.5000 -21.0000 Du        
  24770 ****        -3.2500 -24.5000 -20.7500 Du        
  24771 ****        -3.2500 -24.5000 -20.5000 Du        
  24772 ****        -3.2500 -24.5000   0.7500 Du        
  24773 ****        -3.2500 -24.5000   1.0000 Du        
  24774 ****        -3.2500 -24.5000   1.2500 Du        
  24775 ****        -3.2500 -24.5000   1.5000 Du        
  24776 ****        -3.2500 -24.5000   1.7500 Du        
  24777 ****        -3.2500 -24.2500 -21.7500 Du        
  24778 ****        -3.2500 -24.2500 -21.5000 Du        
  24779 ****        -3.2500 -24.2500 -21.2500 Du        
  24780 ****        -3.2500 -24.2500 -21.0000 Du        
  24781 ****        -3.2500 -24.2500 -20.7500 Du        
  24782 ****        -3.2500 -24.2500 -20.5000 Du        
  24783 ****        -3.2500 -24.2500   0.2500 Du        
  24784 ****        -3.2500 -24.2500   0.5000 Du        
  24785 ****        -3.2500 -24.2500   0.7500 Du        
  24786 ****        -3.2500 -24.2500   1.0000 Du        
  24787 ****        -3.2500 -24.2500   1.2500 Du        
  24788 ****        -3.2500 -24.2500   1.5000 Du        
  24789 ****        -3.2500 -24.2500   1.7500 Du        
  24790 ****        -3.2500 -24.0000 -21.7500 Du        
  24791 ****        -3.2500 -24.0000 -21.5000 Du        
  24792 ****        -3.2500 -24.0000 -21.2500 Du        
  24793 ****        -3.2500 -24.0000 -21.0000 Du        
  24794 ****        -3.2500 -24.0000 -20.7500 Du        
  24795 ****        -3.2500 -24.0000  -0.2500 Du        
  24796 ****        -3.2500 -24.0000   0.0000 Du        
  24797 ****        -3.2500 -24.0000   0.2500 Du        
  24798 ****        -3.2500 -24.0000   0.5000 Du        
  24799 ****        -3.2500 -24.0000   0.7500 Du        
  24800 ****        -3.2500 -24.0000   1.0000 Du        
  24801 ****        -3.2500 -24.0000   1.2500 Du        
  24802 ****        -3.2500 -24.0000   1.5000 Du        
  24803 ****        -3.2500 -23.7500 -21.7500 Du        
  24804 ****        -3.2500 -23.7500 -21.5000 Du        
  24805 ****        -3.2500 -23.7500 -21.2500 Du        
  24806 ****        -3.2500 -23.7500 -21.0000 Du        
  24807 ****        -3.2500 -23.7500  -0.5000 Du        
  24808 ****        -3.2500 -23.7500  -0.2500 Du        
  24809 ****        -3.2500 -23.7500   0.0000 Du        
  24810 ****        -3.2500 -23.7500   0.2500 Du        
  24811 ****        -3.2500 -23.7500   0.5000 Du        
  24812 ****        -3.2500 -23.7500   0.7500 Du        
  24813 ****        -3.2500 -23.7500   1.0000 Du        
  24814 ****        -3.2500 -23.7500   1.2500 Du        
  24815 ****        -3.2500 -23.7500   1.5000 Du        
  24816 ****        -3.2500 -23.5000 -21.7500 Du        
  24817 ****        -3.2500 -23.5000 -21.5000 Du        
  24818 ****        -3.2500 -23.5000 -21.2500 Du        
  24819 ****        -3.2500 -23.5000 -21.0000 Du        
  24820 ****        -3.2500 -23.5000  -0.5000 Du        
  24821 ****        -3.2500 -23.5000  -0.2500 Du        
  24822 ****        -3.2500 -23.5000   0.0000 Du        
  24823 ****        -3.2500 -23.5000   0.2500 Du        
  24824 ****        -3.2500 -23.5000   0.5000 Du        
  24825 ****        -3.2500 -23.5000   0.7500 Du        
  24826 ****        -3.2500 -23.5000   1.0000 Du        
  24827 ****        -3.2500 -23.5000   1.2500 Du        
  24828 ****        -3.2500 -23.5000   1.5000 Du        
  24829 ****        -3.2500 -23.2500 -21.7500 Du        
  24830 ****        -3.2500 -23.2500 -21.5000 Du        
  24831 ****        -3.2500 -23.2500 -21.2500 Du        
  24832 ****        -3.2500 -23.2500  -0.2500 Du        
  24833 ****        -3.2500 -23.2500   0.0000 Du        
  24834 ****        -3.2500 -23.2500   0.2500 Du        
  24835 ****        -3.2500 -23.2500   0.5000 Du        
  24836 ****        -3.2500 -23.2500   0.7500 Du        
  24837 ****        -3.2500 -23.2500   1.0000 Du        
  24838 ****        -3.2500 -23.2500   1.2500 Du        
  24839 ****        -3.2500 -23.2500   1.5000 Du        
  24840 ****        -3.2500 -23.0000 -21.7500 Du        
  24841 ****        -3.2500 -23.0000 -21.5000 Du        
  24842 ****        -3.2500 -23.0000  -0.2500 Du        
  24843 ****        -3.2500 -23.0000   0.0000 Du        
  24844 ****        -3.2500 -23.0000   0.2500 Du        
  24845 ****        -3.2500 -23.0000   0.5000 Du        
  24846 ****        -3.2500 -23.0000   0.7500 Du        
  24847 ****        -3.2500 -23.0000   1.0000 Du        
  24848 ****        -3.2500 -23.0000   1.2500 Du        
  24849 ****        -3.2500 -23.0000   1.5000 Du        
  24850 ****        -3.2500 -22.7500 -21.7500 Du        
  24851 ****        -3.2500 -22.7500   0.2500 Du        
  24852 ****        -3.2500 -22.7500   0.5000 Du        
  24853 ****        -3.2500 -22.7500   0.7500 Du        
  24854 ****        -3.2500 -22.7500   1.0000 Du        
  24855 ****        -3.2500 -22.7500   1.2500 Du        
  24856 ****        -3.2500 -22.7500   1.5000 Du        
  24857 ****        -3.2500 -22.5000   0.5000 Du        
  24858 ****        -3.2500 -22.5000   0.7500 Du        
  24859 ****        -3.2500 -22.5000   1.0000 Du        
  24860 ****        -3.2500 -22.5000   1.2500 Du        
  24861 ****        -3.2500 -22.2500 -22.0000 Du        
  24862 ****        -3.2500 -22.0000 -22.2500 Du        
  24863 ****        -3.2500 -22.0000 -22.0000 Du        
  24864 ****        -3.2500 -21.7500 -22.2500 Du        
  24865 ****        -3.2500 -21.7500 -22.0000 Du        
  24866 ****        -3.2500 -21.5000 -22.5000 Du        
  24867 ****        -3.2500 -21.5000 -22.2500 Du        
  24868 ****        -3.2500 -21.5000 -22.0000 Du        
  24869 ****        -3.2500 -21.2500 -22.5000 Du        
  24870 ****        -3.2500 -21.2500 -22.2500 Du        
  24871 ****        -3.2500 -21.2500 -22.0000 Du        
  24872 ****        -3.2500 -21.0000 -22.5000 Du        
  24873 ****        -3.2500 -21.0000 -22.2500 Du        
  24874 ****        -3.2500 -21.0000 -22.0000 Du        
  24875 ****        -3.2500 -20.7500 -22.5000 Du        
  24876 ****        -3.2500 -20.7500 -22.2500 Du        
  24877 ****        -3.2500 -20.7500 -22.0000 Du        
  24878 ****        -3.2500 -20.5000 -22.5000 Du        
  24879 ****        -3.2500 -20.5000 -22.2500 Du        
  24880 ****        -3.2500 -20.2500 -22.5000 Du        
  24881 ****        -3.2500 -20.2500 -22.2500 Du        
  24882 ****        -3.2500 -20.0000 -22.5000 Du        
  24883 ****        -3.2500 -20.0000 -22.2500 Du        
  24884 ****        -3.2500 -19.7500 -22.5000 Du        
  24885 ****        -3.2500 -19.7500 -22.2500 Du        
  24886 ****        -3.2500 -19.5000 -22.5000 Du        
  24887 ****        -3.2500 -19.5000 -22.2500 Du        
  24888 ****        -3.2500 -19.2500 -22.5000 Du        
  24889 ****        -3.2500 -19.2500 -22.2500 Du        
  24890 ****        -3.2500 -19.0000 -22.5000 Du        
  24891 ****        -3.2500 -19.0000 -22.2500 Du        
  24892 ****        -3.2500 -19.0000 -22.0000 Du        
  24893 ****        -3.2500 -18.7500 -22.2500 Du        
  24894 ****        -3.2500 -18.7500 -22.0000 Du        
  24895 ****        -3.2500 -18.5000 -22.2500 Du        
  24896 ****        -3.2500 -18.5000 -22.0000 Du        
  24897 ****        -3.2500 -18.2500 -22.2500 Du        
  24898 ****        -3.2500 -18.2500 -22.0000 Du        
  24899 ****        -3.2500 -18.0000 -22.2500 Du        
  24900 ****        -3.2500 -18.0000 -22.0000 Du        
  24901 ****        -3.2500 -18.0000 -21.7500 Du        
  24902 ****        -3.2500 -17.7500 -22.2500 Du        
  24903 ****        -3.2500 -17.7500 -22.0000 Du        
  24904 ****        -3.2500  -4.2500 -19.0000 Du        
  24905 ****        -3.2500  -4.2500 -18.7500 Du        
  24906 ****        -3.0000 -26.5000 -27.2500 Du        
  24907 ****        -3.0000 -26.5000 -16.0000 Du        
  24908 ****        -3.0000 -26.5000 -15.7500 Du        
  24909 ****        -3.0000 -26.2500 -27.2500 Du        
  24910 ****        -3.0000 -26.2500 -16.0000 Du        
  24911 ****        -3.0000 -26.2500 -15.7500 Du        
  24912 ****        -3.0000 -26.2500 -15.5000 Du        
  24913 ****        -3.0000 -26.2500 -15.2500 Du        
  24914 ****        -3.0000 -26.2500 -15.0000 Du        
  24915 ****        -3.0000 -26.0000 -28.2500 Du        
  24916 ****        -3.0000 -26.0000 -28.0000 Du        
  24917 ****        -3.0000 -26.0000 -27.7500 Du        
  24918 ****        -3.0000 -26.0000 -16.0000 Du        
  24919 ****        -3.0000 -26.0000 -15.7500 Du        
  24920 ****        -3.0000 -26.0000 -15.5000 Du        
  24921 ****        -3.0000 -26.0000 -15.2500 Du        
  24922 ****        -3.0000 -26.0000 -15.0000 Du        
  24923 ****        -3.0000 -25.7500 -21.7500 Du        
  24924 ****        -3.0000 -25.7500 -21.5000 Du        
  24925 ****        -3.0000 -25.7500 -21.2500 Du        
  24926 ****        -3.0000 -25.7500 -21.0000 Du        
  24927 ****        -3.0000 -25.7500 -20.7500 Du        
  24928 ****        -3.0000 -25.7500 -16.0000 Du        
  24929 ****        -3.0000 -25.7500 -15.7500 Du        
  24930 ****        -3.0000 -25.7500 -15.5000 Du        
  24931 ****        -3.0000 -25.7500 -15.2500 Du        
  24932 ****        -3.0000 -25.7500 -15.0000 Du        
  24933 ****        -3.0000 -25.7500 -14.7500 Du        
  24934 ****        -3.0000 -25.5000 -22.0000 Du        
  24935 ****        -3.0000 -25.5000 -21.7500 Du        
  24936 ****        -3.0000 -25.5000 -21.5000 Du        
  24937 ****        -3.0000 -25.5000 -21.2500 Du        
  24938 ****        -3.0000 -25.5000 -21.0000 Du        
  24939 ****        -3.0000 -25.5000 -20.7500 Du        
  24940 ****        -3.0000 -25.5000 -20.5000 Du        
  24941 ****        -3.0000 -25.5000 -15.7500 Du        
  24942 ****        -3.0000 -25.5000 -15.5000 Du        
  24943 ****        -3.0000 -25.5000 -15.2500 Du        
  24944 ****        -3.0000 -25.5000 -15.0000 Du        
  24945 ****        -3.0000 -25.5000 -14.7500 Du        
  24946 ****        -3.0000 -25.2500 -22.0000 Du        
  24947 ****        -3.0000 -25.2500 -21.7500 Du        
  24948 ****        -3.0000 -25.2500 -21.5000 Du        
  24949 ****        -3.0000 -25.2500 -21.2500 Du        
  24950 ****        -3.0000 -25.2500 -21.0000 Du        
  24951 ****        -3.0000 -25.2500 -20.7500 Du        
  24952 ****        -3.0000 -25.2500 -20.5000 Du        
  24953 ****        -3.0000 -25.2500 -20.2500 Du        
  24954 ****        -3.0000 -25.2500 -15.7500 Du        
  24955 ****        -3.0000 -25.2500 -15.5000 Du        
  24956 ****        -3.0000 -25.2500 -15.2500 Du        
  24957 ****        -3.0000 -25.2500 -15.0000 Du        
  24958 ****        -3.0000 -25.2500 -14.7500 Du        
  24959 ****        -3.0000 -25.0000 -22.0000 Du        
  24960 ****        -3.0000 -25.0000 -21.7500 Du        
  24961 ****        -3.0000 -25.0000 -21.5000 Du        
  24962 ****        -3.0000 -25.0000 -21.2500 Du        
  24963 ****        -3.0000 -25.0000 -21.0000 Du        
  24964 ****        -3.0000 -25.0000 -20.7500 Du        
  24965 ****        -3.0000 -25.0000 -20.5000 Du        
  24966 ****        -3.0000 -25.0000 -20.2500 Du        
  24967 ****        -3.0000 -25.0000 -15.2500 Du        
  24968 ****        -3.0000 -25.0000 -15.0000 Du        
  24969 ****        -3.0000 -25.0000 -14.7500 Du        
  24970 ****        -3.0000 -24.7500 -22.2500 Du        
  24971 ****        -3.0000 -24.7500 -22.0000 Du        
  24972 ****        -3.0000 -24.7500 -21.7500 Du        
  24973 ****        -3.0000 -24.7500 -21.5000 Du        
  24974 ****        -3.0000 -24.7500 -21.2500 Du        
  24975 ****        -3.0000 -24.7500 -21.0000 Du        
  24976 ****        -3.0000 -24.7500 -20.7500 Du        
  24977 ****        -3.0000 -24.7500 -20.5000 Du        
  24978 ****        -3.0000 -24.7500 -20.2500 Du        
  24979 ****        -3.0000 -24.7500 -15.0000 Du        
  24980 ****        -3.0000 -24.5000 -22.2500 Du        
  24981 ****        -3.0000 -24.5000 -22.0000 Du        
  24982 ****        -3.0000 -24.5000 -21.7500 Du        
  24983 ****        -3.0000 -24.5000 -21.5000 Du        
  24984 ****        -3.0000 -24.5000 -21.2500 Du        
  24985 ****        -3.0000 -24.5000 -21.0000 Du        
  24986 ****        -3.0000 -24.5000 -20.7500 Du        
  24987 ****        -3.0000 -24.5000 -20.5000 Du        
  24988 ****        -3.0000 -24.5000   1.5000 Du        
  24989 ****        -3.0000 -24.2500 -22.2500 Du        
  24990 ****        -3.0000 -24.2500 -22.0000 Du        
  24991 ****        -3.0000 -24.2500 -21.7500 Du        
  24992 ****        -3.0000 -24.2500 -21.5000 Du        
  24993 ****        -3.0000 -24.2500 -21.2500 Du        
  24994 ****        -3.0000 -24.2500 -21.0000 Du        
  24995 ****        -3.0000 -24.2500 -20.7500 Du        
  24996 ****        -3.0000 -24.2500 -20.5000 Du        
  24997 ****        -3.0000 -24.2500   1.0000 Du        
  24998 ****        -3.0000 -24.2500   1.2500 Du        
  24999 ****        -3.0000 -24.2500   1.5000 Du        
  25000 ****        -3.0000 -24.0000 -22.2500 Du        
  25001 ****        -3.0000 -24.0000 -22.0000 Du        
  25002 ****        -3.0000 -24.0000 -21.7500 Du        
  25003 ****        -3.0000 -24.0000 -21.5000 Du        
  25004 ****        -3.0000 -24.0000 -21.2500 Du        
  25005 ****        -3.0000 -24.0000 -21.0000 Du        
  25006 ****        -3.0000 -24.0000 -20.7500 Du        
  25007 ****        -3.0000 -24.0000   0.5000 Du        
  25008 ****        -3.0000 -24.0000   0.7500 Du        
  25009 ****        -3.0000 -24.0000   1.0000 Du        
  25010 ****        -3.0000 -24.0000   1.2500 Du        
  25011 ****        -3.0000 -24.0000   1.5000 Du        
  25012 ****        -3.0000 -23.7500 -22.2500 Du        
  25013 ****        -3.0000 -23.7500 -22.0000 Du        
  25014 ****        -3.0000 -23.7500 -21.7500 Du        
  25015 ****        -3.0000 -23.7500 -21.5000 Du        
  25016 ****        -3.0000 -23.7500 -21.2500 Du        
  25017 ****        -3.0000 -23.7500 -21.0000 Du        
  25018 ****        -3.0000 -23.7500 -20.7500 Du        
  25019 ****        -3.0000 -23.7500  -0.2500 Du        
  25020 ****        -3.0000 -23.7500   0.0000 Du        
  25021 ****        -3.0000 -23.7500   0.2500 Du        
  25022 ****        -3.0000 -23.7500   0.5000 Du        
  25023 ****        -3.0000 -23.7500   0.7500 Du        
  25024 ****        -3.0000 -23.7500   1.0000 Du        
  25025 ****        -3.0000 -23.7500   1.2500 Du        
  25026 ****        -3.0000 -23.7500   1.5000 Du        
  25027 ****        -3.0000 -23.5000 -22.2500 Du        
  25028 ****        -3.0000 -23.5000 -22.0000 Du        
  25029 ****        -3.0000 -23.5000 -21.7500 Du        
  25030 ****        -3.0000 -23.5000 -21.5000 Du        
  25031 ****        -3.0000 -23.5000 -21.2500 Du        
  25032 ****        -3.0000 -23.5000 -21.0000 Du        
  25033 ****        -3.0000 -23.5000  -0.2500 Du        
  25034 ****        -3.0000 -23.5000   0.0000 Du        
  25035 ****        -3.0000 -23.5000   0.2500 Du        
  25036 ****        -3.0000 -23.5000   0.5000 Du        
  25037 ****        -3.0000 -23.5000   0.7500 Du        
  25038 ****        -3.0000 -23.5000   1.0000 Du        
  25039 ****        -3.0000 -23.5000   1.2500 Du        
  25040 ****        -3.0000 -23.5000   1.5000 Du        
  25041 ****        -3.0000 -23.2500 -22.2500 Du        
  25042 ****        -3.0000 -23.2500 -22.0000 Du        
  25043 ****        -3.0000 -23.2500 -21.7500 Du        
  25044 ****        -3.0000 -23.2500 -21.5000 Du        
  25045 ****        -3.0000 -23.2500 -21.2500 Du        
  25046 ****        -3.0000 -23.2500  -0.2500 Du        
  25047 ****        -3.0000 -23.2500   0.0000 Du        
  25048 ****        -3.0000 -23.2500   0.2500 Du        
  25049 ****        -3.0000 -23.2500   0.5000 Du        
  25050 ****        -3.0000 -23.2500   0.7500 Du        
  25051 ****        -3.0000 -23.2500   1.0000 Du        
  25052 ****        -3.0000 -23.2500   1.2500 Du        
  25053 ****        -3.0000 -23.0000 -22.2500 Du        
  25054 ****        -3.0000 -23.0000 -22.0000 Du        
  25055 ****        -3.0000 -23.0000 -21.7500 Du        
  25056 ****        -3.0000 -23.0000 -21.5000 Du        
  25057 ****        -3.0000 -23.0000   0.0000 Du        
  25058 ****        -3.0000 -23.0000   0.2500 Du        
  25059 ****        -3.0000 -23.0000   0.5000 Du        
  25060 ****        -3.0000 -23.0000   0.7500 Du        
  25061 ****        -3.0000 -23.0000   1.0000 Du        
  25062 ****        -3.0000 -23.0000   1.2500 Du        
  25063 ****        -3.0000 -22.7500 -22.2500 Du        
  25064 ****        -3.0000 -22.7500 -22.0000 Du        
  25065 ****        -3.0000 -22.7500 -21.7500 Du        
  25066 ****        -3.0000 -22.7500 -21.5000 Du        
  25067 ****        -3.0000 -22.7500   0.5000 Du        
  25068 ****        -3.0000 -22.7500   0.7500 Du        
  25069 ****        -3.0000 -22.7500   1.0000 Du        
  25070 ****        -3.0000 -22.7500   1.2500 Du        
  25071 ****        -3.0000 -22.5000 -22.2500 Du        
  25072 ****        -3.0000 -22.5000 -22.0000 Du        
  25073 ****        -3.0000 -22.5000 -21.7500 Du        
  25074 ****        -3.0000 -22.5000   0.7500 Du        
  25075 ****        -3.0000 -22.5000   1.0000 Du        
  25076 ****        -3.0000 -22.5000   1.2500 Du        
  25077 ****        -3.0000 -22.2500 -22.2500 Du        
  25078 ****        -3.0000 -22.2500 -22.0000 Du        
  25079 ****        -3.0000 -22.2500 -21.7500 Du        
  25080 ****        -3.0000 -22.0000 -22.2500 Du        
  25081 ****        -3.0000 -22.0000 -22.0000 Du        
  25082 ****        -3.0000 -22.0000 -21.7500 Du        
  25083 ****        -3.0000 -21.7500 -22.2500 Du        
  25084 ****        -3.0000 -21.7500 -22.0000 Du        
  25085 ****        -3.0000 -21.7500 -21.7500 Du        
  25086 ****        -3.0000 -21.5000 -22.2500 Du        
  25087 ****        -3.0000 -21.5000 -22.0000 Du        
  25088 ****        -3.0000 -21.2500 -22.2500 Du        
  25089 ****        -3.0000 -21.2500 -22.0000 Du        
  25090 ****        -3.0000 -21.0000 -22.2500 Du        
  25091 ****        -3.0000 -21.0000 -22.0000 Du        
  25092 ****        -3.0000 -20.7500 -22.2500 Du        
  25093 ****        -3.0000 -20.7500 -22.0000 Du        
  25094 ****        -3.0000 -20.5000 -22.2500 Du        
  25095 ****        -3.0000 -20.5000 -22.0000 Du        
  25096 ****        -3.0000 -20.2500 -22.2500 Du        
  25097 ****        -3.0000 -20.2500 -22.0000 Du        
  25098 ****        -3.0000 -20.0000 -22.2500 Du        
  25099 ****        -3.0000 -20.0000 -22.0000 Du        
  25100 ****        -3.0000 -19.7500 -22.2500 Du        
  25101 ****        -3.0000 -19.2500 -22.0000 Du        
  25102 ****        -3.0000 -19.0000 -22.0000 Du        
  25103 ****        -3.0000 -18.7500 -22.0000 Du        
  25104 ****        -3.0000 -18.5000 -22.0000 Du        
  25105 ****        -3.0000 -18.2500 -22.0000 Du        
  25106 ****        -3.0000 -18.2500 -21.7500 Du        
  25107 ****        -3.0000 -18.0000 -22.0000 Du        
  25108 ****        -3.0000 -18.0000 -21.7500 Du        
  25109 ****        -3.0000 -17.7500 -22.0000 Du        
  25110 ****        -3.0000 -17.7500 -21.7500 Du        
  25111 ****        -3.0000 -16.7500 -17.0000 Du        
  25112 ****        -3.0000  -9.2500 -18.2500 Du        
  25113 ****        -3.0000  -9.0000 -18.2500 Du        
  25114 ****        -3.0000  -8.7500 -18.5000 Du        
  25115 ****        -3.0000  -8.7500 -18.2500 Du        
  25116 ****        -3.0000  -8.5000 -18.5000 Du        
  25117 ****        -3.0000  -4.2500 -19.0000 Du        
  25118 ****        -3.0000  -4.2500 -18.7500 Du        
  25119 ****        -2.7500 -27.0000 -16.2500 Du        
  25120 ****        -2.7500 -27.0000 -16.0000 Du        
  25121 ****        -2.7500 -26.7500 -16.2500 Du        
  25122 ****        -2.7500 -26.7500 -16.0000 Du        
  25123 ****        -2.7500 -26.7500 -15.7500 Du        
  25124 ****        -2.7500 -26.5000 -27.2500 Du        
  25125 ****        -2.7500 -26.5000 -27.0000 Du        
  25126 ****        -2.7500 -26.5000 -16.2500 Du        
  25127 ****        -2.7500 -26.5000 -16.0000 Du        
  25128 ****        -2.7500 -26.5000 -15.7500 Du        
  25129 ****        -2.7500 -26.2500 -27.2500 Du        
  25130 ****        -2.7500 -26.2500 -16.2500 Du        
  25131 ****        -2.7500 -26.2500 -16.0000 Du        
  25132 ****        -2.7500 -26.2500 -15.7500 Du        
  25133 ****        -2.7500 -26.2500 -15.5000 Du        
  25134 ****        -2.7500 -26.2500 -15.2500 Du        
  25135 ****        -2.7500 -26.2500 -15.0000 Du        
  25136 ****        -2.7500 -26.0000 -28.2500 Du        
  25137 ****        -2.7500 -26.0000 -28.0000 Du        
  25138 ****        -2.7500 -26.0000 -27.7500 Du        
  25139 ****        -2.7500 -26.0000 -21.7500 Du        
  25140 ****        -2.7500 -26.0000 -21.5000 Du        
  25141 ****        -2.7500 -26.0000 -21.2500 Du        
  25142 ****        -2.7500 -26.0000 -21.0000 Du        
  25143 ****        -2.7500 -26.0000 -20.7500 Du        
  25144 ****        -2.7500 -26.0000 -16.2500 Du        
  25145 ****        -2.7500 -26.0000 -16.0000 Du        
  25146 ****        -2.7500 -26.0000 -15.7500 Du        
  25147 ****        -2.7500 -26.0000 -15.5000 Du        
  25148 ****        -2.7500 -26.0000 -15.2500 Du        
  25149 ****        -2.7500 -26.0000 -15.0000 Du        
  25150 ****        -2.7500 -26.0000 -14.7500 Du        
  25151 ****        -2.7500 -25.7500 -22.0000 Du        
  25152 ****        -2.7500 -25.7500 -21.7500 Du        
  25153 ****        -2.7500 -25.7500 -21.5000 Du        
  25154 ****        -2.7500 -25.7500 -21.2500 Du        
  25155 ****        -2.7500 -25.7500 -21.0000 Du        
  25156 ****        -2.7500 -25.7500 -20.7500 Du        
  25157 ****        -2.7500 -25.7500 -20.5000 Du        
  25158 ****        -2.7500 -25.7500 -16.2500 Du        
  25159 ****        -2.7500 -25.7500 -16.0000 Du        
  25160 ****        -2.7500 -25.7500 -15.7500 Du        
  25161 ****        -2.7500 -25.7500 -15.5000 Du        
  25162 ****        -2.7500 -25.7500 -15.2500 Du        
  25163 ****        -2.7500 -25.7500 -15.0000 Du        
  25164 ****        -2.7500 -25.7500 -14.7500 Du        
  25165 ****        -2.7500 -25.5000 -22.2500 Du        
  25166 ****        -2.7500 -25.5000 -22.0000 Du        
  25167 ****        -2.7500 -25.5000 -21.7500 Du        
  25168 ****        -2.7500 -25.5000 -21.5000 Du        
  25169 ****        -2.7500 -25.5000 -21.2500 Du        
  25170 ****        -2.7500 -25.5000 -21.0000 Du        
  25171 ****        -2.7500 -25.5000 -20.7500 Du        
  25172 ****        -2.7500 -25.5000 -20.5000 Du        
  25173 ****        -2.7500 -25.5000 -16.0000 Du        
  25174 ****        -2.7500 -25.5000 -15.7500 Du        
  25175 ****        -2.7500 -25.5000 -15.5000 Du        
  25176 ****        -2.7500 -25.5000 -15.2500 Du        
  25177 ****        -2.7500 -25.5000 -15.0000 Du        
  25178 ****        -2.7500 -25.5000 -14.7500 Du        
  25179 ****        -2.7500 -25.2500 -22.2500 Du        
  25180 ****        -2.7500 -25.2500 -22.0000 Du        
  25181 ****        -2.7500 -25.2500 -21.7500 Du        
  25182 ****        -2.7500 -25.2500 -21.5000 Du        
  25183 ****        -2.7500 -25.2500 -21.2500 Du        
  25184 ****        -2.7500 -25.2500 -21.0000 Du        
  25185 ****        -2.7500 -25.2500 -20.7500 Du        
  25186 ****        -2.7500 -25.2500 -20.5000 Du        
  25187 ****        -2.7500 -25.2500 -16.0000 Du        
  25188 ****        -2.7500 -25.2500 -15.7500 Du        
  25189 ****        -2.7500 -25.2500 -15.5000 Du        
  25190 ****        -2.7500 -25.2500 -15.2500 Du        
  25191 ****        -2.7500 -25.2500 -15.0000 Du        
  25192 ****        -2.7500 -25.2500 -14.7500 Du        
  25193 ****        -2.7500 -25.0000 -22.5000 Du        
  25194 ****        -2.7500 -25.0000 -22.2500 Du        
  25195 ****        -2.7500 -25.0000 -22.0000 Du        
  25196 ****        -2.7500 -25.0000 -21.7500 Du        
  25197 ****        -2.7500 -25.0000 -21.5000 Du        
  25198 ****        -2.7500 -25.0000 -21.2500 Du        
  25199 ****        -2.7500 -25.0000 -21.0000 Du        
  25200 ****        -2.7500 -25.0000 -20.7500 Du        
  25201 ****        -2.7500 -25.0000 -20.5000 Du        
  25202 ****        -2.7500 -25.0000 -15.5000 Du        
  25203 ****        -2.7500 -25.0000 -15.2500 Du        
  25204 ****        -2.7500 -25.0000 -15.0000 Du        
  25205 ****        -2.7500 -25.0000 -14.7500 Du        
  25206 ****        -2.7500 -24.7500 -22.5000 Du        
  25207 ****        -2.7500 -24.7500 -22.2500 Du        
  25208 ****        -2.7500 -24.7500 -22.0000 Du        
  25209 ****        -2.7500 -24.7500 -21.7500 Du        
  25210 ****        -2.7500 -24.7500 -21.5000 Du        
  25211 ****        -2.7500 -24.7500 -21.2500 Du        
  25212 ****        -2.7500 -24.7500 -21.0000 Du        
  25213 ****        -2.7500 -24.7500 -20.7500 Du        
  25214 ****        -2.7500 -24.7500 -20.5000 Du        
  25215 ****        -2.7500 -24.7500 -15.2500 Du        
  25216 ****        -2.7500 -24.7500 -15.0000 Du        
  25217 ****        -2.7500 -24.7500 -14.7500 Du        
  25218 ****        -2.7500 -24.5000 -22.7500 Du        
  25219 ****        -2.7500 -24.5000 -22.5000 Du        
  25220 ****        -2.7500 -24.5000 -22.2500 Du        
  25221 ****        -2.7500 -24.5000 -22.0000 Du        
  25222 ****        -2.7500 -24.5000 -21.7500 Du        
  25223 ****        -2.7500 -24.5000 -21.5000 Du        
  25224 ****        -2.7500 -24.5000 -21.2500 Du        
  25225 ****        -2.7500 -24.5000 -21.0000 Du        
  25226 ****        -2.7500 -24.5000 -20.7500 Du        
  25227 ****        -2.7500 -24.2500 -22.7500 Du        
  25228 ****        -2.7500 -24.2500 -22.5000 Du        
  25229 ****        -2.7500 -24.2500 -22.2500 Du        
  25230 ****        -2.7500 -24.2500 -22.0000 Du        
  25231 ****        -2.7500 -24.2500 -21.7500 Du        
  25232 ****        -2.7500 -24.2500 -21.5000 Du        
  25233 ****        -2.7500 -24.2500 -21.2500 Du        
  25234 ****        -2.7500 -24.2500 -21.0000 Du        
  25235 ****        -2.7500 -24.2500 -20.7500 Du        
  25236 ****        -2.7500 -24.0000 -22.7500 Du        
  25237 ****        -2.7500 -24.0000 -22.5000 Du        
  25238 ****        -2.7500 -24.0000 -22.2500 Du        
  25239 ****        -2.7500 -24.0000 -22.0000 Du        
  25240 ****        -2.7500 -24.0000 -21.7500 Du        
  25241 ****        -2.7500 -24.0000 -21.5000 Du        
  25242 ****        -2.7500 -24.0000 -21.2500 Du        
  25243 ****        -2.7500 -24.0000 -21.0000 Du        
  25244 ****        -2.7500 -24.0000 -20.7500 Du        
  25245 ****        -2.7500 -24.0000   1.0000 Du        
  25246 ****        -2.7500 -24.0000   1.2500 Du        
  25247 ****        -2.7500 -23.7500 -22.7500 Du        
  25248 ****        -2.7500 -23.7500 -22.5000 Du        
  25249 ****        -2.7500 -23.7500 -22.2500 Du        
  25250 ****        -2.7500 -23.7500 -22.0000 Du        
  25251 ****        -2.7500 -23.7500 -21.7500 Du        
  25252 ****        -2.7500 -23.7500 -21.5000 Du        
  25253 ****        -2.7500 -23.7500 -21.2500 Du        
  25254 ****        -2.7500 -23.7500 -21.0000 Du        
  25255 ****        -2.7500 -23.7500   0.5000 Du        
  25256 ****        -2.7500 -23.7500   0.7500 Du        
  25257 ****        -2.7500 -23.7500   1.0000 Du        
  25258 ****        -2.7500 -23.7500   1.2500 Du        
  25259 ****        -2.7500 -23.5000 -22.7500 Du        
  25260 ****        -2.7500 -23.5000 -22.5000 Du        
  25261 ****        -2.7500 -23.5000 -22.2500 Du        
  25262 ****        -2.7500 -23.5000 -22.0000 Du        
  25263 ****        -2.7500 -23.5000 -21.7500 Du        
  25264 ****        -2.7500 -23.5000 -21.5000 Du        
  25265 ****        -2.7500 -23.5000 -21.2500 Du        
  25266 ****        -2.7500 -23.5000   0.0000 Du        
  25267 ****        -2.7500 -23.5000   0.2500 Du        
  25268 ****        -2.7500 -23.5000   0.5000 Du        
  25269 ****        -2.7500 -23.5000   0.7500 Du        
  25270 ****        -2.7500 -23.5000   1.0000 Du        
  25271 ****        -2.7500 -23.5000   1.2500 Du        
  25272 ****        -2.7500 -23.2500 -22.7500 Du        
  25273 ****        -2.7500 -23.2500 -22.5000 Du        
  25274 ****        -2.7500 -23.2500 -22.2500 Du        
  25275 ****        -2.7500 -23.2500 -22.0000 Du        
  25276 ****        -2.7500 -23.2500 -21.7500 Du        
  25277 ****        -2.7500 -23.2500 -21.5000 Du        
  25278 ****        -2.7500 -23.2500   0.2500 Du        
  25279 ****        -2.7500 -23.2500   0.5000 Du        
  25280 ****        -2.7500 -23.2500   0.7500 Du        
  25281 ****        -2.7500 -23.2500   1.0000 Du        
  25282 ****        -2.7500 -23.2500   1.2500 Du        
  25283 ****        -2.7500 -23.0000 -22.5000 Du        
  25284 ****        -2.7500 -23.0000 -22.2500 Du        
  25285 ****        -2.7500 -23.0000 -22.0000 Du        
  25286 ****        -2.7500 -23.0000 -21.7500 Du        
  25287 ****        -2.7500 -23.0000   0.5000 Du        
  25288 ****        -2.7500 -23.0000   0.7500 Du        
  25289 ****        -2.7500 -23.0000   1.0000 Du        
  25290 ****        -2.7500 -23.0000   1.2500 Du        
  25291 ****        -2.7500 -22.7500 -22.5000 Du        
  25292 ****        -2.7500 -22.7500 -22.2500 Du        
  25293 ****        -2.7500 -22.7500 -22.0000 Du        
  25294 ****        -2.7500 -22.7500 -21.7500 Du        
  25295 ****        -2.7500 -22.7500   0.7500 Du        
  25296 ****        -2.7500 -22.7500   1.0000 Du        
  25297 ****        -2.7500 -22.5000 -22.2500 Du        
  25298 ****        -2.7500 -18.0000 -21.7500 Du        
  25299 ****        -2.7500 -17.2500 -17.0000 Du        
  25300 ****        -2.7500 -17.0000 -17.0000 Du        
  25301 ****        -2.7500 -16.7500 -17.0000 Du        
  25302 ****        -2.7500  -9.5000 -18.2500 Du        
  25303 ****        -2.7500  -9.2500 -18.2500 Du        
  25304 ****        -2.7500  -9.0000 -18.5000 Du        
  25305 ****        -2.7500  -9.0000 -18.2500 Du        
  25306 ****        -2.7500  -8.7500 -18.5000 Du        
  25307 ****        -2.7500  -8.7500 -18.2500 Du        
  25308 ****        -2.7500  -8.5000 -18.5000 Du        
  25309 ****        -2.7500  -4.2500 -19.0000 Du        
  25310 ****        -2.7500  -4.2500 -18.7500 Du        
  25311 ****        -2.5000 -28.5000 -16.7500 Du        
  25312 ****        -2.5000 -28.2500 -16.7500 Du        
  25313 ****        -2.5000 -28.0000 -16.7500 Du        
  25314 ****        -2.5000 -28.0000 -16.2500 Du        
  25315 ****        -2.5000 -27.7500 -16.2500 Du        
  25316 ****        -2.5000 -27.5000 -16.7500 Du        
  25317 ****        -2.5000 -27.2500 -16.7500 Du        
  25318 ****        -2.5000 -27.2500 -16.2500 Du        
  25319 ****        -2.5000 -27.2500 -16.0000 Du        
  25320 ****        -2.5000 -27.0000 -16.7500 Du        
  25321 ****        -2.5000 -27.0000 -16.5000 Du        
  25322 ****        -2.5000 -27.0000 -16.2500 Du        
  25323 ****        -2.5000 -27.0000 -16.0000 Du        
  25324 ****        -2.5000 -27.0000 -15.7500 Du        
  25325 ****        -2.5000 -26.7500 -16.7500 Du        
  25326 ****        -2.5000 -26.7500 -16.5000 Du        
  25327 ****        -2.5000 -26.7500 -16.2500 Du        
  25328 ****        -2.5000 -26.7500 -16.0000 Du        
  25329 ****        -2.5000 -26.7500 -15.7500 Du        
  25330 ****        -2.5000 -26.5000 -16.7500 Du        
  25331 ****        -2.5000 -26.5000 -16.5000 Du        
  25332 ****        -2.5000 -26.5000 -16.2500 Du        
  25333 ****        -2.5000 -26.5000 -16.0000 Du        
  25334 ****        -2.5000 -26.5000 -15.7500 Du        
  25335 ****        -2.5000 -26.2500 -16.7500 Du        
  25336 ****        -2.5000 -26.2500 -16.5000 Du        
  25337 ****        -2.5000 -26.2500 -16.2500 Du        
  25338 ****        -2.5000 -26.2500 -16.0000 Du        
  25339 ****        -2.5000 -26.2500 -15.7500 Du        
  25340 ****        -2.5000 -26.2500 -15.5000 Du        
  25341 ****        -2.5000 -26.2500 -15.2500 Du        
  25342 ****        -2.5000 -26.0000 -22.2500 Du        
  25343 ****        -2.5000 -26.0000 -22.0000 Du        
  25344 ****        -2.5000 -26.0000 -21.7500 Du        
  25345 ****        -2.5000 -26.0000 -21.5000 Du        
  25346 ****        -2.5000 -26.0000 -21.2500 Du        
  25347 ****        -2.5000 -26.0000 -21.0000 Du        
  25348 ****        -2.5000 -26.0000 -17.0000 Du        
  25349 ****        -2.5000 -26.0000 -16.7500 Du        
  25350 ****        -2.5000 -26.0000 -16.5000 Du        
  25351 ****        -2.5000 -26.0000 -16.2500 Du        
  25352 ****        -2.5000 -26.0000 -16.0000 Du        
  25353 ****        -2.5000 -26.0000 -15.7500 Du        
  25354 ****        -2.5000 -26.0000 -15.5000 Du        
  25355 ****        -2.5000 -26.0000 -15.2500 Du        
  25356 ****        -2.5000 -26.0000 -15.0000 Du        
  25357 ****        -2.5000 -26.0000 -14.7500 Du        
  25358 ****        -2.5000 -25.7500 -22.5000 Du        
  25359 ****        -2.5000 -25.7500 -22.2500 Du        
  25360 ****        -2.5000 -25.7500 -22.0000 Du        
  25361 ****        -2.5000 -25.7500 -21.7500 Du        
  25362 ****        -2.5000 -25.7500 -21.5000 Du        
  25363 ****        -2.5000 -25.7500 -21.2500 Du        
  25364 ****        -2.5000 -25.7500 -21.0000 Du        
  25365 ****        -2.5000 -25.7500 -20.7500 Du        
  25366 ****        -2.5000 -25.7500 -16.7500 Du        
  25367 ****        -2.5000 -25.7500 -16.5000 Du        
  25368 ****        -2.5000 -25.7500 -16.2500 Du        
  25369 ****        -2.5000 -25.7500 -16.0000 Du        
  25370 ****        -2.5000 -25.7500 -15.7500 Du        
  25371 ****        -2.5000 -25.7500 -15.5000 Du        
  25372 ****        -2.5000 -25.7500 -15.2500 Du        
  25373 ****        -2.5000 -25.7500 -15.0000 Du        
  25374 ****        -2.5000 -25.7500 -14.7500 Du        
  25375 ****        -2.5000 -25.5000 -22.5000 Du        
  25376 ****        -2.5000 -25.5000 -22.2500 Du        
  25377 ****        -2.5000 -25.5000 -22.0000 Du        
  25378 ****        -2.5000 -25.5000 -21.7500 Du        
  25379 ****        -2.5000 -25.5000 -21.5000 Du        
  25380 ****        -2.5000 -25.5000 -21.2500 Du        
  25381 ****        -2.5000 -25.5000 -21.0000 Du        
  25382 ****        -2.5000 -25.5000 -20.7500 Du        
  25383 ****        -2.5000 -25.5000 -16.7500 Du        
  25384 ****        -2.5000 -25.5000 -16.5000 Du        
  25385 ****        -2.5000 -25.5000 -16.2500 Du        
  25386 ****        -2.5000 -25.5000 -16.0000 Du        
  25387 ****        -2.5000 -25.5000 -15.7500 Du        
  25388 ****        -2.5000 -25.5000 -15.5000 Du        
  25389 ****        -2.5000 -25.5000 -15.2500 Du        
  25390 ****        -2.5000 -25.5000 -15.0000 Du        
  25391 ****        -2.5000 -25.5000 -14.7500 Du        
  25392 ****        -2.5000 -25.2500 -22.7500 Du        
  25393 ****        -2.5000 -25.2500 -22.5000 Du        
  25394 ****        -2.5000 -25.2500 -22.2500 Du        
  25395 ****        -2.5000 -25.2500 -22.0000 Du        
  25396 ****        -2.5000 -25.2500 -21.7500 Du        
  25397 ****        -2.5000 -25.2500 -21.5000 Du        
  25398 ****        -2.5000 -25.2500 -21.2500 Du        
  25399 ****        -2.5000 -25.2500 -21.0000 Du        
  25400 ****        -2.5000 -25.2500 -20.7500 Du        
  25401 ****        -2.5000 -25.2500 -16.2500 Du        
  25402 ****        -2.5000 -25.2500 -16.0000 Du        
  25403 ****        -2.5000 -25.2500 -15.7500 Du        
  25404 ****        -2.5000 -25.2500 -15.5000 Du        
  25405 ****        -2.5000 -25.2500 -15.2500 Du        
  25406 ****        -2.5000 -25.2500 -15.0000 Du        
  25407 ****        -2.5000 -25.2500 -14.7500 Du        
  25408 ****        -2.5000 -25.0000 -22.7500 Du        
  25409 ****        -2.5000 -25.0000 -22.5000 Du        
  25410 ****        -2.5000 -25.0000 -22.2500 Du        
  25411 ****        -2.5000 -25.0000 -22.0000 Du        
  25412 ****        -2.5000 -25.0000 -21.7500 Du        
  25413 ****        -2.5000 -25.0000 -21.5000 Du        
  25414 ****        -2.5000 -25.0000 -21.2500 Du        
  25415 ****        -2.5000 -25.0000 -21.0000 Du        
  25416 ****        -2.5000 -25.0000 -20.7500 Du        
  25417 ****        -2.5000 -25.0000 -16.0000 Du        
  25418 ****        -2.5000 -25.0000 -15.7500 Du        
  25419 ****        -2.5000 -25.0000 -15.5000 Du        
  25420 ****        -2.5000 -25.0000 -15.2500 Du        
  25421 ****        -2.5000 -25.0000 -15.0000 Du        
  25422 ****        -2.5000 -25.0000 -14.7500 Du        
  25423 ****        -2.5000 -25.0000 -14.5000 Du        
  25424 ****        -2.5000 -24.7500 -23.0000 Du        
  25425 ****        -2.5000 -24.7500 -22.7500 Du        
  25426 ****        -2.5000 -24.7500 -22.5000 Du        
  25427 ****        -2.5000 -24.7500 -22.2500 Du        
  25428 ****        -2.5000 -24.7500 -22.0000 Du        
  25429 ****        -2.5000 -24.7500 -21.7500 Du        
  25430 ****        -2.5000 -24.7500 -21.5000 Du        
  25431 ****        -2.5000 -24.7500 -21.2500 Du        
  25432 ****        -2.5000 -24.7500 -21.0000 Du        
  25433 ****        -2.5000 -24.7500 -15.2500 Du        
  25434 ****        -2.5000 -24.7500 -15.0000 Du        
  25435 ****        -2.5000 -24.7500 -14.7500 Du        
  25436 ****        -2.5000 -24.5000 -23.0000 Du        
  25437 ****        -2.5000 -24.5000 -22.7500 Du        
  25438 ****        -2.5000 -24.5000 -22.5000 Du        
  25439 ****        -2.5000 -24.5000 -22.2500 Du        
  25440 ****        -2.5000 -24.5000 -22.0000 Du        
  25441 ****        -2.5000 -24.5000 -21.7500 Du        
  25442 ****        -2.5000 -24.5000 -21.5000 Du        
  25443 ****        -2.5000 -24.5000 -21.2500 Du        
  25444 ****        -2.5000 -24.5000 -21.0000 Du        
  25445 ****        -2.5000 -24.5000 -14.7500 Du        
  25446 ****        -2.5000 -24.2500 -23.2500 Du        
  25447 ****        -2.5000 -24.2500 -23.0000 Du        
  25448 ****        -2.5000 -24.2500 -22.7500 Du        
  25449 ****        -2.5000 -24.2500 -22.5000 Du        
  25450 ****        -2.5000 -24.2500 -22.2500 Du        
  25451 ****        -2.5000 -24.2500 -22.0000 Du        
  25452 ****        -2.5000 -24.2500 -21.7500 Du        
  25453 ****        -2.5000 -24.2500 -21.5000 Du        
  25454 ****        -2.5000 -24.2500 -21.2500 Du        
  25455 ****        -2.5000 -24.2500 -21.0000 Du        
  25456 ****        -2.5000 -24.0000 -23.2500 Du        
  25457 ****        -2.5000 -24.0000 -23.0000 Du        
  25458 ****        -2.5000 -24.0000 -22.7500 Du        
  25459 ****        -2.5000 -24.0000 -22.5000 Du        
  25460 ****        -2.5000 -24.0000 -22.2500 Du        
  25461 ****        -2.5000 -24.0000 -22.0000 Du        
  25462 ****        -2.5000 -24.0000 -21.7500 Du        
  25463 ****        -2.5000 -24.0000 -21.5000 Du        
  25464 ****        -2.5000 -24.0000 -21.2500 Du        
  25465 ****        -2.5000 -23.7500 -23.0000 Du        
  25466 ****        -2.5000 -23.7500 -22.7500 Du        
  25467 ****        -2.5000 -23.7500 -22.5000 Du        
  25468 ****        -2.5000 -23.7500 -22.2500 Du        
  25469 ****        -2.5000 -23.7500 -22.0000 Du        
  25470 ****        -2.5000 -23.7500 -21.7500 Du        
  25471 ****        -2.5000 -23.7500 -21.5000 Du        
  25472 ****        -2.5000 -23.7500 -21.2500 Du        
  25473 ****        -2.5000 -23.5000 -23.0000 Du        
  25474 ****        -2.5000 -23.5000 -22.7500 Du        
  25475 ****        -2.5000 -23.5000 -22.5000 Du        
  25476 ****        -2.5000 -23.5000 -22.2500 Du        
  25477 ****        -2.5000 -23.5000 -22.0000 Du        
  25478 ****        -2.5000 -23.5000 -21.7500 Du        
  25479 ****        -2.5000 -23.5000 -21.5000 Du        
  25480 ****        -2.5000 -23.5000   0.7500 Du        
  25481 ****        -2.5000 -23.5000   1.0000 Du        
  25482 ****        -2.5000 -23.2500 -22.7500 Du        
  25483 ****        -2.5000 -23.2500 -22.5000 Du        
  25484 ****        -2.5000 -23.2500 -22.2500 Du        
  25485 ****        -2.5000 -23.2500 -22.0000 Du        
  25486 ****        -2.5000 -23.2500 -21.7500 Du        
  25487 ****        -2.5000 -23.2500   0.7500 Du        
  25488 ****        -2.5000 -23.2500   1.0000 Du        
  25489 ****        -2.5000 -23.0000 -22.5000 Du        
  25490 ****        -2.5000 -23.0000 -22.2500 Du        
  25491 ****        -2.5000 -23.0000 -22.0000 Du        
  25492 ****        -2.5000 -22.7500 -22.5000 Du        
  25493 ****        -2.5000 -22.7500 -22.2500 Du        
  25494 ****        -2.5000 -17.2500 -17.0000 Du        
  25495 ****        -2.5000 -17.0000 -17.0000 Du        
  25496 ****        -2.5000 -17.0000 -16.7500 Du        
  25497 ****        -2.5000 -16.7500 -16.7500 Du        
  25498 ****        -2.5000 -16.0000 -16.5000 Du        
  25499 ****        -2.5000 -15.7500 -16.5000 Du        
  25500 ****        -2.5000  -9.5000 -18.2500 Du        
  25501 ****        -2.5000  -9.2500 -18.2500 Du        
  25502 ****        -2.5000  -9.2500 -18.0000 Du        
  25503 ****        -2.5000  -9.0000 -18.5000 Du        
  25504 ****        -2.5000  -9.0000 -18.2500 Du        
  25505 ****        -2.5000  -9.0000 -18.0000 Du        
  25506 ****        -2.5000  -8.7500 -18.5000 Du        
  25507 ****        -2.5000  -8.7500 -18.2500 Du        
  25508 ****        -2.5000  -8.5000 -30.0000 Du        
  25509 ****        -2.5000  -8.5000 -18.5000 Du        
  25510 ****        -2.2500 -29.0000 -17.2500 Du        
  25511 ****        -2.2500 -29.0000 -17.0000 Du        
  25512 ****        -2.2500 -29.0000 -16.7500 Du        
  25513 ****        -2.2500 -28.7500 -17.5000 Du        
  25514 ****        -2.2500 -28.7500 -17.2500 Du        
  25515 ****        -2.2500 -28.7500 -17.0000 Du        
  25516 ****        -2.2500 -28.7500 -16.7500 Du        
  25517 ****        -2.2500 -28.5000 -17.2500 Du        
  25518 ****        -2.2500 -28.5000 -17.0000 Du        
  25519 ****        -2.2500 -28.5000 -16.7500 Du        
  25520 ****        -2.2500 -28.2500 -17.2500 Du        
  25521 ****        -2.2500 -28.2500 -17.0000 Du        
  25522 ****        -2.2500 -28.2500 -16.7500 Du        
  25523 ****        -2.2500 -28.0000 -17.2500 Du        
  25524 ****        -2.2500 -28.0000 -17.0000 Du        
  25525 ****        -2.2500 -28.0000 -16.7500 Du        
  25526 ****        -2.2500 -28.0000 -16.5000 Du        
  25527 ****        -2.2500 -28.0000 -16.2500 Du        
  25528 ****        -2.2500 -27.7500 -17.0000 Du        
  25529 ****        -2.2500 -27.7500 -16.7500 Du        
  25530 ****        -2.2500 -27.7500 -16.5000 Du        
  25531 ****        -2.2500 -27.7500 -16.2500 Du        
  25532 ****        -2.2500 -27.5000 -17.0000 Du        
  25533 ****        -2.2500 -27.5000 -16.7500 Du        
  25534 ****        -2.2500 -27.5000 -16.5000 Du        
  25535 ****        -2.2500 -27.2500 -17.0000 Du        
  25536 ****        -2.2500 -27.2500 -16.7500 Du        
  25537 ****        -2.2500 -27.2500 -16.5000 Du        
  25538 ****        -2.2500 -27.2500 -16.2500 Du        
  25539 ****        -2.2500 -27.2500 -16.0000 Du        
  25540 ****        -2.2500 -27.0000 -26.2500 Du        
  25541 ****        -2.2500 -27.0000 -17.0000 Du        
  25542 ****        -2.2500 -27.0000 -16.7500 Du        
  25543 ****        -2.2500 -27.0000 -16.5000 Du        
  25544 ****        -2.2500 -27.0000 -16.2500 Du        
  25545 ****        -2.2500 -27.0000 -16.0000 Du        
  25546 ****        -2.2500 -26.7500 -17.0000 Du        
  25547 ****        -2.2500 -26.7500 -16.7500 Du        
  25548 ****        -2.2500 -26.7500 -16.5000 Du        
  25549 ****        -2.2500 -26.7500 -16.2500 Du        
  25550 ****        -2.2500 -26.7500 -16.0000 Du        
  25551 ****        -2.2500 -26.7500 -15.7500 Du        
  25552 ****        -2.2500 -26.5000 -17.2500 Du        
  25553 ****        -2.2500 -26.5000 -17.0000 Du        
  25554 ****        -2.2500 -26.5000 -16.7500 Du        
  25555 ****        -2.2500 -26.5000 -16.5000 Du        
  25556 ****        -2.2500 -26.5000 -16.2500 Du        
  25557 ****        -2.2500 -26.5000 -16.0000 Du        
  25558 ****        -2.2500 -26.5000 -15.7500 Du        
  25559 ****        -2.2500 -26.5000 -15.5000 Du        
  25560 ****        -2.2500 -26.2500 -17.2500 Du        
  25561 ****        -2.2500 -26.2500 -17.0000 Du        
  25562 ****        -2.2500 -26.2500 -16.7500 Du        
  25563 ****        -2.2500 -26.2500 -16.5000 Du        
  25564 ****        -2.2500 -26.2500 -16.2500 Du        
  25565 ****        -2.2500 -26.2500 -16.0000 Du        
  25566 ****        -2.2500 -26.2500 -15.7500 Du        
  25567 ****        -2.2500 -26.2500 -15.5000 Du        
  25568 ****        -2.2500 -26.2500 -15.2500 Du        
  25569 ****        -2.2500 -26.2500 -15.0000 Du        
  25570 ****        -2.2500 -26.0000 -22.2500 Du        
  25571 ****        -2.2500 -26.0000 -22.0000 Du        
  25572 ****        -2.2500 -26.0000 -21.7500 Du        
  25573 ****        -2.2500 -26.0000 -21.5000 Du        
  25574 ****        -2.2500 -26.0000 -17.2500 Du        
  25575 ****        -2.2500 -26.0000 -17.0000 Du        
  25576 ****        -2.2500 -26.0000 -16.7500 Du        
  25577 ****        -2.2500 -26.0000 -16.5000 Du        
  25578 ****        -2.2500 -26.0000 -16.2500 Du        
  25579 ****        -2.2500 -26.0000 -16.0000 Du        
  25580 ****        -2.2500 -26.0000 -15.7500 Du        
  25581 ****        -2.2500 -26.0000 -15.5000 Du        
  25582 ****        -2.2500 -26.0000 -15.2500 Du        
  25583 ****        -2.2500 -26.0000 -15.0000 Du        
  25584 ****        -2.2500 -25.7500 -22.7500 Du        
  25585 ****        -2.2500 -25.7500 -22.5000 Du        
  25586 ****        -2.2500 -25.7500 -22.2500 Du        
  25587 ****        -2.2500 -25.7500 -22.0000 Du        
  25588 ****        -2.2500 -25.7500 -21.7500 Du        
  25589 ****        -2.2500 -25.7500 -21.5000 Du        
  25590 ****        -2.2500 -25.7500 -21.2500 Du        
  25591 ****        -2.2500 -25.7500 -17.0000 Du        
  25592 ****        -2.2500 -25.7500 -16.7500 Du        
  25593 ****        -2.2500 -25.7500 -16.5000 Du        
  25594 ****        -2.2500 -25.7500 -16.2500 Du        
  25595 ****        -2.2500 -25.7500 -16.0000 Du        
  25596 ****        -2.2500 -25.7500 -15.7500 Du        
  25597 ****        -2.2500 -25.7500 -15.5000 Du        
  25598 ****        -2.2500 -25.7500 -15.2500 Du        
  25599 ****        -2.2500 -25.7500 -15.0000 Du        
  25600 ****        -2.2500 -25.7500 -14.7500 Du        
  25601 ****        -2.2500 -25.5000 -22.7500 Du        
  25602 ****        -2.2500 -25.5000 -22.5000 Du        
  25603 ****        -2.2500 -25.5000 -22.2500 Du        
  25604 ****        -2.2500 -25.5000 -22.0000 Du        
  25605 ****        -2.2500 -25.5000 -21.7500 Du        
  25606 ****        -2.2500 -25.5000 -21.5000 Du        
  25607 ****        -2.2500 -25.5000 -21.2500 Du        
  25608 ****        -2.2500 -25.5000 -21.0000 Du        
  25609 ****        -2.2500 -25.5000 -17.0000 Du        
  25610 ****        -2.2500 -25.5000 -16.7500 Du        
  25611 ****        -2.2500 -25.5000 -16.5000 Du        
  25612 ****        -2.2500 -25.5000 -16.2500 Du        
  25613 ****        -2.2500 -25.5000 -16.0000 Du        
  25614 ****        -2.2500 -25.5000 -15.7500 Du        
  25615 ****        -2.2500 -25.5000 -15.5000 Du        
  25616 ****        -2.2500 -25.5000 -15.2500 Du        
  25617 ****        -2.2500 -25.5000 -15.0000 Du        
  25618 ****        -2.2500 -25.5000 -14.7500 Du        
  25619 ****        -2.2500 -25.2500 -23.0000 Du        
  25620 ****        -2.2500 -25.2500 -22.7500 Du        
  25621 ****        -2.2500 -25.2500 -22.5000 Du        
  25622 ****        -2.2500 -25.2500 -22.2500 Du        
  25623 ****        -2.2500 -25.2500 -22.0000 Du        
  25624 ****        -2.2500 -25.2500 -21.7500 Du        
  25625 ****        -2.2500 -25.2500 -21.5000 Du        
  25626 ****        -2.2500 -25.2500 -21.2500 Du        
  25627 ****        -2.2500 -25.2500 -21.0000 Du        
  25628 ****        -2.2500 -25.2500 -16.7500 Du        
  25629 ****        -2.2500 -25.2500 -16.5000 Du        
  25630 ****        -2.2500 -25.2500 -16.2500 Du        
  25631 ****        -2.2500 -25.2500 -16.0000 Du        
  25632 ****        -2.2500 -25.2500 -15.7500 Du        
  25633 ****        -2.2500 -25.2500 -15.5000 Du        
  25634 ****        -2.2500 -25.2500 -15.2500 Du        
  25635 ****        -2.2500 -25.2500 -15.0000 Du        
  25636 ****        -2.2500 -25.2500 -14.7500 Du        
  25637 ****        -2.2500 -25.0000 -23.0000 Du        
  25638 ****        -2.2500 -25.0000 -22.7500 Du        
  25639 ****        -2.2500 -25.0000 -22.5000 Du        
  25640 ****        -2.2500 -25.0000 -22.2500 Du        
  25641 ****        -2.2500 -25.0000 -22.0000 Du        
  25642 ****        -2.2500 -25.0000 -21.7500 Du        
  25643 ****        -2.2500 -25.0000 -21.5000 Du        
  25644 ****        -2.2500 -25.0000 -21.2500 Du        
  25645 ****        -2.2500 -25.0000 -16.2500 Du        
  25646 ****        -2.2500 -25.0000 -16.0000 Du        
  25647 ****        -2.2500 -25.0000 -15.7500 Du        
  25648 ****        -2.2500 -25.0000 -15.5000 Du        
  25649 ****        -2.2500 -25.0000 -15.2500 Du        
  25650 ****        -2.2500 -25.0000 -15.0000 Du        
  25651 ****        -2.2500 -25.0000 -14.7500 Du        
  25652 ****        -2.2500 -25.0000 -14.5000 Du        
  25653 ****        -2.2500 -24.7500 -23.2500 Du        
  25654 ****        -2.2500 -24.7500 -23.0000 Du        
  25655 ****        -2.2500 -24.7500 -22.7500 Du        
  25656 ****        -2.2500 -24.7500 -22.5000 Du        
  25657 ****        -2.2500 -24.7500 -22.2500 Du        
  25658 ****        -2.2500 -24.7500 -22.0000 Du        
  25659 ****        -2.2500 -24.7500 -21.7500 Du        
  25660 ****        -2.2500 -24.7500 -21.5000 Du        
  25661 ****        -2.2500 -24.7500 -21.2500 Du        
  25662 ****        -2.2500 -24.7500 -16.0000 Du        
  25663 ****        -2.2500 -24.7500 -15.7500 Du        
  25664 ****        -2.2500 -24.7500 -15.5000 Du        
  25665 ****        -2.2500 -24.7500 -15.2500 Du        
  25666 ****        -2.2500 -24.7500 -15.0000 Du        
  25667 ****        -2.2500 -24.7500 -14.7500 Du        
  25668 ****        -2.2500 -24.7500 -14.5000 Du        
  25669 ****        -2.2500 -24.5000 -23.2500 Du        
  25670 ****        -2.2500 -24.5000 -23.0000 Du        
  25671 ****        -2.2500 -24.5000 -22.7500 Du        
  25672 ****        -2.2500 -24.5000 -22.5000 Du        
  25673 ****        -2.2500 -24.5000 -22.2500 Du        
  25674 ****        -2.2500 -24.5000 -22.0000 Du        
  25675 ****        -2.2500 -24.5000 -21.7500 Du        
  25676 ****        -2.2500 -24.5000 -21.5000 Du        
  25677 ****        -2.2500 -24.5000 -21.2500 Du        
  25678 ****        -2.2500 -24.5000 -15.2500 Du        
  25679 ****        -2.2500 -24.5000 -15.0000 Du        
  25680 ****        -2.2500 -24.5000 -14.7500 Du        
  25681 ****        -2.2500 -24.2500 -23.2500 Du        
  25682 ****        -2.2500 -24.2500 -23.0000 Du        
  25683 ****        -2.2500 -24.2500 -22.7500 Du        
  25684 ****        -2.2500 -24.2500 -22.5000 Du        
  25685 ****        -2.2500 -24.2500 -22.2500 Du        
  25686 ****        -2.2500 -24.2500 -22.0000 Du        
  25687 ****        -2.2500 -24.2500 -21.7500 Du        
  25688 ****        -2.2500 -24.2500 -21.5000 Du        
  25689 ****        -2.2500 -24.0000 -23.2500 Du        
  25690 ****        -2.2500 -24.0000 -23.0000 Du        
  25691 ****        -2.2500 -24.0000 -22.7500 Du        
  25692 ****        -2.2500 -24.0000 -22.5000 Du        
  25693 ****        -2.2500 -24.0000 -22.2500 Du        
  25694 ****        -2.2500 -24.0000 -22.0000 Du        
  25695 ****        -2.2500 -24.0000 -21.7500 Du        
  25696 ****        -2.2500 -24.0000 -21.5000 Du        
  25697 ****        -2.2500 -23.7500 -23.2500 Du        
  25698 ****        -2.2500 -23.7500 -23.0000 Du        
  25699 ****        -2.2500 -23.7500 -22.7500 Du        
  25700 ****        -2.2500 -23.7500 -22.5000 Du        
  25701 ****        -2.2500 -23.7500 -22.2500 Du        
  25702 ****        -2.2500 -23.7500 -22.0000 Du        
  25703 ****        -2.2500 -23.7500 -21.7500 Du        
  25704 ****        -2.2500 -23.5000 -23.0000 Du        
  25705 ****        -2.2500 -23.5000 -22.7500 Du        
  25706 ****        -2.2500 -23.5000 -22.5000 Du        
  25707 ****        -2.2500 -23.5000 -22.2500 Du        
  25708 ****        -2.2500 -23.5000 -22.0000 Du        
  25709 ****        -2.2500 -23.2500 -22.7500 Du        
  25710 ****        -2.2500 -23.2500 -22.5000 Du        
  25711 ****        -2.2500 -23.2500 -22.2500 Du        
  25712 ****        -2.2500 -17.7500 -16.7500 Du        
  25713 ****        -2.2500 -17.5000 -17.0000 Du        
  25714 ****        -2.2500 -17.5000 -16.7500 Du        
  25715 ****        -2.2500 -17.2500 -17.0000 Du        
  25716 ****        -2.2500 -17.2500 -16.7500 Du        
  25717 ****        -2.2500 -17.0000 -17.0000 Du        
  25718 ****        -2.2500 -17.0000 -16.7500 Du        
  25719 ****        -2.2500 -16.7500 -16.7500 Du        
  25720 ****        -2.2500 -16.7500 -16.5000 Du        
  25721 ****        -2.2500 -16.2500 -16.7500 Du        
  25722 ****        -2.2500 -16.2500 -16.5000 Du        
  25723 ****        -2.2500 -16.0000 -16.7500 Du        
  25724 ****        -2.2500 -16.0000 -16.5000 Du        
  25725 ****        -2.2500 -16.0000 -16.2500 Du        
  25726 ****        -2.2500 -15.7500 -16.5000 Du        
  25727 ****        -2.2500  -9.5000 -18.2500 Du        
  25728 ****        -2.2500  -9.5000 -18.0000 Du        
  25729 ****        -2.2500  -9.2500 -31.0000 Du        
  25730 ****        -2.2500  -9.2500 -30.7500 Du        
  25731 ****        -2.2500  -9.2500 -30.0000 Du        
  25732 ****        -2.2500  -9.2500 -29.7500 Du        
  25733 ****        -2.2500  -9.2500 -18.2500 Du        
  25734 ****        -2.2500  -9.2500 -18.0000 Du        
  25735 ****        -2.2500  -9.0000 -31.0000 Du        
  25736 ****        -2.2500  -9.0000 -30.7500 Du        
  25737 ****        -2.2500  -9.0000 -30.5000 Du        
  25738 ****        -2.2500  -9.0000 -30.2500 Du        
  25739 ****        -2.2500  -9.0000 -30.0000 Du        
  25740 ****        -2.2500  -9.0000 -29.7500 Du        
  25741 ****        -2.2500  -9.0000 -18.5000 Du        
  25742 ****        -2.2500  -9.0000 -18.2500 Du        
  25743 ****        -2.2500  -9.0000 -18.0000 Du        
  25744 ****        -2.2500  -8.7500 -31.0000 Du        
  25745 ****        -2.2500  -8.7500 -30.7500 Du        
  25746 ****        -2.2500  -8.7500 -30.5000 Du        
  25747 ****        -2.2500  -8.7500 -30.2500 Du        
  25748 ****        -2.2500  -8.7500 -30.0000 Du        
  25749 ****        -2.2500  -8.7500 -29.7500 Du        
  25750 ****        -2.2500  -8.7500 -18.5000 Du        
  25751 ****        -2.2500  -8.7500 -18.2500 Du        
  25752 ****        -2.2500  -8.7500 -18.0000 Du        
  25753 ****        -2.2500  -8.5000 -30.7500 Du        
  25754 ****        -2.2500  -8.5000 -30.5000 Du        
  25755 ****        -2.2500  -8.5000 -30.2500 Du        
  25756 ****        -2.2500  -8.5000 -30.0000 Du        
  25757 ****        -2.2500  -8.5000 -29.7500 Du        
  25758 ****        -2.2500  -8.5000 -29.5000 Du        
  25759 ****        -2.2500  -8.5000 -18.5000 Du        
  25760 ****        -2.2500  -8.5000 -18.2500 Du        
  25761 ****        -2.2500  -8.2500 -30.2500 Du        
  25762 ****        -2.2500  -8.2500 -30.0000 Du        
  25763 ****        -2.2500  -8.2500 -29.7500 Du        
  25764 ****        -2.2500  -4.0000 -28.7500 Du        
  25765 ****        -2.2500  -3.7500 -28.7500 Du        
  25766 ****        -2.0000 -29.0000 -18.7500 Du        
  25767 ****        -2.0000 -29.0000 -18.2500 Du        
  25768 ****        -2.0000 -29.0000 -18.0000 Du        
  25769 ****        -2.0000 -29.0000 -17.7500 Du        
  25770 ****        -2.0000 -29.0000 -17.5000 Du        
  25771 ****        -2.0000 -29.0000 -17.2500 Du        
  25772 ****        -2.0000 -29.0000 -17.0000 Du        
  25773 ****        -2.0000 -29.0000 -16.7500 Du        
  25774 ****        -2.0000 -28.7500 -18.2500 Du        
  25775 ****        -2.0000 -28.7500 -18.0000 Du        
  25776 ****        -2.0000 -28.7500 -17.7500 Du        
  25777 ****        -2.0000 -28.7500 -17.5000 Du        
  25778 ****        -2.0000 -28.7500 -17.2500 Du        
  25779 ****        -2.0000 -28.7500 -17.0000 Du        
  25780 ****        -2.0000 -28.7500 -16.7500 Du        
  25781 ****        -2.0000 -28.5000 -18.0000 Du        
  25782 ****        -2.0000 -28.5000 -17.7500 Du        
  25783 ****        -2.0000 -28.5000 -17.5000 Du        
  25784 ****        -2.0000 -28.5000 -17.2500 Du        
  25785 ****        -2.0000 -28.5000 -17.0000 Du        
  25786 ****        -2.0000 -28.5000 -16.7500 Du        
  25787 ****        -2.0000 -28.2500 -17.7500 Du        
  25788 ****        -2.0000 -28.2500 -17.5000 Du        
  25789 ****        -2.0000 -28.2500 -17.2500 Du        
  25790 ****        -2.0000 -28.2500 -17.0000 Du        
  25791 ****        -2.0000 -28.2500 -16.7500 Du        
  25792 ****        -2.0000 -28.0000 -17.5000 Du        
  25793 ****        -2.0000 -28.0000 -17.2500 Du        
  25794 ****        -2.0000 -28.0000 -17.0000 Du        
  25795 ****        -2.0000 -28.0000 -16.7500 Du        
  25796 ****        -2.0000 -28.0000 -16.5000 Du        
  25797 ****        -2.0000 -27.7500 -17.2500 Du        
  25798 ****        -2.0000 -27.7500 -17.0000 Du        
  25799 ****        -2.0000 -27.7500 -16.7500 Du        
  25800 ****        -2.0000 -27.7500 -16.5000 Du        
  25801 ****        -2.0000 -27.7500 -16.2500 Du        
  25802 ****        -2.0000 -27.5000 -17.2500 Du        
  25803 ****        -2.0000 -27.5000 -17.0000 Du        
  25804 ****        -2.0000 -27.5000 -16.7500 Du        
  25805 ****        -2.0000 -27.5000 -16.5000 Du        
  25806 ****        -2.0000 -27.5000 -16.2500 Du        
  25807 ****        -2.0000 -27.2500 -17.2500 Du        
  25808 ****        -2.0000 -27.2500 -17.0000 Du        
  25809 ****        -2.0000 -27.2500 -16.7500 Du        
  25810 ****        -2.0000 -27.2500 -16.5000 Du        
  25811 ****        -2.0000 -27.2500 -16.2500 Du        
  25812 ****        -2.0000 -27.2500 -16.0000 Du        
  25813 ****        -2.0000 -27.0000 -17.2500 Du        
  25814 ****        -2.0000 -27.0000 -17.0000 Du        
  25815 ****        -2.0000 -27.0000 -16.7500 Du        
  25816 ****        -2.0000 -27.0000 -16.5000 Du        
  25817 ****        -2.0000 -27.0000 -16.2500 Du        
  25818 ****        -2.0000 -27.0000 -16.0000 Du        
  25819 ****        -2.0000 -27.0000 -15.7500 Du        
  25820 ****        -2.0000 -26.7500 -17.2500 Du        
  25821 ****        -2.0000 -26.7500 -17.0000 Du        
  25822 ****        -2.0000 -26.7500 -16.7500 Du        
  25823 ****        -2.0000 -26.7500 -16.5000 Du        
  25824 ****        -2.0000 -26.7500 -16.2500 Du        
  25825 ****        -2.0000 -26.7500 -16.0000 Du        
  25826 ****        -2.0000 -26.7500 -15.7500 Du        
  25827 ****        -2.0000 -26.5000 -17.2500 Du        
  25828 ****        -2.0000 -26.5000 -17.0000 Du        
  25829 ****        -2.0000 -26.5000 -16.7500 Du        
  25830 ****        -2.0000 -26.5000 -16.5000 Du        
  25831 ****        -2.0000 -26.5000 -16.2500 Du        
  25832 ****        -2.0000 -26.5000 -16.0000 Du        
  25833 ****        -2.0000 -26.5000 -15.7500 Du        
  25834 ****        -2.0000 -26.5000 -15.5000 Du        
  25835 ****        -2.0000 -26.5000 -15.2500 Du        
  25836 ****        -2.0000 -26.2500 -17.2500 Du        
  25837 ****        -2.0000 -26.2500 -17.0000 Du        
  25838 ****        -2.0000 -26.2500 -16.7500 Du        
  25839 ****        -2.0000 -26.2500 -16.5000 Du        
  25840 ****        -2.0000 -26.2500 -16.2500 Du        
  25841 ****        -2.0000 -26.2500 -16.0000 Du        
  25842 ****        -2.0000 -26.2500 -15.7500 Du        
  25843 ****        -2.0000 -26.2500 -15.5000 Du        
  25844 ****        -2.0000 -26.2500 -15.2500 Du        
  25845 ****        -2.0000 -26.0000 -17.2500 Du        
  25846 ****        -2.0000 -26.0000 -17.0000 Du        
  25847 ****        -2.0000 -26.0000 -16.7500 Du        
  25848 ****        -2.0000 -26.0000 -16.5000 Du        
  25849 ****        -2.0000 -26.0000 -16.2500 Du        
  25850 ****        -2.0000 -26.0000 -16.0000 Du        
  25851 ****        -2.0000 -26.0000 -15.7500 Du        
  25852 ****        -2.0000 -26.0000 -15.5000 Du        
  25853 ****        -2.0000 -26.0000 -15.2500 Du        
  25854 ****        -2.0000 -26.0000 -15.0000 Du        
  25855 ****        -2.0000 -26.0000 -14.7500 Du        
  25856 ****        -2.0000 -25.7500 -22.5000 Du        
  25857 ****        -2.0000 -25.7500 -22.2500 Du        
  25858 ****        -2.0000 -25.7500 -22.0000 Du        
  25859 ****        -2.0000 -25.7500 -21.7500 Du        
  25860 ****        -2.0000 -25.7500 -17.0000 Du        
  25861 ****        -2.0000 -25.7500 -16.7500 Du        
  25862 ****        -2.0000 -25.7500 -16.5000 Du        
  25863 ****        -2.0000 -25.7500 -16.2500 Du        
  25864 ****        -2.0000 -25.7500 -16.0000 Du        
  25865 ****        -2.0000 -25.7500 -15.7500 Du        
  25866 ****        -2.0000 -25.7500 -15.5000 Du        
  25867 ****        -2.0000 -25.7500 -15.2500 Du        
  25868 ****        -2.0000 -25.7500 -15.0000 Du        
  25869 ****        -2.0000 -25.7500 -14.7500 Du        
  25870 ****        -2.0000 -25.5000 -22.7500 Du        
  25871 ****        -2.0000 -25.5000 -22.5000 Du        
  25872 ****        -2.0000 -25.5000 -22.2500 Du        
  25873 ****        -2.0000 -25.5000 -22.0000 Du        
  25874 ****        -2.0000 -25.5000 -21.7500 Du        
  25875 ****        -2.0000 -25.5000 -21.5000 Du        
  25876 ****        -2.0000 -25.5000 -16.7500 Du        
  25877 ****        -2.0000 -25.5000 -16.5000 Du        
  25878 ****        -2.0000 -25.5000 -16.2500 Du        
  25879 ****        -2.0000 -25.5000 -16.0000 Du        
  25880 ****        -2.0000 -25.5000 -15.7500 Du        
  25881 ****        -2.0000 -25.5000 -15.5000 Du        
  25882 ****        -2.0000 -25.5000 -15.2500 Du        
  25883 ****        -2.0000 -25.5000 -15.0000 Du        
  25884 ****        -2.0000 -25.5000 -14.7500 Du        
  25885 ****        -2.0000 -25.2500 -23.0000 Du        
  25886 ****        -2.0000 -25.2500 -22.7500 Du        
  25887 ****        -2.0000 -25.2500 -22.5000 Du        
  25888 ****        -2.0000 -25.2500 -22.2500 Du        
  25889 ****        -2.0000 -25.2500 -22.0000 Du        
  25890 ****        -2.0000 -25.2500 -21.7500 Du        
  25891 ****        -2.0000 -25.2500 -21.5000 Du        
  25892 ****        -2.0000 -25.2500 -16.7500 Du        
  25893 ****        -2.0000 -25.2500 -16.5000 Du        
  25894 ****        -2.0000 -25.2500 -16.2500 Du        
  25895 ****        -2.0000 -25.2500 -16.0000 Du        
  25896 ****        -2.0000 -25.2500 -15.7500 Du        
  25897 ****        -2.0000 -25.2500 -15.5000 Du        
  25898 ****        -2.0000 -25.2500 -15.2500 Du        
  25899 ****        -2.0000 -25.2500 -15.0000 Du        
  25900 ****        -2.0000 -25.2500 -14.7500 Du        
  25901 ****        -2.0000 -25.0000 -23.2500 Du        
  25902 ****        -2.0000 -25.0000 -23.0000 Du        
  25903 ****        -2.0000 -25.0000 -22.7500 Du        
  25904 ****        -2.0000 -25.0000 -22.5000 Du        
  25905 ****        -2.0000 -25.0000 -22.2500 Du        
  25906 ****        -2.0000 -25.0000 -22.0000 Du        
  25907 ****        -2.0000 -25.0000 -21.7500 Du        
  25908 ****        -2.0000 -25.0000 -21.5000 Du        
  25909 ****        -2.0000 -25.0000 -16.5000 Du        
  25910 ****        -2.0000 -25.0000 -16.2500 Du        
  25911 ****        -2.0000 -25.0000 -16.0000 Du        
  25912 ****        -2.0000 -25.0000 -15.7500 Du        
  25913 ****        -2.0000 -25.0000 -15.5000 Du        
  25914 ****        -2.0000 -25.0000 -15.2500 Du        
  25915 ****        -2.0000 -25.0000 -15.0000 Du        
  25916 ****        -2.0000 -25.0000 -14.7500 Du        
  25917 ****        -2.0000 -25.0000 -14.5000 Du        
  25918 ****        -2.0000 -24.7500 -23.2500 Du        
  25919 ****        -2.0000 -24.7500 -23.0000 Du        
  25920 ****        -2.0000 -24.7500 -22.7500 Du        
  25921 ****        -2.0000 -24.7500 -22.5000 Du        
  25922 ****        -2.0000 -24.7500 -22.2500 Du        
  25923 ****        -2.0000 -24.7500 -22.0000 Du        
  25924 ****        -2.0000 -24.7500 -21.7500 Du        
  25925 ****        -2.0000 -24.7500 -16.2500 Du        
  25926 ****        -2.0000 -24.7500 -16.0000 Du        
  25927 ****        -2.0000 -24.7500 -15.7500 Du        
  25928 ****        -2.0000 -24.7500 -15.5000 Du        
  25929 ****        -2.0000 -24.7500 -15.2500 Du        
  25930 ****        -2.0000 -24.7500 -15.0000 Du        
  25931 ****        -2.0000 -24.7500 -14.7500 Du        
  25932 ****        -2.0000 -24.7500 -14.5000 Du        
  25933 ****        -2.0000 -24.5000 -23.2500 Du        
  25934 ****        -2.0000 -24.5000 -23.0000 Du        
  25935 ****        -2.0000 -24.5000 -22.7500 Du        
  25936 ****        -2.0000 -24.5000 -22.5000 Du        
  25937 ****        -2.0000 -24.5000 -22.2500 Du        
  25938 ****        -2.0000 -24.5000 -22.0000 Du        
  25939 ****        -2.0000 -24.5000 -21.7500 Du        
  25940 ****        -2.0000 -24.5000 -15.7500 Du        
  25941 ****        -2.0000 -24.5000 -15.5000 Du        
  25942 ****        -2.0000 -24.5000 -15.2500 Du        
  25943 ****        -2.0000 -24.5000 -15.0000 Du        
  25944 ****        -2.0000 -24.5000 -14.7500 Du        
  25945 ****        -2.0000 -24.5000 -14.5000 Du        
  25946 ****        -2.0000 -24.2500 -23.2500 Du        
  25947 ****        -2.0000 -24.2500 -23.0000 Du        
  25948 ****        -2.0000 -24.2500 -22.7500 Du        
  25949 ****        -2.0000 -24.2500 -22.5000 Du        
  25950 ****        -2.0000 -24.2500 -22.2500 Du        
  25951 ****        -2.0000 -24.2500 -22.0000 Du        
  25952 ****        -2.0000 -24.2500 -21.7500 Du        
  25953 ****        -2.0000 -24.2500 -15.0000 Du        
  25954 ****        -2.0000 -24.2500 -14.7500 Du        
  25955 ****        -2.0000 -24.0000 -23.2500 Du        
  25956 ****        -2.0000 -24.0000 -23.0000 Du        
  25957 ****        -2.0000 -24.0000 -22.7500 Du        
  25958 ****        -2.0000 -24.0000 -22.5000 Du        
  25959 ****        -2.0000 -24.0000 -22.2500 Du        
  25960 ****        -2.0000 -24.0000 -22.0000 Du        
  25961 ****        -2.0000 -23.7500 -23.2500 Du        
  25962 ****        -2.0000 -23.7500 -23.0000 Du        
  25963 ****        -2.0000 -23.7500 -22.7500 Du        
  25964 ****        -2.0000 -23.7500 -22.5000 Du        
  25965 ****        -2.0000 -23.7500 -22.2500 Du        
  25966 ****        -2.0000 -23.7500 -22.0000 Du        
  25967 ****        -2.0000 -23.5000 -23.0000 Du        
  25968 ****        -2.0000 -23.5000 -22.7500 Du        
  25969 ****        -2.0000 -23.5000 -22.5000 Du        
  25970 ****        -2.0000 -17.7500 -16.5000 Du        
  25971 ****        -2.0000 -17.5000 -17.0000 Du        
  25972 ****        -2.0000 -17.5000 -16.7500 Du        
  25973 ****        -2.0000 -17.5000 -16.5000 Du        
  25974 ****        -2.0000 -17.2500 -17.0000 Du        
  25975 ****        -2.0000 -17.2500 -16.7500 Du        
  25976 ****        -2.0000 -17.2500 -16.5000 Du        
  25977 ****        -2.0000 -17.0000 -17.0000 Du        
  25978 ****        -2.0000 -17.0000 -16.7500 Du        
  25979 ****        -2.0000 -17.0000 -16.5000 Du        
  25980 ****        -2.0000 -17.0000 -16.2500 Du        
  25981 ****        -2.0000 -16.7500 -16.7500 Du        
  25982 ****        -2.0000 -16.7500 -16.5000 Du        
  25983 ****        -2.0000 -16.7500 -16.2500 Du        
  25984 ****        -2.0000 -16.5000 -16.5000 Du        
  25985 ****        -2.0000 -16.5000 -16.2500 Du        
  25986 ****        -2.0000 -16.2500 -16.7500 Du        
  25987 ****        -2.0000 -16.2500 -16.5000 Du        
  25988 ****        -2.0000 -16.2500 -16.2500 Du        
  25989 ****        -2.0000 -16.0000 -16.7500 Du        
  25990 ****        -2.0000 -16.0000 -16.5000 Du        
  25991 ****        -2.0000 -16.0000 -16.2500 Du        
  25992 ****        -2.0000 -15.7500 -16.7500 Du        
  25993 ****        -2.0000 -15.7500 -16.5000 Du        
  25994 ****        -2.0000 -15.7500 -16.2500 Du        
  25995 ****        -2.0000 -10.5000 -31.0000 Du        
  25996 ****        -2.0000 -10.5000 -30.7500 Du        
  25997 ****        -2.0000 -10.2500 -31.0000 Du        
  25998 ****        -2.0000 -10.2500 -30.7500 Du        
  25999 ****        -2.0000 -10.2500 -30.5000 Du        
  26000 ****        -2.0000 -10.0000 -31.2500 Du        
  26001 ****        -2.0000 -10.0000 -31.0000 Du        
  26002 ****        -2.0000 -10.0000 -30.7500 Du        
  26003 ****        -2.0000 -10.0000 -30.5000 Du        
  26004 ****        -2.0000 -10.0000 -30.2500 Du        
  26005 ****        -2.0000 -10.0000 -30.0000 Du        
  26006 ****        -2.0000  -9.7500 -31.5000 Du        
  26007 ****        -2.0000  -9.7500 -31.2500 Du        
  26008 ****        -2.0000  -9.7500 -31.0000 Du        
  26009 ****        -2.0000  -9.7500 -30.7500 Du        
  26010 ****        -2.0000  -9.7500 -30.5000 Du        
  26011 ****        -2.0000  -9.7500 -30.2500 Du        
  26012 ****        -2.0000  -9.7500 -30.0000 Du        
  26013 ****        -2.0000  -9.7500 -18.2500 Du        
  26014 ****        -2.0000  -9.5000 -31.5000 Du        
  26015 ****        -2.0000  -9.5000 -31.2500 Du        
  26016 ****        -2.0000  -9.5000 -31.0000 Du        
  26017 ****        -2.0000  -9.5000 -30.7500 Du        
  26018 ****        -2.0000  -9.5000 -30.5000 Du        
  26019 ****        -2.0000  -9.5000 -30.2500 Du        
  26020 ****        -2.0000  -9.5000 -30.0000 Du        
  26021 ****        -2.0000  -9.5000 -18.2500 Du        
  26022 ****        -2.0000  -9.5000 -18.0000 Du        
  26023 ****        -2.0000  -9.2500 -31.7500 Du        
  26024 ****        -2.0000  -9.2500 -31.5000 Du        
  26025 ****        -2.0000  -9.2500 -31.2500 Du        
  26026 ****        -2.0000  -9.2500 -31.0000 Du        
  26027 ****        -2.0000  -9.2500 -30.7500 Du        
  26028 ****        -2.0000  -9.2500 -30.5000 Du        
  26029 ****        -2.0000  -9.2500 -30.2500 Du        
  26030 ****        -2.0000  -9.2500 -30.0000 Du        
  26031 ****        -2.0000  -9.2500 -29.7500 Du        
  26032 ****        -2.0000  -9.2500 -18.5000 Du        
  26033 ****        -2.0000  -9.2500 -18.2500 Du        
  26034 ****        -2.0000  -9.2500 -18.0000 Du        
  26035 ****        -2.0000  -9.0000 -31.7500 Du        
  26036 ****        -2.0000  -9.0000 -31.5000 Du        
  26037 ****        -2.0000  -9.0000 -31.2500 Du        
  26038 ****        -2.0000  -9.0000 -31.0000 Du        
  26039 ****        -2.0000  -9.0000 -30.7500 Du        
  26040 ****        -2.0000  -9.0000 -30.5000 Du        
  26041 ****        -2.0000  -9.0000 -30.2500 Du        
  26042 ****        -2.0000  -9.0000 -30.0000 Du        
  26043 ****        -2.0000  -9.0000 -29.7500 Du        
  26044 ****        -2.0000  -9.0000 -18.5000 Du        
  26045 ****        -2.0000  -9.0000 -18.2500 Du        
  26046 ****        -2.0000  -9.0000 -18.0000 Du        
  26047 ****        -2.0000  -8.7500 -31.2500 Du        
  26048 ****        -2.0000  -8.7500 -31.0000 Du        
  26049 ****        -2.0000  -8.7500 -30.7500 Du        
  26050 ****        -2.0000  -8.7500 -30.5000 Du        
  26051 ****        -2.0000  -8.7500 -30.2500 Du        
  26052 ****        -2.0000  -8.7500 -30.0000 Du        
  26053 ****        -2.0000  -8.7500 -29.7500 Du        
  26054 ****        -2.0000  -8.7500 -18.5000 Du        
  26055 ****        -2.0000  -8.7500 -18.2500 Du        
  26056 ****        -2.0000  -8.7500 -18.0000 Du        
  26057 ****        -2.0000  -8.5000 -31.0000 Du        
  26058 ****        -2.0000  -8.5000 -30.7500 Du        
  26059 ****        -2.0000  -8.5000 -30.5000 Du        
  26060 ****        -2.0000  -8.5000 -30.2500 Du        
  26061 ****        -2.0000  -8.5000 -30.0000 Du        
  26062 ****        -2.0000  -8.5000 -29.7500 Du        
  26063 ****        -2.0000  -8.5000 -29.5000 Du        
  26064 ****        -2.0000  -8.5000 -18.2500 Du        
  26065 ****        -2.0000  -8.2500 -30.5000 Du        
  26066 ****        -2.0000  -8.2500 -30.2500 Du        
  26067 ****        -2.0000  -8.2500 -30.0000 Du        
  26068 ****        -2.0000  -8.2500 -29.7500 Du        
  26069 ****        -2.0000  -8.2500 -29.5000 Du        
  26070 ****        -2.0000  -8.0000 -30.0000 Du        
  26071 ****        -2.0000  -8.0000 -29.7500 Du        
  26072 ****        -2.0000  -4.5000 -28.7500 Du        
  26073 ****        -2.0000  -4.5000 -28.5000 Du        
  26074 ****        -2.0000  -4.5000 -28.2500 Du        
  26075 ****        -2.0000  -4.5000 -28.0000 Du        
  26076 ****        -2.0000  -4.2500 -29.0000 Du        
  26077 ****        -2.0000  -4.2500 -28.7500 Du        
  26078 ****        -2.0000  -4.2500 -28.5000 Du        
  26079 ****        -2.0000  -4.2500 -28.2500 Du        
  26080 ****        -2.0000  -4.2500 -28.0000 Du        
  26081 ****        -2.0000  -4.2500 -27.7500 Du        
  26082 ****        -2.0000  -4.2500 -19.0000 Du        
  26083 ****        -2.0000  -4.0000 -29.2500 Du        
  26084 ****        -2.0000  -4.0000 -29.0000 Du        
  26085 ****        -2.0000  -4.0000 -28.7500 Du        
  26086 ****        -2.0000  -4.0000 -28.5000 Du        
  26087 ****        -2.0000  -4.0000 -28.2500 Du        
  26088 ****        -2.0000  -4.0000 -28.0000 Du        
  26089 ****        -2.0000  -4.0000 -27.7500 Du        
  26090 ****        -2.0000  -3.7500 -29.2500 Du        
  26091 ****        -2.0000  -3.7500 -29.0000 Du        
  26092 ****        -2.0000  -3.7500 -28.7500 Du        
  26093 ****        -2.0000  -3.7500 -28.5000 Du        
  26094 ****        -2.0000  -3.7500 -28.2500 Du        
  26095 ****        -2.0000  -3.5000 -29.0000 Du        
  26096 ****        -2.0000  -3.5000 -28.7500 Du        
  26097 ****        -1.7500 -29.0000 -18.0000 Du        
  26098 ****        -1.7500 -29.0000 -17.5000 Du        
  26099 ****        -1.7500 -29.0000 -17.2500 Du        
  26100 ****        -1.7500 -29.0000 -17.0000 Du        
  26101 ****        -1.7500 -29.0000 -16.7500 Du        
  26102 ****        -1.7500 -28.7500 -17.0000 Du        
  26103 ****        -1.7500 -27.5000 -17.0000 Du        
  26104 ****        -1.7500 -27.5000 -16.7500 Du        
  26105 ****        -1.7500 -27.2500 -17.0000 Du        
  26106 ****        -1.7500 -27.2500 -16.7500 Du        
  26107 ****        -1.7500 -27.2500 -16.5000 Du        
  26108 ****        -1.7500 -27.2500 -16.0000 Du        
  26109 ****        -1.7500 -27.0000 -17.0000 Du        
  26110 ****        -1.7500 -27.0000 -16.7500 Du        
  26111 ****        -1.7500 -27.0000 -16.5000 Du        
  26112 ****        -1.7500 -27.0000 -16.2500 Du        
  26113 ****        -1.7500 -27.0000 -16.0000 Du        
  26114 ****        -1.7500 -26.7500 -17.0000 Du        
  26115 ****        -1.7500 -26.7500 -16.7500 Du        
  26116 ****        -1.7500 -26.7500 -16.5000 Du        
  26117 ****        -1.7500 -26.7500 -16.2500 Du        
  26118 ****        -1.7500 -26.7500 -16.0000 Du        
  26119 ****        -1.7500 -26.7500 -15.7500 Du        
  26120 ****        -1.7500 -26.5000 -17.0000 Du        
  26121 ****        -1.7500 -26.5000 -16.7500 Du        
  26122 ****        -1.7500 -26.5000 -16.5000 Du        
  26123 ****        -1.7500 -26.5000 -16.2500 Du        
  26124 ****        -1.7500 -26.5000 -16.0000 Du        
  26125 ****        -1.7500 -26.5000 -15.5000 Du        
  26126 ****        -1.7500 -26.2500 -17.0000 Du        
  26127 ****        -1.7500 -26.2500 -16.7500 Du        
  26128 ****        -1.7500 -26.2500 -16.5000 Du        
  26129 ****        -1.7500 -26.2500 -16.2500 Du        
  26130 ****        -1.7500 -26.2500 -16.0000 Du        
  26131 ****        -1.7500 -26.2500 -15.7500 Du        
  26132 ****        -1.7500 -26.2500 -15.5000 Du        
  26133 ****        -1.7500 -26.2500 -15.2500 Du        
  26134 ****        -1.7500 -26.2500 -15.0000 Du        
  26135 ****        -1.7500 -26.0000 -17.0000 Du        
  26136 ****        -1.7500 -26.0000 -16.7500 Du        
  26137 ****        -1.7500 -26.0000 -16.5000 Du        
  26138 ****        -1.7500 -26.0000 -16.2500 Du        
  26139 ****        -1.7500 -26.0000 -16.0000 Du        
  26140 ****        -1.7500 -26.0000 -15.7500 Du        
  26141 ****        -1.7500 -26.0000 -15.5000 Du        
  26142 ****        -1.7500 -26.0000 -15.2500 Du        
  26143 ****        -1.7500 -26.0000 -15.0000 Du        
  26144 ****        -1.7500 -26.0000 -14.7500 Du        
  26145 ****        -1.7500 -25.7500 -16.7500 Du        
  26146 ****        -1.7500 -25.7500 -16.5000 Du        
  26147 ****        -1.7500 -25.7500 -16.2500 Du        
  26148 ****        -1.7500 -25.7500 -16.0000 Du        
  26149 ****        -1.7500 -25.7500 -15.7500 Du        
  26150 ****        -1.7500 -25.7500 -15.5000 Du        
  26151 ****        -1.7500 -25.7500 -15.2500 Du        
  26152 ****        -1.7500 -25.7500 -15.0000 Du        
  26153 ****        -1.7500 -25.7500 -14.7500 Du        
  26154 ****        -1.7500 -25.5000 -16.7500 Du        
  26155 ****        -1.7500 -25.5000 -16.5000 Du        
  26156 ****        -1.7500 -25.5000 -16.2500 Du        
  26157 ****        -1.7500 -25.5000 -16.0000 Du        
  26158 ****        -1.7500 -25.5000 -15.7500 Du        
  26159 ****        -1.7500 -25.5000 -15.5000 Du        
  26160 ****        -1.7500 -25.5000 -15.2500 Du        
  26161 ****        -1.7500 -25.5000 -15.0000 Du        
  26162 ****        -1.7500 -25.5000 -14.7500 Du        
  26163 ****        -1.7500 -25.2500 -22.7500 Du        
  26164 ****        -1.7500 -25.2500 -22.5000 Du        
  26165 ****        -1.7500 -25.2500 -22.2500 Du        
  26166 ****        -1.7500 -25.2500 -22.0000 Du        
  26167 ****        -1.7500 -25.2500 -16.5000 Du        
  26168 ****        -1.7500 -25.2500 -16.2500 Du        
  26169 ****        -1.7500 -25.2500 -16.0000 Du        
  26170 ****        -1.7500 -25.2500 -15.7500 Du        
  26171 ****        -1.7500 -25.2500 -15.5000 Du        
  26172 ****        -1.7500 -25.2500 -15.2500 Du        
  26173 ****        -1.7500 -25.2500 -15.0000 Du        
  26174 ****        -1.7500 -25.2500 -14.7500 Du        
  26175 ****        -1.7500 -25.2500 -14.5000 Du        
  26176 ****        -1.7500 -25.0000 -22.7500 Du        
  26177 ****        -1.7500 -25.0000 -22.5000 Du        
  26178 ****        -1.7500 -25.0000 -22.2500 Du        
  26179 ****        -1.7500 -25.0000 -22.0000 Du        
  26180 ****        -1.7500 -25.0000 -16.2500 Du        
  26181 ****        -1.7500 -25.0000 -16.0000 Du        
  26182 ****        -1.7500 -25.0000 -15.7500 Du        
  26183 ****        -1.7500 -25.0000 -15.5000 Du        
  26184 ****        -1.7500 -25.0000 -15.2500 Du        
  26185 ****        -1.7500 -25.0000 -15.0000 Du        
  26186 ****        -1.7500 -25.0000 -14.7500 Du        
  26187 ****        -1.7500 -25.0000 -14.5000 Du        
  26188 ****        -1.7500 -24.7500 -23.0000 Du        
  26189 ****        -1.7500 -24.7500 -22.7500 Du        
  26190 ****        -1.7500 -24.7500 -22.5000 Du        
  26191 ****        -1.7500 -24.7500 -22.2500 Du        
  26192 ****        -1.7500 -24.7500 -22.0000 Du        
  26193 ****        -1.7500 -24.7500 -16.2500 Du        
  26194 ****        -1.7500 -24.7500 -16.0000 Du        
  26195 ****        -1.7500 -24.7500 -15.7500 Du        
  26196 ****        -1.7500 -24.7500 -15.5000 Du        
  26197 ****        -1.7500 -24.7500 -15.2500 Du        
  26198 ****        -1.7500 -24.7500 -15.0000 Du        
  26199 ****        -1.7500 -24.7500 -14.7500 Du        
  26200 ****        -1.7500 -24.7500 -14.5000 Du        
  26201 ****        -1.7500 -24.7500 -14.2500 Du        
  26202 ****        -1.7500 -24.5000 -23.0000 Du        
  26203 ****        -1.7500 -24.5000 -22.7500 Du        
  26204 ****        -1.7500 -24.5000 -22.5000 Du        
  26205 ****        -1.7500 -24.5000 -22.2500 Du        
  26206 ****        -1.7500 -24.5000 -22.0000 Du        
  26207 ****        -1.7500 -24.5000 -16.0000 Du        
  26208 ****        -1.7500 -24.5000 -15.7500 Du        
  26209 ****        -1.7500 -24.5000 -15.5000 Du        
  26210 ****        -1.7500 -24.5000 -15.2500 Du        
  26211 ****        -1.7500 -24.5000 -15.0000 Du        
  26212 ****        -1.7500 -24.5000 -14.7500 Du        
  26213 ****        -1.7500 -24.5000 -14.5000 Du        
  26214 ****        -1.7500 -24.5000 -14.2500 Du        
  26215 ****        -1.7500 -24.2500 -23.0000 Du        
  26216 ****        -1.7500 -24.2500 -22.7500 Du        
  26217 ****        -1.7500 -24.2500 -22.5000 Du        
  26218 ****        -1.7500 -24.2500 -22.2500 Du        
  26219 ****        -1.7500 -24.2500 -15.7500 Du        
  26220 ****        -1.7500 -24.2500 -15.2500 Du        
  26221 ****        -1.7500 -24.2500 -15.0000 Du        
  26222 ****        -1.7500 -24.2500 -14.7500 Du        
  26223 ****        -1.7500 -24.2500 -14.5000 Du        
  26224 ****        -1.7500 -24.2500 -14.2500 Du        
  26225 ****        -1.7500 -24.0000 -23.0000 Du        
  26226 ****        -1.7500 -24.0000 -22.7500 Du        
  26227 ****        -1.7500 -24.0000 -22.5000 Du        
  26228 ****        -1.7500 -24.0000 -22.2500 Du        
  26229 ****        -1.7500 -24.0000 -14.7500 Du        
  26230 ****        -1.7500 -23.7500 -23.0000 Du        
  26231 ****        -1.7500 -23.7500 -22.7500 Du        
  26232 ****        -1.7500 -23.7500 -22.5000 Du        
  26233 ****        -1.7500 -18.0000 -16.5000 Du        
  26234 ****        -1.7500 -18.0000 -16.2500 Du        
  26235 ****        -1.7500 -18.0000 -16.0000 Du        
  26236 ****        -1.7500 -17.7500 -16.5000 Du        
  26237 ****        -1.7500 -17.7500 -16.2500 Du        
  26238 ****        -1.7500 -17.5000 -16.7500 Du        
  26239 ****        -1.7500 -17.5000 -16.5000 Du        
  26240 ****        -1.7500 -17.5000 -16.2500 Du        
  26241 ****        -1.7500 -17.2500 -16.7500 Du        
  26242 ****        -1.7500 -17.2500 -16.5000 Du        
  26243 ****        -1.7500 -17.2500 -16.2500 Du        
  26244 ****        -1.7500 -17.2500 -16.0000 Du        
  26245 ****        -1.7500 -17.0000 -16.7500 Du        
  26246 ****        -1.7500 -17.0000 -16.5000 Du        
  26247 ****        -1.7500 -17.0000 -16.2500 Du        
  26248 ****        -1.7500 -17.0000 -16.0000 Du        
  26249 ****        -1.7500 -16.7500 -16.5000 Du        
  26250 ****        -1.7500 -16.7500 -16.2500 Du        
  26251 ****        -1.7500 -16.7500 -16.0000 Du        
  26252 ****        -1.7500 -16.5000 -16.7500 Du        
  26253 ****        -1.7500 -16.5000 -16.5000 Du        
  26254 ****        -1.7500 -16.5000 -16.2500 Du        
  26255 ****        -1.7500 -16.5000 -16.0000 Du        
  26256 ****        -1.7500 -16.2500 -16.7500 Du        
  26257 ****        -1.7500 -16.2500 -16.5000 Du        
  26258 ****        -1.7500 -16.2500 -16.2500 Du        
  26259 ****        -1.7500 -16.2500 -16.0000 Du        
  26260 ****        -1.7500 -16.0000 -16.7500 Du        
  26261 ****        -1.7500 -16.0000 -16.5000 Du        
  26262 ****        -1.7500 -16.0000 -16.2500 Du        
  26263 ****        -1.7500 -16.0000 -16.0000 Du        
  26264 ****        -1.7500 -15.7500 -16.7500 Du        
  26265 ****        -1.7500 -15.7500 -16.5000 Du        
  26266 ****        -1.7500 -15.7500 -16.2500 Du        
  26267 ****        -1.7500 -15.7500 -16.0000 Du        
  26268 ****        -1.7500 -15.5000 -16.5000 Du        
  26269 ****        -1.7500 -15.5000 -16.2500 Du        
  26270 ****        -1.7500 -10.7500 -31.0000 Du        
  26271 ****        -1.7500 -10.7500 -30.7500 Du        
  26272 ****        -1.7500 -10.5000 -31.2500 Du        
  26273 ****        -1.7500 -10.5000 -31.0000 Du        
  26274 ****        -1.7500 -10.5000 -30.7500 Du        
  26275 ****        -1.7500 -10.2500 -31.2500 Du        
  26276 ****        -1.7500 -10.2500 -31.0000 Du        
  26277 ****        -1.7500 -10.2500 -30.7500 Du        
  26278 ****        -1.7500 -10.2500 -30.5000 Du        
  26279 ****        -1.7500 -10.0000 -31.5000 Du        
  26280 ****        -1.7500 -10.0000 -31.2500 Du        
  26281 ****        -1.7500 -10.0000 -31.0000 Du        
  26282 ****        -1.7500 -10.0000 -30.7500 Du        
  26283 ****        -1.7500 -10.0000 -30.5000 Du        
  26284 ****        -1.7500 -10.0000 -30.2500 Du        
  26285 ****        -1.7500  -9.7500 -31.7500 Du        
  26286 ****        -1.7500  -9.7500 -31.5000 Du        
  26287 ****        -1.7500  -9.7500 -31.2500 Du        
  26288 ****        -1.7500  -9.7500 -31.0000 Du        
  26289 ****        -1.7500  -9.7500 -30.7500 Du        
  26290 ****        -1.7500  -9.7500 -30.5000 Du        
  26291 ****        -1.7500  -9.7500 -30.2500 Du        
  26292 ****        -1.7500  -9.7500 -30.0000 Du        
  26293 ****        -1.7500  -9.7500 -18.0000 Du        
  26294 ****        -1.7500  -9.5000 -31.7500 Du        
  26295 ****        -1.7500  -9.5000 -31.5000 Du        
  26296 ****        -1.7500  -9.5000 -31.2500 Du        
  26297 ****        -1.7500  -9.5000 -31.0000 Du        
  26298 ****        -1.7500  -9.5000 -30.7500 Du        
  26299 ****        -1.7500  -9.5000 -30.5000 Du        
  26300 ****        -1.7500  -9.5000 -30.2500 Du        
  26301 ****        -1.7500  -9.5000 -30.0000 Du        
  26302 ****        -1.7500  -9.5000 -18.2500 Du        
  26303 ****        -1.7500  -9.5000 -18.0000 Du        
  26304 ****        -1.7500  -9.2500 -32.0000 Du        
  26305 ****        -1.7500  -9.2500 -31.7500 Du        
  26306 ****        -1.7500  -9.2500 -31.5000 Du        
  26307 ****        -1.7500  -9.2500 -31.2500 Du        
  26308 ****        -1.7500  -9.2500 -31.0000 Du        
  26309 ****        -1.7500  -9.2500 -30.7500 Du        
  26310 ****        -1.7500  -9.2500 -30.5000 Du        
  26311 ****        -1.7500  -9.2500 -30.2500 Du        
  26312 ****        -1.7500  -9.2500 -30.0000 Du        
  26313 ****        -1.7500  -9.2500 -29.7500 Du        
  26314 ****        -1.7500  -9.2500 -18.2500 Du        
  26315 ****        -1.7500  -9.2500 -18.0000 Du        
  26316 ****        -1.7500  -9.2500 -17.7500 Du        
  26317 ****        -1.7500  -9.0000 -32.0000 Du        
  26318 ****        -1.7500  -9.0000 -31.7500 Du        
  26319 ****        -1.7500  -9.0000 -31.5000 Du        
  26320 ****        -1.7500  -9.0000 -31.2500 Du        
  26321 ****        -1.7500  -9.0000 -31.0000 Du        
  26322 ****        -1.7500  -9.0000 -30.7500 Du        
  26323 ****        -1.7500  -9.0000 -30.5000 Du        
  26324 ****        -1.7500  -9.0000 -30.2500 Du        
  26325 ****        -1.7500  -9.0000 -30.0000 Du        
  26326 ****        -1.7500  -9.0000 -29.7500 Du        
  26327 ****        -1.7500  -9.0000 -18.5000 Du        
  26328 ****        -1.7500  -9.0000 -18.2500 Du        
  26329 ****        -1.7500  -9.0000 -18.0000 Du        
  26330 ****        -1.7500  -9.0000 -17.7500 Du        
  26331 ****        -1.7500  -8.7500 -31.7500 Du        
  26332 ****        -1.7500  -8.7500 -31.5000 Du        
  26333 ****        -1.7500  -8.7500 -31.2500 Du        
  26334 ****        -1.7500  -8.7500 -31.0000 Du        
  26335 ****        -1.7500  -8.7500 -30.7500 Du        
  26336 ****        -1.7500  -8.7500 -30.5000 Du        
  26337 ****        -1.7500  -8.7500 -30.2500 Du        
  26338 ****        -1.7500  -8.7500 -30.0000 Du        
  26339 ****        -1.7500  -8.7500 -29.7500 Du        
  26340 ****        -1.7500  -8.7500 -18.2500 Du        
  26341 ****        -1.7500  -8.7500 -18.0000 Du        
  26342 ****        -1.7500  -8.5000 -31.2500 Du        
  26343 ****        -1.7500  -8.5000 -31.0000 Du        
  26344 ****        -1.7500  -8.5000 -30.7500 Du        
  26345 ****        -1.7500  -8.5000 -30.5000 Du        
  26346 ****        -1.7500  -8.5000 -30.2500 Du        
  26347 ****        -1.7500  -8.5000 -30.0000 Du        
  26348 ****        -1.7500  -8.5000 -29.7500 Du        
  26349 ****        -1.7500  -8.5000 -18.2500 Du        
  26350 ****        -1.7500  -8.2500 -30.5000 Du        
  26351 ****        -1.7500  -8.2500 -30.2500 Du        
  26352 ****        -1.7500  -8.2500 -30.0000 Du        
  26353 ****        -1.7500  -8.2500 -29.7500 Du        
  26354 ****        -1.7500  -4.5000 -29.0000 Du        
  26355 ****        -1.7500  -4.5000 -28.7500 Du        
  26356 ****        -1.7500  -4.5000 -28.5000 Du        
  26357 ****        -1.7500  -4.5000 -28.2500 Du        
  26358 ****        -1.7500  -4.5000 -28.0000 Du        
  26359 ****        -1.7500  -4.5000 -27.7500 Du        
  26360 ****        -1.7500  -4.2500 -29.2500 Du        
  26361 ****        -1.7500  -4.2500 -29.0000 Du        
  26362 ****        -1.7500  -4.2500 -28.7500 Du        
  26363 ****        -1.7500  -4.2500 -28.5000 Du        
  26364 ****        -1.7500  -4.2500 -28.2500 Du        
  26365 ****        -1.7500  -4.2500 -28.0000 Du        
  26366 ****        -1.7500  -4.2500 -27.7500 Du        
  26367 ****        -1.7500  -4.2500 -19.0000 Du        
  26368 ****        -1.7500  -4.0000 -29.2500 Du        
  26369 ****        -1.7500  -4.0000 -29.0000 Du        
  26370 ****        -1.7500  -4.0000 -28.7500 Du        
  26371 ****        -1.7500  -4.0000 -28.5000 Du        
  26372 ****        -1.7500  -4.0000 -28.2500 Du        
  26373 ****        -1.7500  -4.0000 -28.0000 Du        
  26374 ****        -1.7500  -4.0000 -27.7500 Du        
  26375 ****        -1.7500  -4.0000 -19.0000 Du        
  26376 ****        -1.7500  -3.7500 -29.2500 Du        
  26377 ****        -1.7500  -3.7500 -29.0000 Du        
  26378 ****        -1.7500  -3.7500 -28.7500 Du        
  26379 ****        -1.7500  -3.7500 -28.5000 Du        
  26380 ****        -1.7500  -3.7500 -28.2500 Du        
  26381 ****        -1.7500  -3.7500 -28.0000 Du        
  26382 ****        -1.7500  -3.7500 -27.7500 Du        
  26383 ****        -1.7500  -3.5000 -29.2500 Du        
  26384 ****        -1.7500  -3.5000 -29.0000 Du        
  26385 ****        -1.7500  -3.5000 -28.7500 Du        
  26386 ****        -1.7500  -3.5000 -28.5000 Du        
  26387 ****        -1.7500  -3.5000 -28.2500 Du        
  26388 ****        -1.7500  -3.2500 -29.2500 Du        
  26389 ****        -1.7500  -3.2500 -29.0000 Du        
  26390 ****        -1.7500  -3.2500 -28.7500 Du        
  26391 ****        -1.5000 -26.5000 -16.7500 Du        
  26392 ****        -1.5000 -26.5000 -16.5000 Du        
  26393 ****        -1.5000 -26.5000 -16.2500 Du        
  26394 ****        -1.5000 -26.5000 -16.0000 Du        
  26395 ****        -1.5000 -26.2500 -16.7500 Du        
  26396 ****        -1.5000 -26.2500 -16.5000 Du        
  26397 ****        -1.5000 -26.2500 -16.2500 Du        
  26398 ****        -1.5000 -26.2500 -16.0000 Du        
  26399 ****        -1.5000 -26.2500 -15.7500 Du        
  26400 ****        -1.5000 -26.2500 -15.0000 Du        
  26401 ****        -1.5000 -26.0000 -16.7500 Du        
  26402 ****        -1.5000 -26.0000 -16.5000 Du        
  26403 ****        -1.5000 -26.0000 -16.2500 Du        
  26404 ****        -1.5000 -26.0000 -16.0000 Du        
  26405 ****        -1.5000 -26.0000 -15.7500 Du        
  26406 ****        -1.5000 -26.0000 -15.5000 Du        
  26407 ****        -1.5000 -26.0000 -15.2500 Du        
  26408 ****        -1.5000 -26.0000 -14.7500 Du        
  26409 ****        -1.5000 -25.7500 -16.5000 Du        
  26410 ****        -1.5000 -25.7500 -16.2500 Du        
  26411 ****        -1.5000 -25.7500 -16.0000 Du        
  26412 ****        -1.5000 -25.7500 -15.7500 Du        
  26413 ****        -1.5000 -25.7500 -15.5000 Du        
  26414 ****        -1.5000 -25.7500 -15.2500 Du        
  26415 ****        -1.5000 -25.7500 -15.0000 Du        
  26416 ****        -1.5000 -25.5000 -16.2500 Du        
  26417 ****        -1.5000 -25.5000 -16.0000 Du        
  26418 ****        -1.5000 -25.5000 -15.7500 Du        
  26419 ****        -1.5000 -25.5000 -15.5000 Du        
  26420 ****        -1.5000 -25.5000 -15.2500 Du        
  26421 ****        -1.5000 -25.5000 -15.0000 Du        
  26422 ****        -1.5000 -25.5000 -14.7500 Du        
  26423 ****        -1.5000 -25.5000 -14.5000 Du        
  26424 ****        -1.5000 -25.2500 -16.2500 Du        
  26425 ****        -1.5000 -25.2500 -16.0000 Du        
  26426 ****        -1.5000 -25.2500 -15.7500 Du        
  26427 ****        -1.5000 -25.2500 -15.5000 Du        
  26428 ****        -1.5000 -25.2500 -15.2500 Du        
  26429 ****        -1.5000 -25.2500 -15.0000 Du        
  26430 ****        -1.5000 -25.2500 -14.7500 Du        
  26431 ****        -1.5000 -25.2500 -14.5000 Du        
  26432 ****        -1.5000 -25.2500 -14.2500 Du        
  26433 ****        -1.5000 -25.0000 -16.2500 Du        
  26434 ****        -1.5000 -25.0000 -16.0000 Du        
  26435 ****        -1.5000 -25.0000 -15.7500 Du        
  26436 ****        -1.5000 -25.0000 -15.5000 Du        
  26437 ****        -1.5000 -25.0000 -15.2500 Du        
  26438 ****        -1.5000 -25.0000 -15.0000 Du        
  26439 ****        -1.5000 -25.0000 -14.7500 Du        
  26440 ****        -1.5000 -25.0000 -14.5000 Du        
  26441 ****        -1.5000 -25.0000 -14.2500 Du        
  26442 ****        -1.5000 -24.7500 -16.2500 Du        
  26443 ****        -1.5000 -24.7500 -16.0000 Du        
  26444 ****        -1.5000 -24.7500 -15.7500 Du        
  26445 ****        -1.5000 -24.7500 -15.5000 Du        
  26446 ****        -1.5000 -24.7500 -15.2500 Du        
  26447 ****        -1.5000 -24.7500 -15.0000 Du        
  26448 ****        -1.5000 -24.7500 -14.7500 Du        
  26449 ****        -1.5000 -24.7500 -14.5000 Du        
  26450 ****        -1.5000 -24.7500 -14.2500 Du        
  26451 ****        -1.5000 -24.5000 -16.0000 Du        
  26452 ****        -1.5000 -24.5000 -15.7500 Du        
  26453 ****        -1.5000 -24.5000 -15.5000 Du        
  26454 ****        -1.5000 -24.5000 -15.2500 Du        
  26455 ****        -1.5000 -24.5000 -15.0000 Du        
  26456 ****        -1.5000 -24.5000 -14.7500 Du        
  26457 ****        -1.5000 -24.5000 -14.5000 Du        
  26458 ****        -1.5000 -24.5000 -14.2500 Du        
  26459 ****        -1.5000 -24.5000 -14.0000 Du        
  26460 ****        -1.5000 -24.2500 -15.7500 Du        
  26461 ****        -1.5000 -24.2500 -15.5000 Du        
  26462 ****        -1.5000 -24.2500 -15.2500 Du        
  26463 ****        -1.5000 -24.2500 -15.0000 Du        
  26464 ****        -1.5000 -24.2500 -14.7500 Du        
  26465 ****        -1.5000 -24.2500 -14.5000 Du        
  26466 ****        -1.5000 -24.2500 -14.2500 Du        
  26467 ****        -1.5000 -24.2500 -14.0000 Du        
  26468 ****        -1.5000 -24.0000 -15.5000 Du        
  26469 ****        -1.5000 -24.0000 -15.2500 Du        
  26470 ****        -1.5000 -24.0000 -15.0000 Du        
  26471 ****        -1.5000 -24.0000 -14.7500 Du        
  26472 ****        -1.5000 -24.0000 -14.5000 Du        
  26473 ****        -1.5000 -24.0000 -14.2500 Du        
  26474 ****        -1.5000 -23.7500 -14.7500 Du        
  26475 ****        -1.5000 -23.7500 -14.5000 Du        
  26476 ****        -1.5000 -18.2500 -16.0000 Du        
  26477 ****        -1.5000 -18.0000 -16.2500 Du        
  26478 ****        -1.5000 -18.0000 -16.0000 Du        
  26479 ****        -1.5000 -17.7500 -16.2500 Du        
  26480 ****        -1.5000 -17.7500 -16.0000 Du        
  26481 ****        -1.5000 -17.5000 -16.5000 Du        
  26482 ****        -1.5000 -17.5000 -16.2500 Du        
  26483 ****        -1.5000 -17.5000 -16.0000 Du        
  26484 ****        -1.5000 -17.5000 -15.7500 Du        
  26485 ****        -1.5000 -17.2500 -16.5000 Du        
  26486 ****        -1.5000 -17.2500 -16.2500 Du        
  26487 ****        -1.5000 -17.2500 -16.0000 Du        
  26488 ****        -1.5000 -17.2500 -15.7500 Du        
  26489 ****        -1.5000 -17.0000 -16.5000 Du        
  26490 ****        -1.5000 -17.0000 -16.2500 Du        
  26491 ****        -1.5000 -17.0000 -16.0000 Du        
  26492 ****        -1.5000 -17.0000 -15.7500 Du        
  26493 ****        -1.5000 -16.7500 -16.5000 Du        
  26494 ****        -1.5000 -16.7500 -16.2500 Du        
  26495 ****        -1.5000 -16.7500 -16.0000 Du        
  26496 ****        -1.5000 -16.7500 -15.7500 Du        
  26497 ****        -1.5000 -16.5000 -16.5000 Du        
  26498 ****        -1.5000 -16.5000 -16.2500 Du        
  26499 ****        -1.5000 -16.5000 -16.0000 Du        
  26500 ****        -1.5000 -16.2500 -27.0000 Du        
  26501 ****        -1.5000 -16.2500 -26.7500 Du        
  26502 ****        -1.5000 -16.2500 -16.5000 Du        
  26503 ****        -1.5000 -16.2500 -16.2500 Du        
  26504 ****        -1.5000 -16.2500 -16.0000 Du        
  26505 ****        -1.5000 -16.2500 -15.7500 Du        
  26506 ****        -1.5000 -16.0000 -16.7500 Du        
  26507 ****        -1.5000 -16.0000 -16.5000 Du        
  26508 ****        -1.5000 -16.0000 -16.2500 Du        
  26509 ****        -1.5000 -16.0000 -16.0000 Du        
  26510 ****        -1.5000 -16.0000 -15.7500 Du        
  26511 ****        -1.5000 -15.7500 -16.7500 Du        
  26512 ****        -1.5000 -15.7500 -16.5000 Du        
  26513 ****        -1.5000 -15.7500 -16.2500 Du        
  26514 ****        -1.5000 -15.7500 -16.0000 Du        
  26515 ****        -1.5000 -15.5000 -16.5000 Du        
  26516 ****        -1.5000 -15.5000 -16.2500 Du        
  26517 ****        -1.5000 -10.0000 -31.2500 Du        
  26518 ****        -1.5000 -10.0000 -31.0000 Du        
  26519 ****        -1.5000 -10.0000 -30.7500 Du        
  26520 ****        -1.5000 -10.0000 -18.0000 Du        
  26521 ****        -1.5000  -9.7500 -31.7500 Du        
  26522 ****        -1.5000  -9.7500 -31.5000 Du        
  26523 ****        -1.5000  -9.7500 -31.2500 Du        
  26524 ****        -1.5000  -9.7500 -31.0000 Du        
  26525 ****        -1.5000  -9.7500 -30.7500 Du        
  26526 ****        -1.5000  -9.7500 -18.2500 Du        
  26527 ****        -1.5000  -9.7500 -18.0000 Du        
  26528 ****        -1.5000  -9.7500 -17.7500 Du        
  26529 ****        -1.5000  -9.5000 -32.0000 Du        
  26530 ****        -1.5000  -9.5000 -31.7500 Du        
  26531 ****        -1.5000  -9.5000 -31.5000 Du        
  26532 ****        -1.5000  -9.5000 -31.2500 Du        
  26533 ****        -1.5000  -9.5000 -31.0000 Du        
  26534 ****        -1.5000  -9.5000 -30.7500 Du        
  26535 ****        -1.5000  -9.5000 -18.2500 Du        
  26536 ****        -1.5000  -9.5000 -18.0000 Du        
  26537 ****        -1.5000  -9.5000 -17.7500 Du        
  26538 ****        -1.5000  -9.2500 -32.0000 Du        
  26539 ****        -1.5000  -9.2500 -31.7500 Du        
  26540 ****        -1.5000  -9.2500 -31.5000 Du        
  26541 ****        -1.5000  -9.2500 -31.2500 Du        
  26542 ****        -1.5000  -9.2500 -31.0000 Du        
  26543 ****        -1.5000  -9.2500 -30.7500 Du        
  26544 ****        -1.5000  -9.2500 -30.5000 Du        
  26545 ****        -1.5000  -9.2500 -18.5000 Du        
  26546 ****        -1.5000  -9.2500 -18.2500 Du        
  26547 ****        -1.5000  -9.2500 -18.0000 Du        
  26548 ****        -1.5000  -9.2500 -17.7500 Du        
  26549 ****        -1.5000  -9.0000 -32.0000 Du        
  26550 ****        -1.5000  -9.0000 -31.7500 Du        
  26551 ****        -1.5000  -9.0000 -31.5000 Du        
  26552 ****        -1.5000  -9.0000 -31.2500 Du        
  26553 ****        -1.5000  -9.0000 -31.0000 Du        
  26554 ****        -1.5000  -9.0000 -30.7500 Du        
  26555 ****        -1.5000  -9.0000 -30.5000 Du        
  26556 ****        -1.5000  -9.0000 -30.2500 Du        
  26557 ****        -1.5000  -9.0000 -18.5000 Du        
  26558 ****        -1.5000  -9.0000 -18.2500 Du        
  26559 ****        -1.5000  -9.0000 -18.0000 Du        
  26560 ****        -1.5000  -9.0000 -17.7500 Du        
  26561 ****        -1.5000  -8.7500 -32.0000 Du        
  26562 ****        -1.5000  -8.7500 -31.7500 Du        
  26563 ****        -1.5000  -8.7500 -31.5000 Du        
  26564 ****        -1.5000  -8.7500 -31.2500 Du        
  26565 ****        -1.5000  -8.7500 -31.0000 Du        
  26566 ****        -1.5000  -8.7500 -30.7500 Du        
  26567 ****        -1.5000  -8.7500 -30.2500 Du        
  26568 ****        -1.5000  -8.7500 -18.5000 Du        
  26569 ****        -1.5000  -8.7500 -18.2500 Du        
  26570 ****        -1.5000  -8.7500 -18.0000 Du        
  26571 ****        -1.5000  -8.7500 -17.7500 Du        
  26572 ****        -1.5000  -8.5000 -18.5000 Du        
  26573 ****        -1.5000  -8.5000 -18.2500 Du        
  26574 ****        -1.5000  -8.5000 -18.0000 Du        
  26575 ****        -1.5000  -4.5000 -28.7500 Du        
  26576 ****        -1.5000  -4.5000 -28.5000 Du        
  26577 ****        -1.5000  -4.5000 -28.2500 Du        
  26578 ****        -1.5000  -4.5000 -28.0000 Du        
  26579 ****        -1.5000  -4.5000 -27.7500 Du        
  26580 ****        -1.5000  -4.2500 -29.2500 Du        
  26581 ****        -1.5000  -4.2500 -29.0000 Du        
  26582 ****        -1.5000  -4.2500 -28.7500 Du        
  26583 ****        -1.5000  -4.2500 -28.5000 Du        
  26584 ****        -1.5000  -4.2500 -28.2500 Du        
  26585 ****        -1.5000  -4.2500 -28.0000 Du        
  26586 ****        -1.5000  -4.2500 -27.7500 Du        
  26587 ****        -1.5000  -4.0000 -29.2500 Du        
  26588 ****        -1.5000  -4.0000 -29.0000 Du        
  26589 ****        -1.5000  -4.0000 -28.7500 Du        
  26590 ****        -1.5000  -4.0000 -28.5000 Du        
  26591 ****        -1.5000  -4.0000 -28.2500 Du        
  26592 ****        -1.5000  -4.0000 -28.0000 Du        
  26593 ****        -1.5000  -4.0000 -27.7500 Du        
  26594 ****        -1.5000  -4.0000 -27.5000 Du        
  26595 ****        -1.5000  -3.7500 -29.2500 Du        
  26596 ****        -1.5000  -3.7500 -29.0000 Du        
  26597 ****        -1.5000  -3.7500 -28.7500 Du        
  26598 ****        -1.5000  -3.7500 -28.5000 Du        
  26599 ****        -1.5000  -3.7500 -28.2500 Du        
  26600 ****        -1.5000  -3.7500 -28.0000 Du        
  26601 ****        -1.5000  -3.7500 -27.7500 Du        
  26602 ****        -1.5000  -3.5000 -29.2500 Du        
  26603 ****        -1.5000  -3.5000 -29.0000 Du        
  26604 ****        -1.5000  -3.5000 -28.7500 Du        
  26605 ****        -1.5000  -3.5000 -28.5000 Du        
  26606 ****        -1.5000  -3.5000 -28.2500 Du        
  26607 ****        -1.5000  -3.5000 -28.0000 Du        
  26608 ****        -1.5000  -3.2500 -29.2500 Du        
  26609 ****        -1.5000  -3.2500 -29.0000 Du        
  26610 ****        -1.5000  -3.2500 -28.7500 Du        
  26611 ****        -1.5000  -3.2500 -28.5000 Du        
  26612 ****        -1.2500 -26.5000 -15.2500 Du        
  26613 ****        -1.2500 -26.2500 -16.0000 Du        
  26614 ****        -1.2500 -26.2500 -15.7500 Du        
  26615 ****        -1.2500 -26.2500 -15.0000 Du        
  26616 ****        -1.2500 -26.0000 -16.2500 Du        
  26617 ****        -1.2500 -26.0000 -16.0000 Du        
  26618 ****        -1.2500 -26.0000 -15.7500 Du        
  26619 ****        -1.2500 -26.0000 -15.2500 Du        
  26620 ****        -1.2500 -26.0000 -15.0000 Du        
  26621 ****        -1.2500 -26.0000 -14.7500 Du        
  26622 ****        -1.2500 -25.7500 -16.0000 Du        
  26623 ****        -1.2500 -25.7500 -15.7500 Du        
  26624 ****        -1.2500 -25.7500 -15.5000 Du        
  26625 ****        -1.2500 -25.7500 -15.2500 Du        
  26626 ****        -1.2500 -25.7500 -15.0000 Du        
  26627 ****        -1.2500 -25.7500 -14.7500 Du        
  26628 ****        -1.2500 -25.7500 -14.5000 Du        
  26629 ****        -1.2500 -25.5000 -16.0000 Du        
  26630 ****        -1.2500 -25.5000 -15.7500 Du        
  26631 ****        -1.2500 -25.5000 -15.5000 Du        
  26632 ****        -1.2500 -25.5000 -15.2500 Du        
  26633 ****        -1.2500 -25.5000 -15.0000 Du        
  26634 ****        -1.2500 -25.5000 -14.7500 Du        
  26635 ****        -1.2500 -25.5000 -14.5000 Du        
  26636 ****        -1.2500 -25.5000 -14.2500 Du        
  26637 ****        -1.2500 -25.2500 -16.2500 Du        
  26638 ****        -1.2500 -25.2500 -16.0000 Du        
  26639 ****        -1.2500 -25.2500 -15.7500 Du        
  26640 ****        -1.2500 -25.2500 -15.5000 Du        
  26641 ****        -1.2500 -25.2500 -15.2500 Du        
  26642 ****        -1.2500 -25.2500 -15.0000 Du        
  26643 ****        -1.2500 -25.2500 -14.7500 Du        
  26644 ****        -1.2500 -25.2500 -14.5000 Du        
  26645 ****        -1.2500 -25.2500 -14.2500 Du        
  26646 ****        -1.2500 -25.2500 -14.0000 Du        
  26647 ****        -1.2500 -25.0000 -16.2500 Du        
  26648 ****        -1.2500 -25.0000 -16.0000 Du        
  26649 ****        -1.2500 -25.0000 -15.7500 Du        
  26650 ****        -1.2500 -25.0000 -15.5000 Du        
  26651 ****        -1.2500 -25.0000 -15.2500 Du        
  26652 ****        -1.2500 -25.0000 -15.0000 Du        
  26653 ****        -1.2500 -25.0000 -14.7500 Du        
  26654 ****        -1.2500 -25.0000 -14.5000 Du        
  26655 ****        -1.2500 -25.0000 -14.2500 Du        
  26656 ****        -1.2500 -25.0000 -14.0000 Du        
  26657 ****        -1.2500 -24.7500 -16.0000 Du        
  26658 ****        -1.2500 -24.7500 -15.7500 Du        
  26659 ****        -1.2500 -24.7500 -15.5000 Du        
  26660 ****        -1.2500 -24.7500 -15.2500 Du        
  26661 ****        -1.2500 -24.7500 -15.0000 Du        
  26662 ****        -1.2500 -24.7500 -14.7500 Du        
  26663 ****        -1.2500 -24.7500 -14.5000 Du        
  26664 ****        -1.2500 -24.7500 -14.2500 Du        
  26665 ****        -1.2500 -24.7500 -14.0000 Du        
  26666 ****        -1.2500 -24.5000 -16.0000 Du        
  26667 ****        -1.2500 -24.5000 -15.7500 Du        
  26668 ****        -1.2500 -24.5000 -15.5000 Du        
  26669 ****        -1.2500 -24.5000 -15.2500 Du        
  26670 ****        -1.2500 -24.5000 -15.0000 Du        
  26671 ****        -1.2500 -24.5000 -14.7500 Du        
  26672 ****        -1.2500 -24.5000 -14.5000 Du        
  26673 ****        -1.2500 -24.5000 -14.2500 Du        
  26674 ****        -1.2500 -24.5000 -14.0000 Du        
  26675 ****        -1.2500 -24.2500 -16.0000 Du        
  26676 ****        -1.2500 -24.2500 -15.7500 Du        
  26677 ****        -1.2500 -24.2500 -15.5000 Du        
  26678 ****        -1.2500 -24.2500 -15.2500 Du        
  26679 ****        -1.2500 -24.2500 -15.0000 Du        
  26680 ****        -1.2500 -24.2500 -14.7500 Du        
  26681 ****        -1.2500 -24.2500 -14.5000 Du        
  26682 ****        -1.2500 -24.2500 -14.2500 Du        
  26683 ****        -1.2500 -24.2500 -14.0000 Du        
  26684 ****        -1.2500 -24.0000 -15.7500 Du        
  26685 ****        -1.2500 -24.0000 -15.5000 Du        
  26686 ****        -1.2500 -24.0000 -15.2500 Du        
  26687 ****        -1.2500 -24.0000 -15.0000 Du        
  26688 ****        -1.2500 -24.0000 -14.7500 Du        
  26689 ****        -1.2500 -24.0000 -14.5000 Du        
  26690 ****        -1.2500 -24.0000 -14.2500 Du        
  26691 ****        -1.2500 -24.0000 -14.0000 Du        
  26692 ****        -1.2500 -23.7500 -15.5000 Du        
  26693 ****        -1.2500 -23.7500 -15.2500 Du        
  26694 ****        -1.2500 -23.7500 -15.0000 Du        
  26695 ****        -1.2500 -23.7500 -14.7500 Du        
  26696 ****        -1.2500 -23.7500 -14.5000 Du        
  26697 ****        -1.2500 -23.7500 -14.2500 Du        
  26698 ****        -1.2500 -23.5000 -15.2500 Du        
  26699 ****        -1.2500 -23.5000 -15.0000 Du        
  26700 ****        -1.2500 -23.5000 -14.7500 Du        
  26701 ****        -1.2500 -23.5000 -14.5000 Du        
  26702 ****        -1.2500 -18.7500 -16.0000 Du        
  26703 ****        -1.2500 -18.7500 -15.7500 Du        
  26704 ****        -1.2500 -18.7500 -15.5000 Du        
  26705 ****        -1.2500 -18.5000 -16.0000 Du        
  26706 ****        -1.2500 -18.5000 -15.7500 Du        
  26707 ****        -1.2500 -18.5000 -15.5000 Du        
  26708 ****        -1.2500 -18.5000 -15.2500 Du        
  26709 ****        -1.2500 -18.2500 -16.2500 Du        
  26710 ****        -1.2500 -18.2500 -16.0000 Du        
  26711 ****        -1.2500 -18.2500 -15.7500 Du        
  26712 ****        -1.2500 -18.2500 -15.5000 Du        
  26713 ****        -1.2500 -18.2500 -15.2500 Du        
  26714 ****        -1.2500 -18.0000 -16.5000 Du        
  26715 ****        -1.2500 -18.0000 -16.2500 Du        
  26716 ****        -1.2500 -18.0000 -16.0000 Du        
  26717 ****        -1.2500 -18.0000 -15.7500 Du        
  26718 ****        -1.2500 -18.0000 -15.5000 Du        
  26719 ****        -1.2500 -18.0000 -15.2500 Du        
  26720 ****        -1.2500 -17.7500 -16.5000 Du        
  26721 ****        -1.2500 -17.7500 -16.2500 Du        
  26722 ****        -1.2500 -17.7500 -16.0000 Du        
  26723 ****        -1.2500 -17.7500 -15.7500 Du        
  26724 ****        -1.2500 -17.7500 -15.5000 Du        
  26725 ****        -1.2500 -17.7500 -15.2500 Du        
  26726 ****        -1.2500 -17.5000 -16.5000 Du        
  26727 ****        -1.2500 -17.5000 -16.2500 Du        
  26728 ****        -1.2500 -17.5000 -16.0000 Du        
  26729 ****        -1.2500 -17.5000 -15.7500 Du        
  26730 ****        -1.2500 -17.5000 -15.5000 Du        
  26731 ****        -1.2500 -17.2500 -16.5000 Du        
  26732 ****        -1.2500 -17.2500 -16.2500 Du        
  26733 ****        -1.2500 -17.2500 -16.0000 Du        
  26734 ****        -1.2500 -17.2500 -15.7500 Du        
  26735 ****        -1.2500 -17.2500 -15.5000 Du        
  26736 ****        -1.2500 -17.0000 -16.5000 Du        
  26737 ****        -1.2500 -17.0000 -16.2500 Du        
  26738 ****        -1.2500 -17.0000 -16.0000 Du        
  26739 ****        -1.2500 -17.0000 -15.7500 Du        
  26740 ****        -1.2500 -17.0000 -15.5000 Du        
  26741 ****        -1.2500 -16.7500 -27.2500 Du        
  26742 ****        -1.2500 -16.7500 -16.5000 Du        
  26743 ****        -1.2500 -16.7500 -16.2500 Du        
  26744 ****        -1.2500 -16.7500 -16.0000 Du        
  26745 ****        -1.2500 -16.7500 -15.7500 Du        
  26746 ****        -1.2500 -16.7500 -15.5000 Du        
  26747 ****        -1.2500 -16.5000 -27.2500 Du        
  26748 ****        -1.2500 -16.5000 -27.0000 Du        
  26749 ****        -1.2500 -16.5000 -16.5000 Du        
  26750 ****        -1.2500 -16.5000 -16.2500 Du        
  26751 ****        -1.2500 -16.5000 -16.0000 Du        
  26752 ****        -1.2500 -16.5000 -15.7500 Du        
  26753 ****        -1.2500 -16.5000 -15.5000 Du        
  26754 ****        -1.2500 -16.2500 -27.2500 Du        
  26755 ****        -1.2500 -16.2500 -27.0000 Du        
  26756 ****        -1.2500 -16.2500 -26.7500 Du        
  26757 ****        -1.2500 -16.2500 -16.7500 Du        
  26758 ****        -1.2500 -16.2500 -16.5000 Du        
  26759 ****        -1.2500 -16.2500 -16.2500 Du        
  26760 ****        -1.2500 -16.2500 -16.0000 Du        
  26761 ****        -1.2500 -16.2500 -15.7500 Du        
  26762 ****        -1.2500 -16.2500 -15.5000 Du        
  26763 ****        -1.2500 -16.0000 -27.2500 Du        
  26764 ****        -1.2500 -16.0000 -27.0000 Du        
  26765 ****        -1.2500 -16.0000 -26.7500 Du        
  26766 ****        -1.2500 -16.0000 -16.7500 Du        
  26767 ****        -1.2500 -16.0000 -16.5000 Du        
  26768 ****        -1.2500 -16.0000 -16.2500 Du        
  26769 ****        -1.2500 -16.0000 -16.0000 Du        
  26770 ****        -1.2500 -16.0000 -15.7500 Du        
  26771 ****        -1.2500 -15.7500 -16.7500 Du        
  26772 ****        -1.2500 -15.7500 -16.5000 Du        
  26773 ****        -1.2500 -15.7500 -16.2500 Du        
  26774 ****        -1.2500 -15.7500 -16.0000 Du        
  26775 ****        -1.2500 -15.7500 -15.7500 Du        
  26776 ****        -1.2500 -15.5000 -16.7500 Du        
  26777 ****        -1.2500 -15.5000 -16.5000 Du        
  26778 ****        -1.2500 -15.5000 -16.2500 Du        
  26779 ****        -1.2500 -15.5000 -16.0000 Du        
  26780 ****        -1.2500 -15.2500 -16.5000 Du        
  26781 ****        -1.2500 -15.2500 -16.2500 Du        
  26782 ****        -1.2500 -10.0000 -31.7500 Du        
  26783 ****        -1.2500 -10.0000 -31.5000 Du        
  26784 ****        -1.2500 -10.0000 -31.2500 Du        
  26785 ****        -1.2500 -10.0000 -31.0000 Du        
  26786 ****        -1.2500 -10.0000 -30.7500 Du        
  26787 ****        -1.2500 -10.0000 -18.2500 Du        
  26788 ****        -1.2500 -10.0000 -18.0000 Du        
  26789 ****        -1.2500 -10.0000 -17.7500 Du        
  26790 ****        -1.2500  -9.7500 -32.0000 Du        
  26791 ****        -1.2500  -9.7500 -31.7500 Du        
  26792 ****        -1.2500  -9.7500 -31.5000 Du        
  26793 ****        -1.2500  -9.7500 -31.2500 Du        
  26794 ****        -1.2500  -9.7500 -31.0000 Du        
  26795 ****        -1.2500  -9.7500 -18.2500 Du        
  26796 ****        -1.2500  -9.7500 -18.0000 Du        
  26797 ****        -1.2500  -9.7500 -17.7500 Du        
  26798 ****        -1.2500  -9.5000 -32.0000 Du        
  26799 ****        -1.2500  -9.5000 -31.7500 Du        
  26800 ****        -1.2500  -9.5000 -31.5000 Du        
  26801 ****        -1.2500  -9.5000 -31.2500 Du        
  26802 ****        -1.2500  -9.5000 -31.0000 Du        
  26803 ****        -1.2500  -9.5000 -30.7500 Du        
  26804 ****        -1.2500  -9.5000 -18.2500 Du        
  26805 ****        -1.2500  -9.5000 -18.0000 Du        
  26806 ****        -1.2500  -9.5000 -17.7500 Du        
  26807 ****        -1.2500  -9.5000 -17.5000 Du        
  26808 ****        -1.2500  -9.2500 -32.0000 Du        
  26809 ****        -1.2500  -9.2500 -31.7500 Du        
  26810 ****        -1.2500  -9.2500 -31.5000 Du        
  26811 ****        -1.2500  -9.2500 -31.2500 Du        
  26812 ****        -1.2500  -9.2500 -31.0000 Du        
  26813 ****        -1.2500  -9.2500 -30.7500 Du        
  26814 ****        -1.2500  -9.2500 -18.5000 Du        
  26815 ****        -1.2500  -9.2500 -18.2500 Du        
  26816 ****        -1.2500  -9.2500 -18.0000 Du        
  26817 ****        -1.2500  -9.2500 -17.7500 Du        
  26818 ****        -1.2500  -9.2500 -17.5000 Du        
  26819 ****        -1.2500  -9.0000 -32.0000 Du        
  26820 ****        -1.2500  -9.0000 -31.7500 Du        
  26821 ****        -1.2500  -9.0000 -31.5000 Du        
  26822 ****        -1.2500  -9.0000 -31.2500 Du        
  26823 ****        -1.2500  -9.0000 -31.0000 Du        
  26824 ****        -1.2500  -9.0000 -30.7500 Du        
  26825 ****        -1.2500  -9.0000 -18.5000 Du        
  26826 ****        -1.2500  -9.0000 -18.2500 Du        
  26827 ****        -1.2500  -9.0000 -18.0000 Du        
  26828 ****        -1.2500  -9.0000 -17.7500 Du        
  26829 ****        -1.2500  -9.0000 -17.5000 Du        
  26830 ****        -1.2500  -8.7500 -32.0000 Du        
  26831 ****        -1.2500  -8.7500 -31.7500 Du        
  26832 ****        -1.2500  -8.7500 -30.7500 Du        
  26833 ****        -1.2500  -8.7500 -18.5000 Du        
  26834 ****        -1.2500  -8.7500 -18.2500 Du        
  26835 ****        -1.2500  -8.7500 -18.0000 Du        
  26836 ****        -1.2500  -8.7500 -17.7500 Du        
  26837 ****        -1.2500  -8.5000 -18.5000 Du        
  26838 ****        -1.2500  -8.5000 -18.2500 Du        
  26839 ****        -1.2500  -8.5000 -18.0000 Du        
  26840 ****        -1.2500  -8.2500 -18.2500 Du        
  26841 ****        -1.2500  -4.2500 -28.7500 Du        
  26842 ****        -1.2500  -4.2500 -28.5000 Du        
  26843 ****        -1.2500  -4.2500 -28.2500 Du        
  26844 ****        -1.2500  -4.2500 -28.0000 Du        
  26845 ****        -1.2500  -4.2500 -27.7500 Du        
  26846 ****        -1.2500  -4.2500 -27.5000 Du        
  26847 ****        -1.2500  -4.2500 -19.2500 Du        
  26848 ****        -1.2500  -4.2500 -19.0000 Du        
  26849 ****        -1.2500  -4.0000 -29.2500 Du        
  26850 ****        -1.2500  -4.0000 -29.0000 Du        
  26851 ****        -1.2500  -4.0000 -28.7500 Du        
  26852 ****        -1.2500  -4.0000 -28.5000 Du        
  26853 ****        -1.2500  -4.0000 -28.2500 Du        
  26854 ****        -1.2500  -4.0000 -28.0000 Du        
  26855 ****        -1.2500  -4.0000 -27.7500 Du        
  26856 ****        -1.2500  -4.0000 -27.5000 Du        
  26857 ****        -1.2500  -4.0000 -27.2500 Du        
  26858 ****        -1.2500  -4.0000 -19.2500 Du        
  26859 ****        -1.2500  -4.0000 -19.0000 Du        
  26860 ****        -1.2500  -3.7500 -29.2500 Du        
  26861 ****        -1.2500  -3.7500 -29.0000 Du        
  26862 ****        -1.2500  -3.7500 -28.7500 Du        
  26863 ****        -1.2500  -3.7500 -28.5000 Du        
  26864 ****        -1.2500  -3.7500 -28.2500 Du        
  26865 ****        -1.2500  -3.7500 -28.0000 Du        
  26866 ****        -1.2500  -3.7500 -27.7500 Du        
  26867 ****        -1.2500  -3.7500 -27.5000 Du        
  26868 ****        -1.2500  -3.5000 -29.5000 Du        
  26869 ****        -1.2500  -3.5000 -29.2500 Du        
  26870 ****        -1.2500  -3.5000 -29.0000 Du        
  26871 ****        -1.2500  -3.5000 -28.7500 Du        
  26872 ****        -1.2500  -3.5000 -28.5000 Du        
  26873 ****        -1.2500  -3.5000 -28.2500 Du        
  26874 ****        -1.2500  -3.5000 -28.0000 Du        
  26875 ****        -1.2500  -3.5000 -27.7500 Du        
  26876 ****        -1.2500  -3.5000 -27.5000 Du        
  26877 ****        -1.2500  -3.2500 -29.5000 Du        
  26878 ****        -1.2500  -3.2500 -29.2500 Du        
  26879 ****        -1.2500  -3.2500 -29.0000 Du        
  26880 ****        -1.2500  -3.2500 -28.7500 Du        
  26881 ****        -1.2500  -3.2500 -28.5000 Du        
  26882 ****        -1.2500  -3.2500 -28.2500 Du        
  26883 ****        -1.2500  -3.2500 -28.0000 Du        
  26884 ****        -1.2500  -3.0000 -29.2500 Du        
  26885 ****        -1.2500  -3.0000 -29.0000 Du        
  26886 ****        -1.2500  -3.0000 -28.7500 Du        
  26887 ****        -1.0000 -26.2500 -15.2500 Du        
  26888 ****        -1.0000 -26.2500 -15.0000 Du        
  26889 ****        -1.0000 -26.2500 -14.7500 Du        
  26890 ****        -1.0000 -26.2500 -14.2500 Du        
  26891 ****        -1.0000 -26.0000 -15.5000 Du        
  26892 ****        -1.0000 -26.0000 -15.2500 Du        
  26893 ****        -1.0000 -26.0000 -15.0000 Du        
  26894 ****        -1.0000 -26.0000 -14.7500 Du        
  26895 ****        -1.0000 -26.0000 -14.2500 Du        
  26896 ****        -1.0000 -25.7500 -15.5000 Du        
  26897 ****        -1.0000 -25.7500 -15.2500 Du        
  26898 ****        -1.0000 -25.7500 -15.0000 Du        
  26899 ****        -1.0000 -25.7500 -14.7500 Du        
  26900 ****        -1.0000 -25.7500 -14.5000 Du        
  26901 ****        -1.0000 -25.7500 -14.2500 Du        
  26902 ****        -1.0000 -25.7500 -14.0000 Du        
  26903 ****        -1.0000 -25.5000 -15.7500 Du        
  26904 ****        -1.0000 -25.5000 -15.5000 Du        
  26905 ****        -1.0000 -25.5000 -15.2500 Du        
  26906 ****        -1.0000 -25.5000 -15.0000 Du        
  26907 ****        -1.0000 -25.5000 -14.7500 Du        
  26908 ****        -1.0000 -25.5000 -14.5000 Du        
  26909 ****        -1.0000 -25.5000 -14.2500 Du        
  26910 ****        -1.0000 -25.5000 -14.0000 Du        
  26911 ****        -1.0000 -25.2500 -16.0000 Du        
  26912 ****        -1.0000 -25.2500 -15.7500 Du        
  26913 ****        -1.0000 -25.2500 -15.5000 Du        
  26914 ****        -1.0000 -25.2500 -15.2500 Du        
  26915 ****        -1.0000 -25.2500 -15.0000 Du        
  26916 ****        -1.0000 -25.2500 -14.7500 Du        
  26917 ****        -1.0000 -25.2500 -14.5000 Du        
  26918 ****        -1.0000 -25.2500 -14.2500 Du        
  26919 ****        -1.0000 -25.2500 -14.0000 Du        
  26920 ****        -1.0000 -25.0000 -16.0000 Du        
  26921 ****        -1.0000 -25.0000 -15.7500 Du        
  26922 ****        -1.0000 -25.0000 -15.5000 Du        
  26923 ****        -1.0000 -25.0000 -15.2500 Du        
  26924 ****        -1.0000 -25.0000 -15.0000 Du        
  26925 ****        -1.0000 -25.0000 -14.7500 Du        
  26926 ****        -1.0000 -25.0000 -14.5000 Du        
  26927 ****        -1.0000 -25.0000 -14.2500 Du        
  26928 ****        -1.0000 -25.0000 -14.0000 Du        
  26929 ****        -1.0000 -24.7500 -16.0000 Du        
  26930 ****        -1.0000 -24.7500 -15.7500 Du        
  26931 ****        -1.0000 -24.7500 -15.5000 Du        
  26932 ****        -1.0000 -24.7500 -15.2500 Du        
  26933 ****        -1.0000 -24.7500 -15.0000 Du        
  26934 ****        -1.0000 -24.7500 -14.7500 Du        
  26935 ****        -1.0000 -24.7500 -14.5000 Du        
  26936 ****        -1.0000 -24.7500 -14.2500 Du        
  26937 ****        -1.0000 -24.7500 -14.0000 Du        
  26938 ****        -1.0000 -24.7500 -13.7500 Du        
  26939 ****        -1.0000 -24.5000 -16.0000 Du        
  26940 ****        -1.0000 -24.5000 -15.7500 Du        
  26941 ****        -1.0000 -24.5000 -15.5000 Du        
  26942 ****        -1.0000 -24.5000 -15.2500 Du        
  26943 ****        -1.0000 -24.5000 -15.0000 Du        
  26944 ****        -1.0000 -24.5000 -14.7500 Du        
  26945 ****        -1.0000 -24.5000 -14.5000 Du        
  26946 ****        -1.0000 -24.5000 -14.2500 Du        
  26947 ****        -1.0000 -24.5000 -14.0000 Du        
  26948 ****        -1.0000 -24.5000 -13.7500 Du        
  26949 ****        -1.0000 -24.2500 -16.0000 Du        
  26950 ****        -1.0000 -24.2500 -15.7500 Du        
  26951 ****        -1.0000 -24.2500 -15.5000 Du        
  26952 ****        -1.0000 -24.2500 -15.2500 Du        
  26953 ****        -1.0000 -24.2500 -15.0000 Du        
  26954 ****        -1.0000 -24.2500 -14.7500 Du        
  26955 ****        -1.0000 -24.2500 -14.5000 Du        
  26956 ****        -1.0000 -24.2500 -14.2500 Du        
  26957 ****        -1.0000 -24.2500 -14.0000 Du        
  26958 ****        -1.0000 -24.2500 -13.7500 Du        
  26959 ****        -1.0000 -24.0000 -16.0000 Du        
  26960 ****        -1.0000 -24.0000 -15.7500 Du        
  26961 ****        -1.0000 -24.0000 -15.5000 Du        
  26962 ****        -1.0000 -24.0000 -15.2500 Du        
  26963 ****        -1.0000 -24.0000 -15.0000 Du        
  26964 ****        -1.0000 -24.0000 -14.7500 Du        
  26965 ****        -1.0000 -24.0000 -14.5000 Du        
  26966 ****        -1.0000 -24.0000 -14.2500 Du        
  26967 ****        -1.0000 -24.0000 -14.0000 Du        
  26968 ****        -1.0000 -23.7500 -15.7500 Du        
  26969 ****        -1.0000 -23.7500 -15.5000 Du        
  26970 ****        -1.0000 -23.7500 -15.2500 Du        
  26971 ****        -1.0000 -23.7500 -15.0000 Du        
  26972 ****        -1.0000 -23.7500 -14.7500 Du        
  26973 ****        -1.0000 -23.7500 -14.5000 Du        
  26974 ****        -1.0000 -23.7500 -14.2500 Du        
  26975 ****        -1.0000 -23.7500 -14.0000 Du        
  26976 ****        -1.0000 -23.5000 -15.5000 Du        
  26977 ****        -1.0000 -23.5000 -15.2500 Du        
  26978 ****        -1.0000 -23.5000 -15.0000 Du        
  26979 ****        -1.0000 -23.5000 -14.7500 Du        
  26980 ****        -1.0000 -23.5000 -14.5000 Du        
  26981 ****        -1.0000 -23.5000 -14.2500 Du        
  26982 ****        -1.0000 -23.2500 -15.5000 Du        
  26983 ****        -1.0000 -23.2500 -15.2500 Du        
  26984 ****        -1.0000 -23.2500 -15.0000 Du        
  26985 ****        -1.0000 -23.2500 -14.7500 Du        
  26986 ****        -1.0000 -23.2500 -14.5000 Du        
  26987 ****        -1.0000 -23.0000 -15.2500 Du        
  26988 ****        -1.0000 -23.0000 -15.0000 Du        
  26989 ****        -1.0000 -23.0000 -14.7500 Du        
  26990 ****        -1.0000 -22.7500 -15.0000 Du        
  26991 ****        -1.0000 -19.7500 -15.2500 Du        
  26992 ****        -1.0000 -19.5000 -15.5000 Du        
  26993 ****        -1.0000 -19.5000 -15.2500 Du        
  26994 ****        -1.0000 -19.2500 -16.0000 Du        
  26995 ****        -1.0000 -19.2500 -15.7500 Du        
  26996 ****        -1.0000 -19.2500 -15.5000 Du        
  26997 ****        -1.0000 -19.2500 -15.2500 Du        
  26998 ****        -1.0000 -19.2500 -15.0000 Du        
  26999 ****        -1.0000 -19.0000 -16.0000 Du        
  27000 ****        -1.0000 -19.0000 -15.7500 Du        
  27001 ****        -1.0000 -19.0000 -15.5000 Du        
  27002 ****        -1.0000 -19.0000 -15.2500 Du        
  27003 ****        -1.0000 -19.0000 -15.0000 Du        
  27004 ****        -1.0000 -18.7500 -16.2500 Du        
  27005 ****        -1.0000 -18.7500 -16.0000 Du        
  27006 ****        -1.0000 -18.7500 -15.7500 Du        
  27007 ****        -1.0000 -18.7500 -15.5000 Du        
  27008 ****        -1.0000 -18.7500 -15.2500 Du        
  27009 ****        -1.0000 -18.5000 -16.2500 Du        
  27010 ****        -1.0000 -18.5000 -16.0000 Du        
  27011 ****        -1.0000 -18.5000 -15.7500 Du        
  27012 ****        -1.0000 -18.5000 -15.5000 Du        
  27013 ****        -1.0000 -18.5000 -15.2500 Du        
  27014 ****        -1.0000 -18.2500 -16.2500 Du        
  27015 ****        -1.0000 -18.2500 -16.0000 Du        
  27016 ****        -1.0000 -18.2500 -15.7500 Du        
  27017 ****        -1.0000 -18.2500 -15.5000 Du        
  27018 ****        -1.0000 -18.2500 -15.2500 Du        
  27019 ****        -1.0000 -18.0000 -16.5000 Du        
  27020 ****        -1.0000 -18.0000 -16.2500 Du        
  27021 ****        -1.0000 -18.0000 -16.0000 Du        
  27022 ****        -1.0000 -18.0000 -15.7500 Du        
  27023 ****        -1.0000 -18.0000 -15.5000 Du        
  27024 ****        -1.0000 -18.0000 -15.2500 Du        
  27025 ****        -1.0000 -18.0000 -15.0000 Du        
  27026 ****        -1.0000 -17.7500 -16.2500 Du        
  27027 ****        -1.0000 -17.7500 -16.0000 Du        
  27028 ****        -1.0000 -17.7500 -15.7500 Du        
  27029 ****        -1.0000 -17.7500 -15.5000 Du        
  27030 ****        -1.0000 -17.7500 -15.2500 Du        
  27031 ****        -1.0000 -17.5000 -16.5000 Du        
  27032 ****        -1.0000 -17.5000 -16.2500 Du        
  27033 ****        -1.0000 -17.5000 -16.0000 Du        
  27034 ****        -1.0000 -17.5000 -15.7500 Du        
  27035 ****        -1.0000 -17.5000 -15.5000 Du        
  27036 ****        -1.0000 -17.5000 -15.2500 Du        
  27037 ****        -1.0000 -17.2500 -16.5000 Du        
  27038 ****        -1.0000 -17.2500 -16.2500 Du        
  27039 ****        -1.0000 -17.2500 -16.0000 Du        
  27040 ****        -1.0000 -17.2500 -15.7500 Du        
  27041 ****        -1.0000 -17.2500 -15.5000 Du        
  27042 ****        -1.0000 -17.2500 -15.2500 Du        
  27043 ****        -1.0000 -17.0000 -27.7500 Du        
  27044 ****        -1.0000 -17.0000 -16.5000 Du        
  27045 ****        -1.0000 -17.0000 -16.2500 Du        
  27046 ****        -1.0000 -17.0000 -16.0000 Du        
  27047 ****        -1.0000 -17.0000 -15.7500 Du        
  27048 ****        -1.0000 -17.0000 -15.5000 Du        
  27049 ****        -1.0000 -17.0000 -15.2500 Du        
  27050 ****        -1.0000 -16.7500 -27.7500 Du        
  27051 ****        -1.0000 -16.7500 -27.5000 Du        
  27052 ****        -1.0000 -16.7500 -27.2500 Du        
  27053 ****        -1.0000 -16.7500 -16.5000 Du        
  27054 ****        -1.0000 -16.7500 -16.2500 Du        
  27055 ****        -1.0000 -16.7500 -16.0000 Du        
  27056 ****        -1.0000 -16.7500 -15.7500 Du        
  27057 ****        -1.0000 -16.7500 -15.5000 Du        
  27058 ****        -1.0000 -16.5000 -27.7500 Du        
  27059 ****        -1.0000 -16.5000 -27.5000 Du        
  27060 ****        -1.0000 -16.5000 -27.2500 Du        
  27061 ****        -1.0000 -16.5000 -27.0000 Du        
  27062 ****        -1.0000 -16.5000 -16.5000 Du        
  27063 ****        -1.0000 -16.5000 -16.2500 Du        
  27064 ****        -1.0000 -16.5000 -16.0000 Du        
  27065 ****        -1.0000 -16.5000 -15.7500 Du        
  27066 ****        -1.0000 -16.5000 -15.5000 Du        
  27067 ****        -1.0000 -16.2500 -27.7500 Du        
  27068 ****        -1.0000 -16.2500 -27.5000 Du        
  27069 ****        -1.0000 -16.2500 -27.2500 Du        
  27070 ****        -1.0000 -16.2500 -27.0000 Du        
  27071 ****        -1.0000 -16.2500 -26.7500 Du        
  27072 ****        -1.0000 -16.2500 -16.5000 Du        
  27073 ****        -1.0000 -16.2500 -16.2500 Du        
  27074 ****        -1.0000 -16.2500 -16.0000 Du        
  27075 ****        -1.0000 -16.2500 -15.7500 Du        
  27076 ****        -1.0000 -16.0000 -27.7500 Du        
  27077 ****        -1.0000 -16.0000 -27.5000 Du        
  27078 ****        -1.0000 -16.0000 -27.2500 Du        
  27079 ****        -1.0000 -16.0000 -27.0000 Du        
  27080 ****        -1.0000 -16.0000 -26.7500 Du        
  27081 ****        -1.0000 -16.0000 -16.7500 Du        
  27082 ****        -1.0000 -16.0000 -16.5000 Du        
  27083 ****        -1.0000 -16.0000 -16.2500 Du        
  27084 ****        -1.0000 -16.0000 -16.0000 Du        
  27085 ****        -1.0000 -16.0000 -15.7500 Du        
  27086 ****        -1.0000 -15.7500 -27.7500 Du        
  27087 ****        -1.0000 -15.7500 -27.2500 Du        
  27088 ****        -1.0000 -15.7500 -27.0000 Du        
  27089 ****        -1.0000 -15.7500 -26.7500 Du        
  27090 ****        -1.0000 -15.7500 -16.5000 Du        
  27091 ****        -1.0000 -15.7500 -16.2500 Du        
  27092 ****        -1.0000 -15.7500 -16.0000 Du        
  27093 ****        -1.0000 -15.5000 -16.5000 Du        
  27094 ****        -1.0000 -15.5000 -16.2500 Du        
  27095 ****        -1.0000 -15.5000 -16.0000 Du        
  27096 ****        -1.0000 -15.2500 -16.7500 Du        
  27097 ****        -1.0000 -15.2500 -16.5000 Du        
  27098 ****        -1.0000 -15.2500 -16.2500 Du        
  27099 ****        -1.0000 -15.0000 -16.5000 Du        
  27100 ****        -1.0000 -10.0000 -31.7500 Du        
  27101 ****        -1.0000 -10.0000 -18.0000 Du        
  27102 ****        -1.0000 -10.0000 -17.7500 Du        
  27103 ****        -1.0000  -9.7500 -32.0000 Du        
  27104 ****        -1.0000  -9.7500 -31.7500 Du        
  27105 ****        -1.0000  -9.7500 -31.5000 Du        
  27106 ****        -1.0000  -9.7500 -31.2500 Du        
  27107 ****        -1.0000  -9.7500 -18.2500 Du        
  27108 ****        -1.0000  -9.7500 -18.0000 Du        
  27109 ****        -1.0000  -9.7500 -17.7500 Du        
  27110 ****        -1.0000  -9.7500 -17.5000 Du        
  27111 ****        -1.0000  -9.5000 -32.0000 Du        
  27112 ****        -1.0000  -9.5000 -31.7500 Du        
  27113 ****        -1.0000  -9.5000 -31.5000 Du        
  27114 ****        -1.0000  -9.5000 -31.2500 Du        
  27115 ****        -1.0000  -9.5000 -31.0000 Du        
  27116 ****        -1.0000  -9.5000 -18.2500 Du        
  27117 ****        -1.0000  -9.5000 -18.0000 Du        
  27118 ****        -1.0000  -9.5000 -17.7500 Du        
  27119 ****        -1.0000  -9.5000 -17.5000 Du        
  27120 ****        -1.0000  -9.2500 -32.0000 Du        
  27121 ****        -1.0000  -9.2500 -31.7500 Du        
  27122 ****        -1.0000  -9.2500 -31.5000 Du        
  27123 ****        -1.0000  -9.2500 -31.2500 Du        
  27124 ****        -1.0000  -9.2500 -31.0000 Du        
  27125 ****        -1.0000  -9.2500 -30.7500 Du        
  27126 ****        -1.0000  -9.2500 -18.2500 Du        
  27127 ****        -1.0000  -9.2500 -18.0000 Du        
  27128 ****        -1.0000  -9.2500 -17.7500 Du        
  27129 ****        -1.0000  -9.2500 -17.5000 Du        
  27130 ****        -1.0000  -9.0000 -32.0000 Du        
  27131 ****        -1.0000  -9.0000 -31.7500 Du        
  27132 ****        -1.0000  -9.0000 -31.5000 Du        
  27133 ****        -1.0000  -9.0000 -31.2500 Du        
  27134 ****        -1.0000  -9.0000 -31.0000 Du        
  27135 ****        -1.0000  -9.0000 -18.5000 Du        
  27136 ****        -1.0000  -9.0000 -18.2500 Du        
  27137 ****        -1.0000  -9.0000 -18.0000 Du        
  27138 ****        -1.0000  -9.0000 -17.7500 Du        
  27139 ****        -1.0000  -9.0000 -17.5000 Du        
  27140 ****        -1.0000  -8.7500 -18.5000 Du        
  27141 ****        -1.0000  -8.7500 -18.2500 Du        
  27142 ****        -1.0000  -8.7500 -18.0000 Du        
  27143 ****        -1.0000  -8.7500 -17.7500 Du        
  27144 ****        -1.0000  -8.7500 -17.5000 Du        
  27145 ****        -1.0000  -8.5000 -18.2500 Du        
  27146 ****        -1.0000  -8.5000 -18.0000 Du        
  27147 ****        -1.0000  -8.5000 -17.7500 Du        
  27148 ****        -1.0000  -8.2500 -18.2500 Du        
  27149 ****        -1.0000  -4.2500 -28.0000 Du        
  27150 ****        -1.0000  -4.2500 -27.7500 Du        
  27151 ****        -1.0000  -4.2500 -19.5000 Du        
  27152 ****        -1.0000  -4.2500 -19.2500 Du        
  27153 ****        -1.0000  -4.2500 -19.0000 Du        
  27154 ****        -1.0000  -4.0000 -29.0000 Du        
  27155 ****        -1.0000  -4.0000 -28.7500 Du        
  27156 ****        -1.0000  -4.0000 -28.5000 Du        
  27157 ****        -1.0000  -4.0000 -28.2500 Du        
  27158 ****        -1.0000  -4.0000 -28.0000 Du        
  27159 ****        -1.0000  -4.0000 -27.7500 Du        
  27160 ****        -1.0000  -4.0000 -27.5000 Du        
  27161 ****        -1.0000  -4.0000 -27.2500 Du        
  27162 ****        -1.0000  -4.0000 -19.2500 Du        
  27163 ****        -1.0000  -4.0000 -19.0000 Du        
  27164 ****        -1.0000  -3.7500 -29.2500 Du        
  27165 ****        -1.0000  -3.7500 -29.0000 Du        
  27166 ****        -1.0000  -3.7500 -28.7500 Du        
  27167 ****        -1.0000  -3.7500 -28.5000 Du        
  27168 ****        -1.0000  -3.7500 -28.2500 Du        
  27169 ****        -1.0000  -3.7500 -28.0000 Du        
  27170 ****        -1.0000  -3.7500 -27.7500 Du        
  27171 ****        -1.0000  -3.7500 -27.5000 Du        
  27172 ****        -1.0000  -3.7500 -27.2500 Du        
  27173 ****        -1.0000  -3.5000 -29.5000 Du        
  27174 ****        -1.0000  -3.5000 -29.2500 Du        
  27175 ****        -1.0000  -3.5000 -29.0000 Du        
  27176 ****        -1.0000  -3.5000 -28.7500 Du        
  27177 ****        -1.0000  -3.5000 -28.5000 Du        
  27178 ****        -1.0000  -3.5000 -28.2500 Du        
  27179 ****        -1.0000  -3.5000 -28.0000 Du        
  27180 ****        -1.0000  -3.5000 -27.7500 Du        
  27181 ****        -1.0000  -3.5000 -27.5000 Du        
  27182 ****        -1.0000  -3.5000 -27.2500 Du        
  27183 ****        -1.0000  -3.2500 -29.5000 Du        
  27184 ****        -1.0000  -3.2500 -29.2500 Du        
  27185 ****        -1.0000  -3.2500 -29.0000 Du        
  27186 ****        -1.0000  -3.2500 -28.7500 Du        
  27187 ****        -1.0000  -3.2500 -28.5000 Du        
  27188 ****        -1.0000  -3.2500 -28.2500 Du        
  27189 ****        -1.0000  -3.2500 -28.0000 Du        
  27190 ****        -1.0000  -3.2500 -27.7500 Du        
  27191 ****        -1.0000  -3.0000 -29.5000 Du        
  27192 ****        -1.0000  -3.0000 -29.2500 Du        
  27193 ****        -1.0000  -3.0000 -29.0000 Du        
  27194 ****        -1.0000  -3.0000 -28.7500 Du        
  27195 ****        -1.0000  -3.0000 -28.5000 Du        
  27196 ****        -1.0000  -3.0000 -28.2500 Du        
  27197 ****        -1.0000  -2.7500 -29.2500 Du        
  27198 ****        -1.0000  -2.7500 -29.0000 Du        
  27199 ****        -0.7500 -27.7500 -14.0000 Du        
  27200 ****        -0.7500 -27.7500 -13.7500 Du        
  27201 ****        -0.7500 -27.5000 -14.0000 Du        
  27202 ****        -0.7500 -27.5000 -13.7500 Du        
  27203 ****        -0.7500 -27.2500 -14.0000 Du        
  27204 ****        -0.7500 -27.0000 -14.0000 Du        
  27205 ****        -0.7500 -26.7500 -14.0000 Du        
  27206 ****        -0.7500 -26.5000 -14.2500 Du        
  27207 ****        -0.7500 -26.2500 -15.2500 Du        
  27208 ****        -0.7500 -26.2500 -15.0000 Du        
  27209 ****        -0.7500 -26.2500 -14.7500 Du        
  27210 ****        -0.7500 -26.2500 -14.5000 Du        
  27211 ****        -0.7500 -26.2500 -14.2500 Du        
  27212 ****        -0.7500 -26.2500 -14.0000 Du        
  27213 ****        -0.7500 -26.0000 -15.2500 Du        
  27214 ****        -0.7500 -26.0000 -15.0000 Du        
  27215 ****        -0.7500 -26.0000 -14.7500 Du        
  27216 ****        -0.7500 -26.0000 -14.5000 Du        
  27217 ****        -0.7500 -26.0000 -14.2500 Du        
  27218 ****        -0.7500 -26.0000 -14.0000 Du        
  27219 ****        -0.7500 -25.7500 -15.2500 Du        
  27220 ****        -0.7500 -25.7500 -15.0000 Du        
  27221 ****        -0.7500 -25.7500 -14.7500 Du        
  27222 ****        -0.7500 -25.7500 -14.5000 Du        
  27223 ****        -0.7500 -25.7500 -14.2500 Du        
  27224 ****        -0.7500 -25.7500 -14.0000 Du        
  27225 ****        -0.7500 -25.5000 -15.2500 Du        
  27226 ****        -0.7500 -25.5000 -15.0000 Du        
  27227 ****        -0.7500 -25.5000 -14.7500 Du        
  27228 ****        -0.7500 -25.5000 -14.5000 Du        
  27229 ****        -0.7500 -25.5000 -14.2500 Du        
  27230 ****        -0.7500 -25.5000 -14.0000 Du        
  27231 ****        -0.7500 -25.5000 -13.7500 Du        
  27232 ****        -0.7500 -25.2500 -15.7500 Du        
  27233 ****        -0.7500 -25.2500 -15.5000 Du        
  27234 ****        -0.7500 -25.2500 -15.2500 Du        
  27235 ****        -0.7500 -25.2500 -15.0000 Du        
  27236 ****        -0.7500 -25.2500 -14.7500 Du        
  27237 ****        -0.7500 -25.2500 -14.5000 Du        
  27238 ****        -0.7500 -25.2500 -14.2500 Du        
  27239 ****        -0.7500 -25.2500 -14.0000 Du        
  27240 ****        -0.7500 -25.2500 -13.7500 Du        
  27241 ****        -0.7500 -25.0000 -15.7500 Du        
  27242 ****        -0.7500 -25.0000 -15.5000 Du        
  27243 ****        -0.7500 -25.0000 -15.2500 Du        
  27244 ****        -0.7500 -25.0000 -15.0000 Du        
  27245 ****        -0.7500 -25.0000 -14.7500 Du        
  27246 ****        -0.7500 -25.0000 -14.5000 Du        
  27247 ****        -0.7500 -25.0000 -14.2500 Du        
  27248 ****        -0.7500 -25.0000 -14.0000 Du        
  27249 ****        -0.7500 -25.0000 -13.7500 Du        
  27250 ****        -0.7500 -24.7500 -15.7500 Du        
  27251 ****        -0.7500 -24.7500 -15.5000 Du        
  27252 ****        -0.7500 -24.7500 -15.2500 Du        
  27253 ****        -0.7500 -24.7500 -15.0000 Du        
  27254 ****        -0.7500 -24.7500 -14.7500 Du        
  27255 ****        -0.7500 -24.7500 -14.5000 Du        
  27256 ****        -0.7500 -24.7500 -14.2500 Du        
  27257 ****        -0.7500 -24.7500 -14.0000 Du        
  27258 ****        -0.7500 -24.7500 -13.7500 Du        
  27259 ****        -0.7500 -24.5000 -15.7500 Du        
  27260 ****        -0.7500 -24.5000 -15.5000 Du        
  27261 ****        -0.7500 -24.5000 -15.2500 Du        
  27262 ****        -0.7500 -24.5000 -15.0000 Du        
  27263 ****        -0.7500 -24.5000 -14.7500 Du        
  27264 ****        -0.7500 -24.5000 -14.5000 Du        
  27265 ****        -0.7500 -24.5000 -14.2500 Du        
  27266 ****        -0.7500 -24.5000 -14.0000 Du        
  27267 ****        -0.7500 -24.5000 -13.7500 Du        
  27268 ****        -0.7500 -24.2500 -16.0000 Du        
  27269 ****        -0.7500 -24.2500 -15.7500 Du        
  27270 ****        -0.7500 -24.2500 -15.5000 Du        
  27271 ****        -0.7500 -24.2500 -15.2500 Du        
  27272 ****        -0.7500 -24.2500 -15.0000 Du        
  27273 ****        -0.7500 -24.2500 -14.7500 Du        
  27274 ****        -0.7500 -24.2500 -14.5000 Du        
  27275 ****        -0.7500 -24.2500 -14.2500 Du        
  27276 ****        -0.7500 -24.2500 -14.0000 Du        
  27277 ****        -0.7500 -24.2500 -13.7500 Du        
  27278 ****        -0.7500 -24.0000 -16.0000 Du        
  27279 ****        -0.7500 -24.0000 -15.7500 Du        
  27280 ****        -0.7500 -24.0000 -15.5000 Du        
  27281 ****        -0.7500 -24.0000 -15.2500 Du        
  27282 ****        -0.7500 -24.0000 -15.0000 Du        
  27283 ****        -0.7500 -24.0000 -14.7500 Du        
  27284 ****        -0.7500 -24.0000 -14.5000 Du        
  27285 ****        -0.7500 -24.0000 -14.2500 Du        
  27286 ****        -0.7500 -24.0000 -14.0000 Du        
  27287 ****        -0.7500 -23.7500 -16.0000 Du        
  27288 ****        -0.7500 -23.7500 -15.7500 Du        
  27289 ****        -0.7500 -23.7500 -15.5000 Du        
  27290 ****        -0.7500 -23.7500 -15.2500 Du        
  27291 ****        -0.7500 -23.7500 -15.0000 Du        
  27292 ****        -0.7500 -23.7500 -14.7500 Du        
  27293 ****        -0.7500 -23.7500 -14.5000 Du        
  27294 ****        -0.7500 -23.7500 -14.2500 Du        
  27295 ****        -0.7500 -23.7500 -14.0000 Du        
  27296 ****        -0.7500 -23.5000 -15.7500 Du        
  27297 ****        -0.7500 -23.5000 -15.5000 Du        
  27298 ****        -0.7500 -23.5000 -15.2500 Du        
  27299 ****        -0.7500 -23.5000 -15.0000 Du        
  27300 ****        -0.7500 -23.5000 -14.7500 Du        
  27301 ****        -0.7500 -23.5000 -14.5000 Du        
  27302 ****        -0.7500 -23.5000 -14.2500 Du        
  27303 ****        -0.7500 -23.2500 -15.7500 Du        
  27304 ****        -0.7500 -23.2500 -15.5000 Du        
  27305 ****        -0.7500 -23.2500 -15.2500 Du        
  27306 ****        -0.7500 -23.2500 -15.0000 Du        
  27307 ****        -0.7500 -23.2500 -14.7500 Du        
  27308 ****        -0.7500 -23.2500 -14.5000 Du        
  27309 ****        -0.7500 -23.0000 -15.7500 Du        
  27310 ****        -0.7500 -23.0000 -15.5000 Du        
  27311 ****        -0.7500 -23.0000 -15.2500 Du        
  27312 ****        -0.7500 -23.0000 -15.0000 Du        
  27313 ****        -0.7500 -23.0000 -14.7500 Du        
  27314 ****        -0.7500 -23.0000 -14.5000 Du        
  27315 ****        -0.7500 -22.7500 -15.7500 Du        
  27316 ****        -0.7500 -22.7500 -15.5000 Du        
  27317 ****        -0.7500 -22.7500 -15.2500 Du        
  27318 ****        -0.7500 -22.7500 -15.0000 Du        
  27319 ****        -0.7500 -22.7500 -14.7500 Du        
  27320 ****        -0.7500 -22.5000 -15.2500 Du        
  27321 ****        -0.7500 -22.5000 -15.0000 Du        
  27322 ****        -0.7500 -22.5000 -14.7500 Du        
  27323 ****        -0.7500 -22.2500 -15.2500 Du        
  27324 ****        -0.7500 -22.2500 -15.0000 Du        
  27325 ****        -0.7500 -22.2500 -14.7500 Du        
  27326 ****        -0.7500 -22.0000 -15.2500 Du        
  27327 ****        -0.7500 -22.0000 -15.0000 Du        
  27328 ****        -0.7500 -22.0000 -14.7500 Du        
  27329 ****        -0.7500 -21.7500 -15.2500 Du        
  27330 ****        -0.7500 -21.7500 -15.0000 Du        
  27331 ****        -0.7500 -21.5000 -15.2500 Du        
  27332 ****        -0.7500 -21.2500 -15.2500 Du        
  27333 ****        -0.7500 -21.2500 -15.0000 Du        
  27334 ****        -0.7500 -21.0000 -15.2500 Du        
  27335 ****        -0.7500 -21.0000 -15.0000 Du        
  27336 ****        -0.7500 -20.7500 -15.2500 Du        
  27337 ****        -0.7500 -20.7500 -15.0000 Du        
  27338 ****        -0.7500 -20.5000 -15.2500 Du        
  27339 ****        -0.7500 -20.5000 -15.0000 Du        
  27340 ****        -0.7500 -20.2500 -15.2500 Du        
  27341 ****        -0.7500 -20.2500 -15.0000 Du        
  27342 ****        -0.7500 -20.0000 -15.5000 Du        
  27343 ****        -0.7500 -20.0000 -15.2500 Du        
  27344 ****        -0.7500 -20.0000 -15.0000 Du        
  27345 ****        -0.7500 -19.7500 -15.7500 Du        
  27346 ****        -0.7500 -19.7500 -15.5000 Du        
  27347 ****        -0.7500 -19.7500 -15.2500 Du        
  27348 ****        -0.7500 -19.7500 -15.0000 Du        
  27349 ****        -0.7500 -19.5000 -15.7500 Du        
  27350 ****        -0.7500 -19.5000 -15.5000 Du        
  27351 ****        -0.7500 -19.5000 -15.2500 Du        
  27352 ****        -0.7500 -19.5000 -15.0000 Du        
  27353 ****        -0.7500 -19.2500 -16.0000 Du        
  27354 ****        -0.7500 -19.2500 -15.7500 Du        
  27355 ****        -0.7500 -19.2500 -15.5000 Du        
  27356 ****        -0.7500 -19.2500 -15.2500 Du        
  27357 ****        -0.7500 -19.2500 -15.0000 Du        
  27358 ****        -0.7500 -19.0000 -16.2500 Du        
  27359 ****        -0.7500 -19.0000 -16.0000 Du        
  27360 ****        -0.7500 -19.0000 -15.7500 Du        
  27361 ****        -0.7500 -19.0000 -15.5000 Du        
  27362 ****        -0.7500 -19.0000 -15.2500 Du        
  27363 ****        -0.7500 -19.0000 -15.0000 Du        
  27364 ****        -0.7500 -18.7500 -16.2500 Du        
  27365 ****        -0.7500 -18.7500 -16.0000 Du        
  27366 ****        -0.7500 -18.7500 -15.7500 Du        
  27367 ****        -0.7500 -18.7500 -15.5000 Du        
  27368 ****        -0.7500 -18.7500 -15.2500 Du        
  27369 ****        -0.7500 -18.7500 -15.0000 Du        
  27370 ****        -0.7500 -18.5000 -16.2500 Du        
  27371 ****        -0.7500 -18.5000 -16.0000 Du        
  27372 ****        -0.7500 -18.5000 -15.7500 Du        
  27373 ****        -0.7500 -18.5000 -15.5000 Du        
  27374 ****        -0.7500 -18.5000 -15.2500 Du        
  27375 ****        -0.7500 -18.5000 -15.0000 Du        
  27376 ****        -0.7500 -18.2500 -16.2500 Du        
  27377 ****        -0.7500 -18.2500 -16.0000 Du        
  27378 ****        -0.7500 -18.2500 -15.7500 Du        
  27379 ****        -0.7500 -18.2500 -15.5000 Du        
  27380 ****        -0.7500 -18.2500 -15.2500 Du        
  27381 ****        -0.7500 -18.2500 -15.0000 Du        
  27382 ****        -0.7500 -18.0000 -16.2500 Du        
  27383 ****        -0.7500 -18.0000 -16.0000 Du        
  27384 ****        -0.7500 -18.0000 -15.7500 Du        
  27385 ****        -0.7500 -18.0000 -15.5000 Du        
  27386 ****        -0.7500 -18.0000 -15.2500 Du        
  27387 ****        -0.7500 -18.0000 -15.0000 Du        
  27388 ****        -0.7500 -17.7500 -16.2500 Du        
  27389 ****        -0.7500 -17.7500 -16.0000 Du        
  27390 ****        -0.7500 -17.7500 -15.7500 Du        
  27391 ****        -0.7500 -17.7500 -15.5000 Du        
  27392 ****        -0.7500 -17.7500 -15.2500 Du        
  27393 ****        -0.7500 -17.7500 -15.0000 Du        
  27394 ****        -0.7500 -17.5000 -16.5000 Du        
  27395 ****        -0.7500 -17.5000 -16.2500 Du        
  27396 ****        -0.7500 -17.5000 -16.0000 Du        
  27397 ****        -0.7500 -17.5000 -15.7500 Du        
  27398 ****        -0.7500 -17.5000 -15.5000 Du        
  27399 ****        -0.7500 -17.5000 -15.2500 Du        
  27400 ****        -0.7500 -17.2500 -28.0000 Du        
  27401 ****        -0.7500 -17.2500 -27.7500 Du        
  27402 ****        -0.7500 -17.2500 -16.5000 Du        
  27403 ****        -0.7500 -17.2500 -16.2500 Du        
  27404 ****        -0.7500 -17.2500 -16.0000 Du        
  27405 ****        -0.7500 -17.2500 -15.7500 Du        
  27406 ****        -0.7500 -17.2500 -15.5000 Du        
  27407 ****        -0.7500 -17.2500 -15.2500 Du        
  27408 ****        -0.7500 -17.0000 -28.0000 Du        
  27409 ****        -0.7500 -17.0000 -27.7500 Du        
  27410 ****        -0.7500 -17.0000 -16.2500 Du        
  27411 ****        -0.7500 -17.0000 -16.0000 Du        
  27412 ****        -0.7500 -17.0000 -15.7500 Du        
  27413 ****        -0.7500 -17.0000 -15.5000 Du        
  27414 ****        -0.7500 -17.0000 -15.2500 Du        
  27415 ****        -0.7500 -16.7500 -28.0000 Du        
  27416 ****        -0.7500 -16.7500 -27.7500 Du        
  27417 ****        -0.7500 -16.7500 -27.5000 Du        
  27418 ****        -0.7500 -16.7500 -27.2500 Du        
  27419 ****        -0.7500 -16.7500 -16.2500 Du        
  27420 ****        -0.7500 -16.7500 -16.0000 Du        
  27421 ****        -0.7500 -16.7500 -15.7500 Du        
  27422 ****        -0.7500 -16.7500 -15.5000 Du        
  27423 ****        -0.7500 -16.5000 -28.0000 Du        
  27424 ****        -0.7500 -16.5000 -27.7500 Du        
  27425 ****        -0.7500 -16.5000 -27.5000 Du        
  27426 ****        -0.7500 -16.5000 -27.2500 Du        
  27427 ****        -0.7500 -16.5000 -27.0000 Du        
  27428 ****        -0.7500 -16.5000 -16.2500 Du        
  27429 ****        -0.7500 -16.5000 -16.0000 Du        
  27430 ****        -0.7500 -16.2500 -28.0000 Du        
  27431 ****        -0.7500 -16.2500 -27.7500 Du        
  27432 ****        -0.7500 -16.2500 -27.5000 Du        
  27433 ****        -0.7500 -16.2500 -27.2500 Du        
  27434 ****        -0.7500 -16.2500 -27.0000 Du        
  27435 ****        -0.7500 -16.2500 -26.7500 Du        
  27436 ****        -0.7500 -16.2500 -16.2500 Du        
  27437 ****        -0.7500 -16.2500 -16.0000 Du        
  27438 ****        -0.7500 -16.0000 -28.0000 Du        
  27439 ****        -0.7500 -16.0000 -27.7500 Du        
  27440 ****        -0.7500 -16.0000 -27.5000 Du        
  27441 ****        -0.7500 -16.0000 -27.2500 Du        
  27442 ****        -0.7500 -16.0000 -27.0000 Du        
  27443 ****        -0.7500 -16.0000 -26.7500 Du        
  27444 ****        -0.7500 -16.0000 -16.5000 Du        
  27445 ****        -0.7500 -16.0000 -16.2500 Du        
  27446 ****        -0.7500 -16.0000 -16.0000 Du        
  27447 ****        -0.7500 -15.7500 -28.0000 Du        
  27448 ****        -0.7500 -15.7500 -27.7500 Du        
  27449 ****        -0.7500 -15.7500 -27.2500 Du        
  27450 ****        -0.7500 -15.7500 -27.0000 Du        
  27451 ****        -0.7500 -15.7500 -26.7500 Du        
  27452 ****        -0.7500 -15.7500 -16.5000 Du        
  27453 ****        -0.7500 -15.7500 -16.2500 Du        
  27454 ****        -0.7500 -15.7500 -16.0000 Du        
  27455 ****        -0.7500 -15.5000 -16.5000 Du        
  27456 ****        -0.7500 -15.5000 -16.2500 Du        
  27457 ****        -0.7500 -15.2500 -16.5000 Du        
  27458 ****        -0.7500 -15.2500 -16.2500 Du        
  27459 ****        -0.7500 -15.0000 -16.5000 Du        
  27460 ****        -0.7500 -15.0000 -16.2500 Du        
  27461 ****        -0.7500 -10.0000 -31.7500 Du        
  27462 ****        -0.7500 -10.0000 -18.0000 Du        
  27463 ****        -0.7500  -9.7500 -32.0000 Du        
  27464 ****        -0.7500  -9.7500 -31.7500 Du        
  27465 ****        -0.7500  -9.7500 -18.2500 Du        
  27466 ****        -0.7500  -9.7500 -18.0000 Du        
  27467 ****        -0.7500  -9.7500 -17.7500 Du        
  27468 ****        -0.7500  -9.5000 -32.0000 Du        
  27469 ****        -0.7500  -9.5000 -31.7500 Du        
  27470 ****        -0.7500  -9.5000 -31.5000 Du        
  27471 ****        -0.7500  -9.5000 -31.2500 Du        
  27472 ****        -0.7500  -9.5000 -18.2500 Du        
  27473 ****        -0.7500  -9.5000 -18.0000 Du        
  27474 ****        -0.7500  -9.5000 -17.7500 Du        
  27475 ****        -0.7500  -9.5000 -17.5000 Du        
  27476 ****        -0.7500  -9.2500 -32.0000 Du        
  27477 ****        -0.7500  -9.2500 -31.7500 Du        
  27478 ****        -0.7500  -9.2500 -31.5000 Du        
  27479 ****        -0.7500  -9.2500 -31.2500 Du        
  27480 ****        -0.7500  -9.2500 -18.2500 Du        
  27481 ****        -0.7500  -9.2500 -18.0000 Du        
  27482 ****        -0.7500  -9.2500 -17.7500 Du        
  27483 ****        -0.7500  -9.2500 -17.5000 Du        
  27484 ****        -0.7500  -9.0000 -32.0000 Du        
  27485 ****        -0.7500  -9.0000 -31.7500 Du        
  27486 ****        -0.7500  -9.0000 -18.5000 Du        
  27487 ****        -0.7500  -9.0000 -18.2500 Du        
  27488 ****        -0.7500  -9.0000 -18.0000 Du        
  27489 ****        -0.7500  -9.0000 -17.7500 Du        
  27490 ****        -0.7500  -9.0000 -17.5000 Du        
  27491 ****        -0.7500  -8.7500 -18.5000 Du        
  27492 ****        -0.7500  -8.7500 -18.2500 Du        
  27493 ****        -0.7500  -8.7500 -18.0000 Du        
  27494 ****        -0.7500  -8.7500 -17.7500 Du        
  27495 ****        -0.7500  -8.7500 -17.5000 Du        
  27496 ****        -0.7500  -8.5000 -18.5000 Du        
  27497 ****        -0.7500  -8.5000 -18.2500 Du        
  27498 ****        -0.7500  -8.5000 -18.0000 Du        
  27499 ****        -0.7500  -8.5000 -17.7500 Du        
  27500 ****        -0.7500  -8.2500 -18.5000 Du        
  27501 ****        -0.7500  -8.2500 -18.2500 Du        
  27502 ****        -0.7500  -8.2500 -18.0000 Du        
  27503 ****        -0.7500  -4.5000 -19.2500 Du        
  27504 ****        -0.7500  -4.2500 -19.2500 Du        
  27505 ****        -0.7500  -4.0000 -28.2500 Du        
  27506 ****        -0.7500  -4.0000 -28.0000 Du        
  27507 ****        -0.7500  -4.0000 -27.7500 Du        
  27508 ****        -0.7500  -4.0000 -19.2500 Du        
  27509 ****        -0.7500  -4.0000 -19.0000 Du        
  27510 ****        -0.7500  -3.7500 -29.0000 Du        
  27511 ****        -0.7500  -3.7500 -28.7500 Du        
  27512 ****        -0.7500  -3.7500 -28.5000 Du        
  27513 ****        -0.7500  -3.7500 -28.2500 Du        
  27514 ****        -0.7500  -3.7500 -28.0000 Du        
  27515 ****        -0.7500  -3.7500 -27.7500 Du        
  27516 ****        -0.7500  -3.7500 -27.5000 Du        
  27517 ****        -0.7500  -3.5000 -29.5000 Du        
  27518 ****        -0.7500  -3.5000 -29.2500 Du        
  27519 ****        -0.7500  -3.5000 -29.0000 Du        
  27520 ****        -0.7500  -3.5000 -28.7500 Du        
  27521 ****        -0.7500  -3.5000 -28.5000 Du        
  27522 ****        -0.7500  -3.5000 -28.2500 Du        
  27523 ****        -0.7500  -3.5000 -28.0000 Du        
  27524 ****        -0.7500  -3.5000 -27.7500 Du        
  27525 ****        -0.7500  -3.5000 -27.5000 Du        
  27526 ****        -0.7500  -3.5000 -27.2500 Du        
  27527 ****        -0.7500  -3.5000 -27.0000 Du        
  27528 ****        -0.7500  -3.2500 -29.5000 Du        
  27529 ****        -0.7500  -3.2500 -29.2500 Du        
  27530 ****        -0.7500  -3.2500 -29.0000 Du        
  27531 ****        -0.7500  -3.2500 -28.7500 Du        
  27532 ****        -0.7500  -3.2500 -28.5000 Du        
  27533 ****        -0.7500  -3.2500 -28.2500 Du        
  27534 ****        -0.7500  -3.2500 -28.0000 Du        
  27535 ****        -0.7500  -3.2500 -27.7500 Du        
  27536 ****        -0.7500  -3.2500 -27.5000 Du        
  27537 ****        -0.7500  -3.2500 -27.2500 Du        
  27538 ****        -0.7500  -3.2500 -27.0000 Du        
  27539 ****        -0.7500  -3.0000 -29.5000 Du        
  27540 ****        -0.7500  -3.0000 -29.2500 Du        
  27541 ****        -0.7500  -3.0000 -29.0000 Du        
  27542 ****        -0.7500  -3.0000 -28.7500 Du        
  27543 ****        -0.7500  -3.0000 -28.5000 Du        
  27544 ****        -0.7500  -3.0000 -28.2500 Du        
  27545 ****        -0.7500  -3.0000 -28.0000 Du        
  27546 ****        -0.7500  -3.0000 -27.7500 Du        
  27547 ****        -0.7500  -2.7500 -29.5000 Du        
  27548 ****        -0.7500  -2.7500 -29.2500 Du        
  27549 ****        -0.7500  -2.7500 -29.0000 Du        
  27550 ****        -0.7500  -2.7500 -28.7500 Du        
  27551 ****        -0.7500  -2.7500 -28.5000 Du        
  27552 ****        -0.5000 -28.2500 -14.2500 Du        
  27553 ****        -0.5000 -28.2500 -14.0000 Du        
  27554 ****        -0.5000 -28.0000 -14.2500 Du        
  27555 ****        -0.5000 -28.0000 -14.0000 Du        
  27556 ****        -0.5000 -28.0000 -13.7500 Du        
  27557 ****        -0.5000 -27.7500 -14.2500 Du        
  27558 ****        -0.5000 -27.7500 -14.0000 Du        
  27559 ****        -0.5000 -27.7500 -13.7500 Du        
  27560 ****        -0.5000 -27.7500 -13.5000 Du        
  27561 ****        -0.5000 -27.5000 -14.5000 Du        
  27562 ****        -0.5000 -27.5000 -14.2500 Du        
  27563 ****        -0.5000 -27.5000 -14.0000 Du        
  27564 ****        -0.5000 -27.5000 -13.7500 Du        
  27565 ****        -0.5000 -27.5000 -13.5000 Du        
  27566 ****        -0.5000 -27.2500 -14.2500 Du        
  27567 ****        -0.5000 -27.2500 -14.0000 Du        
  27568 ****        -0.5000 -27.2500 -13.7500 Du        
  27569 ****        -0.5000 -27.2500 -13.5000 Du        
  27570 ****        -0.5000 -27.0000 -14.2500 Du        
  27571 ****        -0.5000 -27.0000 -14.0000 Du        
  27572 ****        -0.5000 -27.0000 -13.7500 Du        
  27573 ****        -0.5000 -27.0000 -13.5000 Du        
  27574 ****        -0.5000 -26.7500 -14.2500 Du        
  27575 ****        -0.5000 -26.7500 -14.0000 Du        
  27576 ****        -0.5000 -26.7500 -13.7500 Du        
  27577 ****        -0.5000 -26.7500 -13.5000 Du        
  27578 ****        -0.5000 -26.5000 -14.2500 Du        
  27579 ****        -0.5000 -26.5000 -14.0000 Du        
  27580 ****        -0.5000 -26.5000 -13.7500 Du        
  27581 ****        -0.5000 -26.5000 -13.5000 Du        
  27582 ****        -0.5000 -26.2500 -14.5000 Du        
  27583 ****        -0.5000 -26.2500 -14.2500 Du        
  27584 ****        -0.5000 -26.2500 -14.0000 Du        
  27585 ****        -0.5000 -26.2500 -13.7500 Du        
  27586 ****        -0.5000 -26.2500 -13.5000 Du        
  27587 ****        -0.5000 -26.0000 -14.7500 Du        
  27588 ****        -0.5000 -26.0000 -14.5000 Du        
  27589 ****        -0.5000 -26.0000 -14.2500 Du        
  27590 ****        -0.5000 -26.0000 -14.0000 Du        
  27591 ****        -0.5000 -26.0000 -13.7500 Du        
  27592 ****        -0.5000 -26.0000 -13.5000 Du        
  27593 ****        -0.5000 -25.7500 -14.7500 Du        
  27594 ****        -0.5000 -25.7500 -14.5000 Du        
  27595 ****        -0.5000 -25.7500 -14.2500 Du        
  27596 ****        -0.5000 -25.7500 -14.0000 Du        
  27597 ****        -0.5000 -25.7500 -13.7500 Du        
  27598 ****        -0.5000 -25.7500 -13.5000 Du        
  27599 ****        -0.5000 -25.5000 -15.2500 Du        
  27600 ****        -0.5000 -25.5000 -15.0000 Du        
  27601 ****        -0.5000 -25.5000 -14.7500 Du        
  27602 ****        -0.5000 -25.5000 -14.5000 Du        
  27603 ****        -0.5000 -25.5000 -14.2500 Du        
  27604 ****        -0.5000 -25.5000 -14.0000 Du        
  27605 ****        -0.5000 -25.5000 -13.7500 Du        
  27606 ****        -0.5000 -25.5000 -13.5000 Du        
  27607 ****        -0.5000 -25.2500 -15.2500 Du        
  27608 ****        -0.5000 -25.2500 -15.0000 Du        
  27609 ****        -0.5000 -25.2500 -14.7500 Du        
  27610 ****        -0.5000 -25.2500 -14.5000 Du        
  27611 ****        -0.5000 -25.2500 -14.2500 Du        
  27612 ****        -0.5000 -25.2500 -14.0000 Du        
  27613 ****        -0.5000 -25.2500 -13.7500 Du        
  27614 ****        -0.5000 -25.2500 -13.5000 Du        
  27615 ****        -0.5000 -25.2500 -13.2500 Du        
  27616 ****        -0.5000 -25.0000 -15.2500 Du        
  27617 ****        -0.5000 -25.0000 -15.0000 Du        
  27618 ****        -0.5000 -25.0000 -14.7500 Du        
  27619 ****        -0.5000 -25.0000 -14.5000 Du        
  27620 ****        -0.5000 -25.0000 -14.2500 Du        
  27621 ****        -0.5000 -25.0000 -14.0000 Du        
  27622 ****        -0.5000 -25.0000 -13.7500 Du        
  27623 ****        -0.5000 -25.0000 -13.5000 Du        
  27624 ****        -0.5000 -25.0000 -13.2500 Du        
  27625 ****        -0.5000 -24.7500 -15.2500 Du        
  27626 ****        -0.5000 -24.7500 -15.0000 Du        
  27627 ****        -0.5000 -24.7500 -14.7500 Du        
  27628 ****        -0.5000 -24.7500 -14.5000 Du        
  27629 ****        -0.5000 -24.7500 -14.2500 Du        
  27630 ****        -0.5000 -24.7500 -14.0000 Du        
  27631 ****        -0.5000 -24.7500 -13.7500 Du        
  27632 ****        -0.5000 -24.7500 -13.5000 Du        
  27633 ****        -0.5000 -24.5000 -15.5000 Du        
  27634 ****        -0.5000 -24.5000 -15.2500 Du        
  27635 ****        -0.5000 -24.5000 -15.0000 Du        
  27636 ****        -0.5000 -24.5000 -14.7500 Du        
  27637 ****        -0.5000 -24.5000 -14.5000 Du        
  27638 ****        -0.5000 -24.5000 -14.2500 Du        
  27639 ****        -0.5000 -24.5000 -14.0000 Du        
  27640 ****        -0.5000 -24.5000 -13.7500 Du        
  27641 ****        -0.5000 -24.2500 -15.7500 Du        
  27642 ****        -0.5000 -24.2500 -15.5000 Du        
  27643 ****        -0.5000 -24.2500 -15.2500 Du        
  27644 ****        -0.5000 -24.2500 -15.0000 Du        
  27645 ****        -0.5000 -24.2500 -14.7500 Du        
  27646 ****        -0.5000 -24.2500 -14.5000 Du        
  27647 ****        -0.5000 -24.2500 -14.2500 Du        
  27648 ****        -0.5000 -24.2500 -14.0000 Du        
  27649 ****        -0.5000 -24.2500 -13.7500 Du        
  27650 ****        -0.5000 -24.0000 -15.7500 Du        
  27651 ****        -0.5000 -24.0000 -15.5000 Du        
  27652 ****        -0.5000 -24.0000 -15.2500 Du        
  27653 ****        -0.5000 -24.0000 -15.0000 Du        
  27654 ****        -0.5000 -24.0000 -14.7500 Du        
  27655 ****        -0.5000 -24.0000 -14.5000 Du        
  27656 ****        -0.5000 -24.0000 -14.2500 Du        
  27657 ****        -0.5000 -24.0000 -14.0000 Du        
  27658 ****        -0.5000 -23.7500 -15.7500 Du        
  27659 ****        -0.5000 -23.7500 -15.5000 Du        
  27660 ****        -0.5000 -23.7500 -15.2500 Du        
  27661 ****        -0.5000 -23.7500 -15.0000 Du        
  27662 ****        -0.5000 -23.7500 -14.7500 Du        
  27663 ****        -0.5000 -23.7500 -14.5000 Du        
  27664 ****        -0.5000 -23.7500 -14.2500 Du        
  27665 ****        -0.5000 -23.5000 -16.0000 Du        
  27666 ****        -0.5000 -23.5000 -15.7500 Du        
  27667 ****        -0.5000 -23.5000 -15.5000 Du        
  27668 ****        -0.5000 -23.5000 -15.2500 Du        
  27669 ****        -0.5000 -23.5000 -15.0000 Du        
  27670 ****        -0.5000 -23.5000 -14.7500 Du        
  27671 ****        -0.5000 -23.5000 -14.5000 Du        
  27672 ****        -0.5000 -23.5000 -14.2500 Du        
  27673 ****        -0.5000 -23.2500 -16.0000 Du        
  27674 ****        -0.5000 -23.2500 -15.7500 Du        
  27675 ****        -0.5000 -23.2500 -15.5000 Du        
  27676 ****        -0.5000 -23.2500 -15.2500 Du        
  27677 ****        -0.5000 -23.2500 -15.0000 Du        
  27678 ****        -0.5000 -23.2500 -14.7500 Du        
  27679 ****        -0.5000 -23.2500 -14.5000 Du        
  27680 ****        -0.5000 -23.0000 -16.0000 Du        
  27681 ****        -0.5000 -23.0000 -15.7500 Du        
  27682 ****        -0.5000 -23.0000 -15.5000 Du        
  27683 ****        -0.5000 -23.0000 -15.2500 Du        
  27684 ****        -0.5000 -23.0000 -15.0000 Du        
  27685 ****        -0.5000 -23.0000 -14.7500 Du        
  27686 ****        -0.5000 -23.0000 -14.5000 Du        
  27687 ****        -0.5000 -22.7500 -16.0000 Du        
  27688 ****        -0.5000 -22.7500 -15.7500 Du        
  27689 ****        -0.5000 -22.7500 -15.5000 Du        
  27690 ****        -0.5000 -22.7500 -15.2500 Du        
  27691 ****        -0.5000 -22.7500 -15.0000 Du        
  27692 ****        -0.5000 -22.7500 -14.7500 Du        
  27693 ****        -0.5000 -22.5000 -15.7500 Du        
  27694 ****        -0.5000 -22.5000 -15.5000 Du        
  27695 ****        -0.5000 -22.5000 -15.2500 Du        
  27696 ****        -0.5000 -22.5000 -15.0000 Du        
  27697 ****        -0.5000 -22.5000 -14.7500 Du        
  27698 ****        -0.5000 -22.2500 -15.5000 Du        
  27699 ****        -0.5000 -22.2500 -15.2500 Du        
  27700 ****        -0.5000 -22.2500 -15.0000 Du        
  27701 ****        -0.5000 -22.2500 -14.7500 Du        
  27702 ****        -0.5000 -22.0000 -15.5000 Du        
  27703 ****        -0.5000 -22.0000 -15.2500 Du        
  27704 ****        -0.5000 -22.0000 -15.0000 Du        
  27705 ****        -0.5000 -22.0000 -14.7500 Du        
  27706 ****        -0.5000 -21.7500 -15.5000 Du        
  27707 ****        -0.5000 -21.7500 -15.2500 Du        
  27708 ****        -0.5000 -21.7500 -15.0000 Du        
  27709 ****        -0.5000 -21.5000 -15.2500 Du        
  27710 ****        -0.5000 -21.5000 -15.0000 Du        
  27711 ****        -0.5000 -21.2500 -15.5000 Du        
  27712 ****        -0.5000 -21.2500 -15.2500 Du        
  27713 ****        -0.5000 -21.2500 -15.0000 Du        
  27714 ****        -0.5000 -21.0000 -15.5000 Du        
  27715 ****        -0.5000 -21.0000 -15.2500 Du        
  27716 ****        -0.5000 -21.0000 -15.0000 Du        
  27717 ****        -0.5000 -20.7500 -15.5000 Du        
  27718 ****        -0.5000 -20.7500 -15.2500 Du        
  27719 ****        -0.5000 -20.7500 -15.0000 Du        
  27720 ****        -0.5000 -20.5000 -15.5000 Du        
  27721 ****        -0.5000 -20.5000 -15.2500 Du        
  27722 ****        -0.5000 -20.5000 -15.0000 Du        
  27723 ****        -0.5000 -20.2500 -15.5000 Du        
  27724 ****        -0.5000 -20.2500 -15.2500 Du        
  27725 ****        -0.5000 -20.2500 -15.0000 Du        
  27726 ****        -0.5000 -20.0000 -15.5000 Du        
  27727 ****        -0.5000 -20.0000 -15.2500 Du        
  27728 ****        -0.5000 -20.0000 -15.0000 Du        
  27729 ****        -0.5000 -20.0000 -14.7500 Du        
  27730 ****        -0.5000 -19.7500 -15.7500 Du        
  27731 ****        -0.5000 -19.7500 -15.5000 Du        
  27732 ****        -0.5000 -19.7500 -15.2500 Du        
  27733 ****        -0.5000 -19.7500 -15.0000 Du        
  27734 ****        -0.5000 -19.7500 -14.7500 Du        
  27735 ****        -0.5000 -19.5000 -15.7500 Du        
  27736 ****        -0.5000 -19.5000 -15.5000 Du        
  27737 ****        -0.5000 -19.5000 -15.2500 Du        
  27738 ****        -0.5000 -19.5000 -15.0000 Du        
  27739 ****        -0.5000 -19.5000 -14.7500 Du        
  27740 ****        -0.5000 -19.2500 -16.0000 Du        
  27741 ****        -0.5000 -19.2500 -15.7500 Du        
  27742 ****        -0.5000 -19.2500 -15.5000 Du        
  27743 ****        -0.5000 -19.2500 -15.2500 Du        
  27744 ****        -0.5000 -19.2500 -15.0000 Du        
  27745 ****        -0.5000 -19.2500 -14.7500 Du        
  27746 ****        -0.5000 -19.0000 -16.0000 Du        
  27747 ****        -0.5000 -19.0000 -15.7500 Du        
  27748 ****        -0.5000 -19.0000 -15.5000 Du        
  27749 ****        -0.5000 -19.0000 -15.2500 Du        
  27750 ****        -0.5000 -19.0000 -15.0000 Du        
  27751 ****        -0.5000 -19.0000 -14.7500 Du        
  27752 ****        -0.5000 -18.7500 -16.0000 Du        
  27753 ****        -0.5000 -18.7500 -15.7500 Du        
  27754 ****        -0.5000 -18.7500 -15.5000 Du        
  27755 ****        -0.5000 -18.7500 -15.2500 Du        
  27756 ****        -0.5000 -18.7500 -15.0000 Du        
  27757 ****        -0.5000 -18.5000 -16.0000 Du        
  27758 ****        -0.5000 -18.5000 -15.7500 Du        
  27759 ****        -0.5000 -18.5000 -15.5000 Du        
  27760 ****        -0.5000 -18.5000 -15.2500 Du        
  27761 ****        -0.5000 -18.5000 -15.0000 Du        
  27762 ****        -0.5000 -18.2500 -16.2500 Du        
  27763 ****        -0.5000 -18.2500 -16.0000 Du        
  27764 ****        -0.5000 -18.2500 -15.7500 Du        
  27765 ****        -0.5000 -18.2500 -15.5000 Du        
  27766 ****        -0.5000 -18.2500 -15.2500 Du        
  27767 ****        -0.5000 -18.2500 -15.0000 Du        
  27768 ****        -0.5000 -18.0000 -16.2500 Du        
  27769 ****        -0.5000 -18.0000 -16.0000 Du        
  27770 ****        -0.5000 -18.0000 -15.7500 Du        
  27771 ****        -0.5000 -18.0000 -15.5000 Du        
  27772 ****        -0.5000 -18.0000 -15.2500 Du        
  27773 ****        -0.5000 -18.0000 -15.0000 Du        
  27774 ****        -0.5000 -17.7500 -28.2500 Du        
  27775 ****        -0.5000 -17.7500 -28.0000 Du        
  27776 ****        -0.5000 -17.7500 -16.2500 Du        
  27777 ****        -0.5000 -17.7500 -16.0000 Du        
  27778 ****        -0.5000 -17.7500 -15.7500 Du        
  27779 ****        -0.5000 -17.7500 -15.5000 Du        
  27780 ****        -0.5000 -17.7500 -15.2500 Du        
  27781 ****        -0.5000 -17.7500 -15.0000 Du        
  27782 ****        -0.5000 -17.5000 -28.2500 Du        
  27783 ****        -0.5000 -17.5000 -28.0000 Du        
  27784 ****        -0.5000 -17.5000 -27.7500 Du        
  27785 ****        -0.5000 -17.5000 -15.7500 Du        
  27786 ****        -0.5000 -17.5000 -15.5000 Du        
  27787 ****        -0.5000 -17.5000 -15.2500 Du        
  27788 ****        -0.5000 -17.2500 -28.2500 Du        
  27789 ****        -0.5000 -17.2500 -28.0000 Du        
  27790 ****        -0.5000 -17.2500 -27.7500 Du        
  27791 ****        -0.5000 -17.2500 -15.7500 Du        
  27792 ****        -0.5000 -17.2500 -15.5000 Du        
  27793 ****        -0.5000 -17.0000 -28.2500 Du        
  27794 ****        -0.5000 -17.0000 -28.0000 Du        
  27795 ****        -0.5000 -17.0000 -27.7500 Du        
  27796 ****        -0.5000 -17.0000 -27.5000 Du        
  27797 ****        -0.5000 -17.0000 -15.7500 Du        
  27798 ****        -0.5000 -16.7500 -28.2500 Du        
  27799 ****        -0.5000 -16.7500 -28.0000 Du        
  27800 ****        -0.5000 -16.7500 -27.7500 Du        
  27801 ****        -0.5000 -16.7500 -27.5000 Du        
  27802 ****        -0.5000 -16.7500 -27.2500 Du        
  27803 ****        -0.5000 -16.5000 -28.2500 Du        
  27804 ****        -0.5000 -16.5000 -28.0000 Du        
  27805 ****        -0.5000 -16.5000 -27.7500 Du        
  27806 ****        -0.5000 -16.5000 -27.5000 Du        
  27807 ****        -0.5000 -16.5000 -27.2500 Du        
  27808 ****        -0.5000 -16.2500 -28.2500 Du        
  27809 ****        -0.5000 -16.2500 -28.0000 Du        
  27810 ****        -0.5000 -16.2500 -27.7500 Du        
  27811 ****        -0.5000 -16.2500 -27.5000 Du        
  27812 ****        -0.5000 -16.2500 -27.2500 Du        
  27813 ****        -0.5000 -16.2500 -27.0000 Du        
  27814 ****        -0.5000 -16.0000 -28.2500 Du        
  27815 ****        -0.5000 -16.0000 -28.0000 Du        
  27816 ****        -0.5000 -16.0000 -27.7500 Du        
  27817 ****        -0.5000 -16.0000 -27.5000 Du        
  27818 ****        -0.5000 -16.0000 -27.2500 Du        
  27819 ****        -0.5000 -16.0000 -27.0000 Du        
  27820 ****        -0.5000 -16.0000 -26.7500 Du        
  27821 ****        -0.5000 -15.7500 -28.2500 Du        
  27822 ****        -0.5000 -15.7500 -28.0000 Du        
  27823 ****        -0.5000 -15.7500 -27.7500 Du        
  27824 ****        -0.5000 -15.7500 -27.5000 Du        
  27825 ****        -0.5000 -15.7500 -27.2500 Du        
  27826 ****        -0.5000 -15.7500 -27.0000 Du        
  27827 ****        -0.5000 -15.7500 -26.7500 Du        
  27828 ****        -0.5000 -15.5000 -28.2500 Du        
  27829 ****        -0.5000 -15.5000 -28.0000 Du        
  27830 ****        -0.5000 -15.5000 -27.7500 Du        
  27831 ****        -0.5000 -15.2500 -28.2500 Du        
  27832 ****        -0.5000 -15.2500 -28.0000 Du        
  27833 ****        -0.5000 -15.2500 -27.7500 Du        
  27834 ****        -0.5000 -15.0000 -28.0000 Du        
  27835 ****        -0.5000 -15.0000 -27.7500 Du        
  27836 ****        -0.5000 -15.0000 -16.5000 Du        
  27837 ****        -0.5000 -14.7500 -28.2500 Du        
  27838 ****        -0.5000  -9.5000 -18.0000 Du        
  27839 ****        -0.5000  -9.2500 -18.0000 Du        
  27840 ****        -0.5000  -9.2500 -17.7500 Du        
  27841 ****        -0.5000  -9.2500 -17.5000 Du        
  27842 ****        -0.5000  -9.0000 -18.2500 Du        
  27843 ****        -0.5000  -9.0000 -18.0000 Du        
  27844 ****        -0.5000  -9.0000 -17.7500 Du        
  27845 ****        -0.5000  -9.0000 -17.5000 Du        
  27846 ****        -0.5000  -8.7500 -18.2500 Du        
  27847 ****        -0.5000  -8.7500 -18.0000 Du        
  27848 ****        -0.5000  -8.7500 -17.7500 Du        
  27849 ****        -0.5000  -8.7500 -17.5000 Du        
  27850 ****        -0.5000  -3.7500 -28.5000 Du        
  27851 ****        -0.5000  -3.7500 -28.2500 Du        
  27852 ****        -0.5000  -3.7500 -28.0000 Du        
  27853 ****        -0.5000  -3.7500 -27.7500 Du        
  27854 ****        -0.5000  -3.7500 -27.5000 Du        
  27855 ****        -0.5000  -3.7500 -27.2500 Du        
  27856 ****        -0.5000  -3.7500 -27.0000 Du        
  27857 ****        -0.5000  -3.5000 -29.2500 Du        
  27858 ****        -0.5000  -3.5000 -29.0000 Du        
  27859 ****        -0.5000  -3.5000 -28.7500 Du        
  27860 ****        -0.5000  -3.5000 -28.5000 Du        
  27861 ****        -0.5000  -3.5000 -28.2500 Du        
  27862 ****        -0.5000  -3.5000 -28.0000 Du        
  27863 ****        -0.5000  -3.5000 -27.7500 Du        
  27864 ****        -0.5000  -3.5000 -27.5000 Du        
  27865 ****        -0.5000  -3.5000 -27.2500 Du        
  27866 ****        -0.5000  -3.5000 -27.0000 Du        
  27867 ****        -0.5000  -3.2500 -29.5000 Du        
  27868 ****        -0.5000  -3.2500 -29.2500 Du        
  27869 ****        -0.5000  -3.2500 -29.0000 Du        
  27870 ****        -0.5000  -3.2500 -28.7500 Du        
  27871 ****        -0.5000  -3.2500 -28.5000 Du        
  27872 ****        -0.5000  -3.2500 -28.2500 Du        
  27873 ****        -0.5000  -3.2500 -28.0000 Du        
  27874 ****        -0.5000  -3.2500 -27.7500 Du        
  27875 ****        -0.5000  -3.2500 -27.5000 Du        
  27876 ****        -0.5000  -3.2500 -27.2500 Du        
  27877 ****        -0.5000  -3.2500 -27.0000 Du        
  27878 ****        -0.5000  -3.0000 -29.5000 Du        
  27879 ****        -0.5000  -3.0000 -29.2500 Du        
  27880 ****        -0.5000  -3.0000 -29.0000 Du        
  27881 ****        -0.5000  -3.0000 -28.7500 Du        
  27882 ****        -0.5000  -3.0000 -28.5000 Du        
  27883 ****        -0.5000  -3.0000 -28.2500 Du        
  27884 ****        -0.5000  -3.0000 -28.0000 Du        
  27885 ****        -0.5000  -3.0000 -27.7500 Du        
  27886 ****        -0.5000  -3.0000 -27.5000 Du        
  27887 ****        -0.5000  -3.0000 -27.2500 Du        
  27888 ****        -0.5000  -2.7500 -29.5000 Du        
  27889 ****        -0.5000  -2.7500 -29.2500 Du        
  27890 ****        -0.5000  -2.7500 -29.0000 Du        
  27891 ****        -0.5000  -2.7500 -28.7500 Du        
  27892 ****        -0.5000  -2.7500 -28.5000 Du        
  27893 ****        -0.5000  -2.7500 -28.2500 Du        
  27894 ****        -0.5000  -2.7500 -28.0000 Du        
  27895 ****        -0.5000  -2.7500 -27.7500 Du        
  27896 ****        -0.5000  -2.5000 -29.2500 Du        
  27897 ****        -0.5000  -2.5000 -29.0000 Du        
  27898 ****        -0.5000  -2.5000 -28.7500 Du        
  27899 ****        -0.5000  -2.5000 -28.5000 Du        
  27900 ****        -0.2500 -28.5000 -14.2500 Du        
  27901 ****        -0.2500 -28.5000 -14.0000 Du        
  27902 ****        -0.2500 -28.2500 -14.2500 Du        
  27903 ****        -0.2500 -28.2500 -14.0000 Du        
  27904 ****        -0.2500 -28.0000 -14.5000 Du        
  27905 ****        -0.2500 -28.0000 -14.2500 Du        
  27906 ****        -0.2500 -28.0000 -14.0000 Du        
  27907 ****        -0.2500 -28.0000 -13.7500 Du        
  27908 ****        -0.2500 -27.7500 -14.5000 Du        
  27909 ****        -0.2500 -27.7500 -14.2500 Du        
  27910 ****        -0.2500 -27.7500 -14.0000 Du        
  27911 ****        -0.2500 -27.7500 -13.7500 Du        
  27912 ****        -0.2500 -27.5000 -14.5000 Du        
  27913 ****        -0.2500 -27.5000 -14.2500 Du        
  27914 ****        -0.2500 -27.5000 -14.0000 Du        
  27915 ****        -0.2500 -27.5000 -13.7500 Du        
  27916 ****        -0.2500 -27.5000 -13.5000 Du        
  27917 ****        -0.2500 -27.2500 -14.5000 Du        
  27918 ****        -0.2500 -27.2500 -14.2500 Du        
  27919 ****        -0.2500 -27.2500 -14.0000 Du        
  27920 ****        -0.2500 -27.2500 -13.7500 Du        
  27921 ****        -0.2500 -27.2500 -13.5000 Du        
  27922 ****        -0.2500 -27.0000 -14.5000 Du        
  27923 ****        -0.2500 -27.0000 -14.2500 Du        
  27924 ****        -0.2500 -27.0000 -14.0000 Du        
  27925 ****        -0.2500 -27.0000 -13.7500 Du        
  27926 ****        -0.2500 -27.0000 -13.5000 Du        
  27927 ****        -0.2500 -27.0000 -13.2500 Du        
  27928 ****        -0.2500 -26.7500 -14.5000 Du        
  27929 ****        -0.2500 -26.7500 -14.2500 Du        
  27930 ****        -0.2500 -26.7500 -14.0000 Du        
  27931 ****        -0.2500 -26.7500 -13.7500 Du        
  27932 ****        -0.2500 -26.7500 -13.5000 Du        
  27933 ****        -0.2500 -26.7500 -13.2500 Du        
  27934 ****        -0.2500 -26.5000 -14.5000 Du        
  27935 ****        -0.2500 -26.5000 -14.2500 Du        
  27936 ****        -0.2500 -26.5000 -14.0000 Du        
  27937 ****        -0.2500 -26.5000 -13.7500 Du        
  27938 ****        -0.2500 -26.5000 -13.5000 Du        
  27939 ****        -0.2500 -26.5000 -13.2500 Du        
  27940 ****        -0.2500 -26.2500 -14.5000 Du        
  27941 ****        -0.2500 -26.2500 -14.2500 Du        
  27942 ****        -0.2500 -26.2500 -14.0000 Du        
  27943 ****        -0.2500 -26.2500 -13.7500 Du        
  27944 ****        -0.2500 -26.2500 -13.5000 Du        
  27945 ****        -0.2500 -26.2500 -13.2500 Du        
  27946 ****        -0.2500 -26.0000 -14.7500 Du        
  27947 ****        -0.2500 -26.0000 -14.5000 Du        
  27948 ****        -0.2500 -26.0000 -14.2500 Du        
  27949 ****        -0.2500 -26.0000 -14.0000 Du        
  27950 ****        -0.2500 -26.0000 -13.7500 Du        
  27951 ****        -0.2500 -26.0000 -13.5000 Du        
  27952 ****        -0.2500 -26.0000 -13.2500 Du        
  27953 ****        -0.2500 -26.0000 -13.0000 Du        
  27954 ****        -0.2500 -25.7500 -14.7500 Du        
  27955 ****        -0.2500 -25.7500 -14.5000 Du        
  27956 ****        -0.2500 -25.7500 -14.2500 Du        
  27957 ****        -0.2500 -25.7500 -14.0000 Du        
  27958 ****        -0.2500 -25.7500 -13.7500 Du        
  27959 ****        -0.2500 -25.7500 -13.5000 Du        
  27960 ****        -0.2500 -25.7500 -13.2500 Du        
  27961 ****        -0.2500 -25.7500 -13.0000 Du        
  27962 ****        -0.2500 -25.5000 -15.0000 Du        
  27963 ****        -0.2500 -25.5000 -14.7500 Du        
  27964 ****        -0.2500 -25.5000 -14.5000 Du        
  27965 ****        -0.2500 -25.5000 -14.2500 Du        
  27966 ****        -0.2500 -25.5000 -14.0000 Du        
  27967 ****        -0.2500 -25.5000 -13.7500 Du        
  27968 ****        -0.2500 -25.5000 -13.5000 Du        
  27969 ****        -0.2500 -25.5000 -13.2500 Du        
  27970 ****        -0.2500 -25.5000 -13.0000 Du        
  27971 ****        -0.2500 -25.2500 -15.2500 Du        
  27972 ****        -0.2500 -25.2500 -15.0000 Du        
  27973 ****        -0.2500 -25.2500 -14.7500 Du        
  27974 ****        -0.2500 -25.2500 -14.5000 Du        
  27975 ****        -0.2500 -25.2500 -14.2500 Du        
  27976 ****        -0.2500 -25.2500 -14.0000 Du        
  27977 ****        -0.2500 -25.2500 -13.7500 Du        
  27978 ****        -0.2500 -25.2500 -13.5000 Du        
  27979 ****        -0.2500 -25.2500 -13.2500 Du        
  27980 ****        -0.2500 -25.2500 -13.0000 Du        
  27981 ****        -0.2500 -25.0000 -15.2500 Du        
  27982 ****        -0.2500 -25.0000 -15.0000 Du        
  27983 ****        -0.2500 -25.0000 -14.7500 Du        
  27984 ****        -0.2500 -25.0000 -14.5000 Du        
  27985 ****        -0.2500 -25.0000 -14.2500 Du        
  27986 ****        -0.2500 -25.0000 -14.0000 Du        
  27987 ****        -0.2500 -25.0000 -13.7500 Du        
  27988 ****        -0.2500 -25.0000 -13.5000 Du        
  27989 ****        -0.2500 -25.0000 -13.2500 Du        
  27990 ****        -0.2500 -25.0000 -13.0000 Du        
  27991 ****        -0.2500 -24.7500 -15.2500 Du        
  27992 ****        -0.2500 -24.7500 -15.0000 Du        
  27993 ****        -0.2500 -24.7500 -14.7500 Du        
  27994 ****        -0.2500 -24.7500 -14.5000 Du        
  27995 ****        -0.2500 -24.7500 -14.2500 Du        
  27996 ****        -0.2500 -24.7500 -14.0000 Du        
  27997 ****        -0.2500 -24.7500 -13.7500 Du        
  27998 ****        -0.2500 -24.7500 -13.5000 Du        
  27999 ****        -0.2500 -24.7500 -13.2500 Du        
  28000 ****        -0.2500 -24.5000 -15.5000 Du        
  28001 ****        -0.2500 -24.5000 -15.2500 Du        
  28002 ****        -0.2500 -24.5000 -15.0000 Du        
  28003 ****        -0.2500 -24.5000 -14.7500 Du        
  28004 ****        -0.2500 -24.5000 -14.5000 Du        
  28005 ****        -0.2500 -24.5000 -14.2500 Du        
  28006 ****        -0.2500 -24.5000 -14.0000 Du        
  28007 ****        -0.2500 -24.5000 -13.7500 Du        
  28008 ****        -0.2500 -24.2500 -15.5000 Du        
  28009 ****        -0.2500 -24.2500 -15.2500 Du        
  28010 ****        -0.2500 -24.2500 -15.0000 Du        
  28011 ****        -0.2500 -24.2500 -14.7500 Du        
  28012 ****        -0.2500 -24.2500 -14.5000 Du        
  28013 ****        -0.2500 -24.2500 -14.2500 Du        
  28014 ****        -0.2500 -24.2500 -14.0000 Du        
  28015 ****        -0.2500 -24.2500 -13.7500 Du        
  28016 ****        -0.2500 -24.0000 -15.7500 Du        
  28017 ****        -0.2500 -24.0000 -15.5000 Du        
  28018 ****        -0.2500 -24.0000 -15.2500 Du        
  28019 ****        -0.2500 -24.0000 -15.0000 Du        
  28020 ****        -0.2500 -24.0000 -14.7500 Du        
  28021 ****        -0.2500 -24.0000 -14.5000 Du        
  28022 ****        -0.2500 -24.0000 -14.2500 Du        
  28023 ****        -0.2500 -24.0000 -14.0000 Du        
  28024 ****        -0.2500 -23.7500 -15.7500 Du        
  28025 ****        -0.2500 -23.7500 -15.5000 Du        
  28026 ****        -0.2500 -23.7500 -15.2500 Du        
  28027 ****        -0.2500 -23.7500 -15.0000 Du        
  28028 ****        -0.2500 -23.7500 -14.7500 Du        
  28029 ****        -0.2500 -23.7500 -14.5000 Du        
  28030 ****        -0.2500 -23.7500 -14.2500 Du        
  28031 ****        -0.2500 -23.5000 -16.0000 Du        
  28032 ****        -0.2500 -23.5000 -15.7500 Du        
  28033 ****        -0.2500 -23.5000 -15.5000 Du        
  28034 ****        -0.2500 -23.5000 -15.2500 Du        
  28035 ****        -0.2500 -23.5000 -15.0000 Du        
  28036 ****        -0.2500 -23.5000 -14.7500 Du        
  28037 ****        -0.2500 -23.5000 -14.5000 Du        
  28038 ****        -0.2500 -23.2500 -16.0000 Du        
  28039 ****        -0.2500 -23.2500 -15.7500 Du        
  28040 ****        -0.2500 -23.2500 -15.5000 Du        
  28041 ****        -0.2500 -23.2500 -15.2500 Du        
  28042 ****        -0.2500 -23.2500 -15.0000 Du        
  28043 ****        -0.2500 -23.2500 -14.7500 Du        
  28044 ****        -0.2500 -23.2500 -14.5000 Du        
  28045 ****        -0.2500 -23.0000 -16.0000 Du        
  28046 ****        -0.2500 -23.0000 -15.7500 Du        
  28047 ****        -0.2500 -23.0000 -15.5000 Du        
  28048 ****        -0.2500 -23.0000 -15.2500 Du        
  28049 ****        -0.2500 -23.0000 -15.0000 Du        
  28050 ****        -0.2500 -23.0000 -14.7500 Du        
  28051 ****        -0.2500 -22.7500 -16.2500 Du        
  28052 ****        -0.2500 -22.7500 -16.0000 Du        
  28053 ****        -0.2500 -22.7500 -15.7500 Du        
  28054 ****        -0.2500 -22.7500 -15.5000 Du        
  28055 ****        -0.2500 -22.7500 -15.2500 Du        
  28056 ****        -0.2500 -22.7500 -15.0000 Du        
  28057 ****        -0.2500 -22.7500 -14.7500 Du        
  28058 ****        -0.2500 -22.5000 -16.2500 Du        
  28059 ****        -0.2500 -22.5000 -16.0000 Du        
  28060 ****        -0.2500 -22.5000 -15.7500 Du        
  28061 ****        -0.2500 -22.5000 -15.5000 Du        
  28062 ****        -0.2500 -22.5000 -15.2500 Du        
  28063 ****        -0.2500 -22.5000 -15.0000 Du        
  28064 ****        -0.2500 -22.5000 -14.7500 Du        
  28065 ****        -0.2500 -22.2500 -16.2500 Du        
  28066 ****        -0.2500 -22.2500 -16.0000 Du        
  28067 ****        -0.2500 -22.2500 -15.7500 Du        
  28068 ****        -0.2500 -22.2500 -15.5000 Du        
  28069 ****        -0.2500 -22.2500 -15.2500 Du        
  28070 ****        -0.2500 -22.2500 -15.0000 Du        
  28071 ****        -0.2500 -22.2500 -14.7500 Du        
  28072 ****        -0.2500 -22.0000 -16.2500 Du        
  28073 ****        -0.2500 -22.0000 -16.0000 Du        
  28074 ****        -0.2500 -22.0000 -15.7500 Du        
  28075 ****        -0.2500 -22.0000 -15.5000 Du        
  28076 ****        -0.2500 -22.0000 -15.2500 Du        
  28077 ****        -0.2500 -22.0000 -15.0000 Du        
  28078 ****        -0.2500 -22.0000 -14.7500 Du        
  28079 ****        -0.2500 -21.7500 -16.2500 Du        
  28080 ****        -0.2500 -21.7500 -16.0000 Du        
  28081 ****        -0.2500 -21.7500 -15.7500 Du        
  28082 ****        -0.2500 -21.7500 -15.5000 Du        
  28083 ****        -0.2500 -21.7500 -15.2500 Du        
  28084 ****        -0.2500 -21.7500 -15.0000 Du        
  28085 ****        -0.2500 -21.5000 -16.0000 Du        
  28086 ****        -0.2500 -21.5000 -15.7500 Du        
  28087 ****        -0.2500 -21.5000 -15.5000 Du        
  28088 ****        -0.2500 -21.5000 -15.2500 Du        
  28089 ****        -0.2500 -21.5000 -15.0000 Du        
  28090 ****        -0.2500 -21.2500 -16.0000 Du        
  28091 ****        -0.2500 -21.2500 -15.7500 Du        
  28092 ****        -0.2500 -21.2500 -15.5000 Du        
  28093 ****        -0.2500 -21.2500 -15.2500 Du        
  28094 ****        -0.2500 -21.2500 -15.0000 Du        
  28095 ****        -0.2500 -21.0000 -16.0000 Du        
  28096 ****        -0.2500 -21.0000 -15.7500 Du        
  28097 ****        -0.2500 -21.0000 -15.5000 Du        
  28098 ****        -0.2500 -21.0000 -15.2500 Du        
  28099 ****        -0.2500 -21.0000 -15.0000 Du        
  28100 ****        -0.2500 -20.7500 -15.5000 Du        
  28101 ****        -0.2500 -20.7500 -15.2500 Du        
  28102 ****        -0.2500 -20.7500 -15.0000 Du        
  28103 ****        -0.2500 -20.5000 -15.7500 Du        
  28104 ****        -0.2500 -20.5000 -15.5000 Du        
  28105 ****        -0.2500 -20.5000 -15.2500 Du        
  28106 ****        -0.2500 -20.5000 -15.0000 Du        
  28107 ****        -0.2500 -20.2500 -15.7500 Du        
  28108 ****        -0.2500 -20.2500 -15.5000 Du        
  28109 ****        -0.2500 -20.2500 -15.2500 Du        
  28110 ****        -0.2500 -20.2500 -15.0000 Du        
  28111 ****        -0.2500 -20.2500 -14.7500 Du        
  28112 ****        -0.2500 -20.0000 -16.0000 Du        
  28113 ****        -0.2500 -20.0000 -15.7500 Du        
  28114 ****        -0.2500 -20.0000 -15.5000 Du        
  28115 ****        -0.2500 -20.0000 -15.2500 Du        
  28116 ****        -0.2500 -20.0000 -15.0000 Du        
  28117 ****        -0.2500 -20.0000 -14.7500 Du        
  28118 ****        -0.2500 -19.7500 -15.7500 Du        
  28119 ****        -0.2500 -19.7500 -15.5000 Du        
  28120 ****        -0.2500 -19.7500 -15.2500 Du        
  28121 ****        -0.2500 -19.7500 -15.0000 Du        
  28122 ****        -0.2500 -19.7500 -14.7500 Du        
  28123 ****        -0.2500 -19.5000 -16.0000 Du        
  28124 ****        -0.2500 -19.5000 -15.7500 Du        
  28125 ****        -0.2500 -19.5000 -15.5000 Du        
  28126 ****        -0.2500 -19.5000 -15.2500 Du        
  28127 ****        -0.2500 -19.5000 -15.0000 Du        
  28128 ****        -0.2500 -19.5000 -14.7500 Du        
  28129 ****        -0.2500 -19.2500 -16.0000 Du        
  28130 ****        -0.2500 -19.2500 -15.7500 Du        
  28131 ****        -0.2500 -19.2500 -15.5000 Du        
  28132 ****        -0.2500 -19.2500 -15.2500 Du        
  28133 ****        -0.2500 -19.2500 -15.0000 Du        
  28134 ****        -0.2500 -19.2500 -14.7500 Du        
  28135 ****        -0.2500 -19.0000 -16.0000 Du        
  28136 ****        -0.2500 -19.0000 -15.7500 Du        
  28137 ****        -0.2500 -19.0000 -15.5000 Du        
  28138 ****        -0.2500 -19.0000 -15.2500 Du        
  28139 ****        -0.2500 -19.0000 -15.0000 Du        
  28140 ****        -0.2500 -19.0000 -14.7500 Du        
  28141 ****        -0.2500 -18.7500 -16.0000 Du        
  28142 ****        -0.2500 -18.7500 -15.7500 Du        
  28143 ****        -0.2500 -18.7500 -15.5000 Du        
  28144 ****        -0.2500 -18.7500 -15.2500 Du        
  28145 ****        -0.2500 -18.7500 -15.0000 Du        
  28146 ****        -0.2500 -18.7500 -14.7500 Du        
  28147 ****        -0.2500 -18.5000 -28.7500 Du        
  28148 ****        -0.2500 -18.5000 -16.0000 Du        
  28149 ****        -0.2500 -18.5000 -15.7500 Du        
  28150 ****        -0.2500 -18.5000 -15.5000 Du        
  28151 ****        -0.2500 -18.5000 -15.2500 Du        
  28152 ****        -0.2500 -18.5000 -15.0000 Du        
  28153 ****        -0.2500 -18.5000 -14.7500 Du        
  28154 ****        -0.2500 -18.2500 -29.0000 Du        
  28155 ****        -0.2500 -18.2500 -28.7500 Du        
  28156 ****        -0.2500 -18.2500 -28.5000 Du        
  28157 ****        -0.2500 -18.2500 -16.0000 Du        
  28158 ****        -0.2500 -18.2500 -15.7500 Du        
  28159 ****        -0.2500 -18.2500 -15.5000 Du        
  28160 ****        -0.2500 -18.2500 -15.2500 Du        
  28161 ****        -0.2500 -18.2500 -15.0000 Du        
  28162 ****        -0.2500 -18.2500 -14.7500 Du        
  28163 ****        -0.2500 -18.0000 -28.7500 Du        
  28164 ****        -0.2500 -18.0000 -28.5000 Du        
  28165 ****        -0.2500 -18.0000 -28.2500 Du        
  28166 ****        -0.2500 -18.0000 -16.0000 Du        
  28167 ****        -0.2500 -18.0000 -15.7500 Du        
  28168 ****        -0.2500 -18.0000 -15.5000 Du        
  28169 ****        -0.2500 -18.0000 -15.2500 Du        
  28170 ****        -0.2500 -18.0000 -15.0000 Du        
  28171 ****        -0.2500 -18.0000 -14.7500 Du        
  28172 ****        -0.2500 -17.7500 -28.7500 Du        
  28173 ****        -0.2500 -17.7500 -28.5000 Du        
  28174 ****        -0.2500 -17.7500 -28.2500 Du        
  28175 ****        -0.2500 -17.7500 -28.0000 Du        
  28176 ****        -0.2500 -17.7500 -16.0000 Du        
  28177 ****        -0.2500 -17.7500 -15.7500 Du        
  28178 ****        -0.2500 -17.7500 -15.5000 Du        
  28179 ****        -0.2500 -17.7500 -15.2500 Du        
  28180 ****        -0.2500 -17.7500 -15.0000 Du        
  28181 ****        -0.2500 -17.5000 -28.7500 Du        
  28182 ****        -0.2500 -17.5000 -28.5000 Du        
  28183 ****        -0.2500 -17.5000 -28.2500 Du        
  28184 ****        -0.2500 -17.5000 -28.0000 Du        
  28185 ****        -0.2500 -17.5000 -27.7500 Du        
  28186 ****        -0.2500 -17.5000 -15.5000 Du        
  28187 ****        -0.2500 -17.5000 -15.2500 Du        
  28188 ****        -0.2500 -17.2500 -28.5000 Du        
  28189 ****        -0.2500 -17.2500 -28.2500 Du        
  28190 ****        -0.2500 -17.2500 -28.0000 Du        
  28191 ****        -0.2500 -17.2500 -27.7500 Du        
  28192 ****        -0.2500 -17.2500 -15.5000 Du        
  28193 ****        -0.2500 -17.0000 -28.5000 Du        
  28194 ****        -0.2500 -17.0000 -28.2500 Du        
  28195 ****        -0.2500 -17.0000 -28.0000 Du        
  28196 ****        -0.2500 -17.0000 -27.7500 Du        
  28197 ****        -0.2500 -17.0000 -27.5000 Du        
  28198 ****        -0.2500 -16.7500 -28.5000 Du        
  28199 ****        -0.2500 -16.7500 -28.2500 Du        
  28200 ****        -0.2500 -16.7500 -28.0000 Du        
  28201 ****        -0.2500 -16.7500 -27.7500 Du        
  28202 ****        -0.2500 -16.7500 -27.5000 Du        
  28203 ****        -0.2500 -16.7500 -27.2500 Du        
  28204 ****        -0.2500 -16.5000 -28.5000 Du        
  28205 ****        -0.2500 -16.5000 -28.2500 Du        
  28206 ****        -0.2500 -16.5000 -28.0000 Du        
  28207 ****        -0.2500 -16.5000 -27.7500 Du        
  28208 ****        -0.2500 -16.5000 -27.5000 Du        
  28209 ****        -0.2500 -16.5000 -27.2500 Du        
  28210 ****        -0.2500 -16.2500 -28.5000 Du        
  28211 ****        -0.2500 -16.2500 -28.2500 Du        
  28212 ****        -0.2500 -16.2500 -28.0000 Du        
  28213 ****        -0.2500 -16.2500 -27.7500 Du        
  28214 ****        -0.2500 -16.2500 -27.5000 Du        
  28215 ****        -0.2500 -16.2500 -27.2500 Du        
  28216 ****        -0.2500 -16.0000 -28.5000 Du        
  28217 ****        -0.2500 -16.0000 -28.2500 Du        
  28218 ****        -0.2500 -16.0000 -28.0000 Du        
  28219 ****        -0.2500 -16.0000 -27.7500 Du        
  28220 ****        -0.2500 -16.0000 -27.5000 Du        
  28221 ****        -0.2500 -16.0000 -27.2500 Du        
  28222 ****        -0.2500 -16.0000 -27.0000 Du        
  28223 ****        -0.2500 -15.7500 -28.7500 Du        
  28224 ****        -0.2500 -15.7500 -28.5000 Du        
  28225 ****        -0.2500 -15.7500 -28.2500 Du        
  28226 ****        -0.2500 -15.7500 -28.0000 Du        
  28227 ****        -0.2500 -15.7500 -27.7500 Du        
  28228 ****        -0.2500 -15.7500 -27.5000 Du        
  28229 ****        -0.2500 -15.7500 -27.2500 Du        
  28230 ****        -0.2500 -15.5000 -28.5000 Du        
  28231 ****        -0.2500 -15.5000 -28.2500 Du        
  28232 ****        -0.2500 -15.5000 -28.0000 Du        
  28233 ****        -0.2500 -15.5000 -27.7500 Du        
  28234 ****        -0.2500 -15.5000 -27.5000 Du        
  28235 ****        -0.2500 -15.2500 -28.5000 Du        
  28236 ****        -0.2500 -15.2500 -28.2500 Du        
  28237 ****        -0.2500 -15.2500 -28.0000 Du        
  28238 ****        -0.2500 -15.2500 -27.7500 Du        
  28239 ****        -0.2500 -15.0000 -28.5000 Du        
  28240 ****        -0.2500 -15.0000 -28.2500 Du        
  28241 ****        -0.2500 -15.0000 -28.0000 Du        
  28242 ****        -0.2500 -15.0000 -27.7500 Du        
  28243 ****        -0.2500 -14.7500 -28.5000 Du        
  28244 ****        -0.2500 -14.7500 -28.2500 Du        
  28245 ****        -0.2500 -14.7500 -28.0000 Du        
  28246 ****        -0.2500 -14.7500 -27.7500 Du        
  28247 ****        -0.2500  -3.7500 -28.0000 Du        
  28248 ****        -0.2500  -3.7500 -27.7500 Du        
  28249 ****        -0.2500  -3.7500 -27.5000 Du        
  28250 ****        -0.2500  -3.7500 -27.2500 Du        
  28251 ****        -0.2500  -3.7500 -27.0000 Du        
  28252 ****        -0.2500  -3.5000 -29.0000 Du        
  28253 ****        -0.2500  -3.5000 -28.7500 Du        
  28254 ****        -0.2500  -3.5000 -28.5000 Du        
  28255 ****        -0.2500  -3.5000 -28.2500 Du        
  28256 ****        -0.2500  -3.5000 -28.0000 Du        
  28257 ****        -0.2500  -3.5000 -27.7500 Du        
  28258 ****        -0.2500  -3.5000 -27.5000 Du        
  28259 ****        -0.2500  -3.5000 -27.2500 Du        
  28260 ****        -0.2500  -3.5000 -27.0000 Du        
  28261 ****        -0.2500  -3.2500 -29.5000 Du        
  28262 ****        -0.2500  -3.2500 -29.2500 Du        
  28263 ****        -0.2500  -3.2500 -29.0000 Du        
  28264 ****        -0.2500  -3.2500 -28.7500 Du        
  28265 ****        -0.2500  -3.2500 -28.5000 Du        
  28266 ****        -0.2500  -3.2500 -28.2500 Du        
  28267 ****        -0.2500  -3.2500 -28.0000 Du        
  28268 ****        -0.2500  -3.2500 -27.7500 Du        
  28269 ****        -0.2500  -3.2500 -27.5000 Du        
  28270 ****        -0.2500  -3.2500 -27.2500 Du        
  28271 ****        -0.2500  -3.2500 -27.0000 Du        
  28272 ****        -0.2500  -3.0000 -29.5000 Du        
  28273 ****        -0.2500  -3.0000 -29.2500 Du        
  28274 ****        -0.2500  -3.0000 -29.0000 Du        
  28275 ****        -0.2500  -3.0000 -28.7500 Du        
  28276 ****        -0.2500  -3.0000 -28.5000 Du        
  28277 ****        -0.2500  -3.0000 -28.2500 Du        
  28278 ****        -0.2500  -3.0000 -28.0000 Du        
  28279 ****        -0.2500  -3.0000 -27.7500 Du        
  28280 ****        -0.2500  -3.0000 -27.5000 Du        
  28281 ****        -0.2500  -3.0000 -27.2500 Du        
  28282 ****        -0.2500  -3.0000 -27.0000 Du        
  28283 ****        -0.2500  -3.0000 -26.7500 Du        
  28284 ****        -0.2500  -2.7500 -29.7500 Du        
  28285 ****        -0.2500  -2.7500 -29.5000 Du        
  28286 ****        -0.2500  -2.7500 -29.2500 Du        
  28287 ****        -0.2500  -2.7500 -29.0000 Du        
  28288 ****        -0.2500  -2.7500 -28.7500 Du        
  28289 ****        -0.2500  -2.7500 -28.5000 Du        
  28290 ****        -0.2500  -2.7500 -28.2500 Du        
  28291 ****        -0.2500  -2.7500 -28.0000 Du        
  28292 ****        -0.2500  -2.7500 -27.7500 Du        
  28293 ****        -0.2500  -2.7500 -27.5000 Du        
  28294 ****        -0.2500  -2.7500 -27.2500 Du        
  28295 ****        -0.2500  -2.7500 -27.0000 Du        
  28296 ****        -0.2500  -2.5000 -29.5000 Du        
  28297 ****        -0.2500  -2.5000 -29.2500 Du        
  28298 ****        -0.2500  -2.5000 -29.0000 Du        
  28299 ****        -0.2500  -2.5000 -28.7500 Du        
  28300 ****        -0.2500  -2.5000 -28.5000 Du        
  28301 ****        -0.2500  -2.5000 -28.2500 Du        
  28302 ****        -0.2500  -2.5000 -28.0000 Du        
  28303 ****        -0.2500  -2.5000 -27.7500 Du        
  28304 ****        -0.2500  -2.2500 -29.0000 Du        
  28305 ****        -0.2500  -2.2500 -28.7500 Du        
  28306 ****         0.0000 -28.7500 -14.2500 Du        
  28307 ****         0.0000 -28.5000 -14.5000 Du        
  28308 ****         0.0000 -28.5000 -14.2500 Du        
  28309 ****         0.0000 -28.2500 -14.5000 Du        
  28310 ****         0.0000 -28.2500 -14.2500 Du        
  28311 ****         0.0000 -28.2500 -14.0000 Du        
  28312 ****         0.0000 -28.0000 -14.5000 Du        
  28313 ****         0.0000 -28.0000 -14.2500 Du        
  28314 ****         0.0000 -28.0000 -14.0000 Du        
  28315 ****         0.0000 -27.7500 -14.5000 Du        
  28316 ****         0.0000 -27.7500 -14.2500 Du        
  28317 ****         0.0000 -27.7500 -14.0000 Du        
  28318 ****         0.0000 -27.7500 -13.7500 Du        
  28319 ****         0.0000 -27.5000 -14.5000 Du        
  28320 ****         0.0000 -27.5000 -14.2500 Du        
  28321 ****         0.0000 -27.5000 -14.0000 Du        
  28322 ****         0.0000 -27.5000 -13.7500 Du        
  28323 ****         0.0000 -27.2500 -14.5000 Du        
  28324 ****         0.0000 -27.2500 -14.2500 Du        
  28325 ****         0.0000 -27.2500 -14.0000 Du        
  28326 ****         0.0000 -27.2500 -13.7500 Du        
  28327 ****         0.0000 -27.2500 -13.5000 Du        
  28328 ****         0.0000 -27.0000 -14.5000 Du        
  28329 ****         0.0000 -27.0000 -14.2500 Du        
  28330 ****         0.0000 -27.0000 -14.0000 Du        
  28331 ****         0.0000 -27.0000 -13.7500 Du        
  28332 ****         0.0000 -27.0000 -13.5000 Du        
  28333 ****         0.0000 -26.7500 -14.5000 Du        
  28334 ****         0.0000 -26.7500 -14.2500 Du        
  28335 ****         0.0000 -26.7500 -14.0000 Du        
  28336 ****         0.0000 -26.7500 -13.7500 Du        
  28337 ****         0.0000 -26.7500 -13.5000 Du        
  28338 ****         0.0000 -26.7500 -13.2500 Du        
  28339 ****         0.0000 -26.5000 -14.5000 Du        
  28340 ****         0.0000 -26.5000 -14.2500 Du        
  28341 ****         0.0000 -26.5000 -14.0000 Du        
  28342 ****         0.0000 -26.5000 -13.7500 Du        
  28343 ****         0.0000 -26.5000 -13.5000 Du        
  28344 ****         0.0000 -26.5000 -13.2500 Du        
  28345 ****         0.0000 -26.2500 -14.5000 Du        
  28346 ****         0.0000 -26.2500 -14.2500 Du        
  28347 ****         0.0000 -26.2500 -14.0000 Du        
  28348 ****         0.0000 -26.2500 -13.7500 Du        
  28349 ****         0.0000 -26.2500 -13.5000 Du        
  28350 ****         0.0000 -26.2500 -13.2500 Du        
  28351 ****         0.0000 -26.2500 -13.0000 Du        
  28352 ****         0.0000 -26.0000 -14.7500 Du        
  28353 ****         0.0000 -26.0000 -14.5000 Du        
  28354 ****         0.0000 -26.0000 -14.2500 Du        
  28355 ****         0.0000 -26.0000 -14.0000 Du        
  28356 ****         0.0000 -26.0000 -13.7500 Du        
  28357 ****         0.0000 -26.0000 -13.5000 Du        
  28358 ****         0.0000 -26.0000 -13.2500 Du        
  28359 ****         0.0000 -26.0000 -13.0000 Du        
  28360 ****         0.0000 -26.0000 -12.7500 Du        
  28361 ****         0.0000 -25.7500 -14.7500 Du        
  28362 ****         0.0000 -25.7500 -14.5000 Du        
  28363 ****         0.0000 -25.7500 -14.2500 Du        
  28364 ****         0.0000 -25.7500 -14.0000 Du        
  28365 ****         0.0000 -25.7500 -13.7500 Du        
  28366 ****         0.0000 -25.7500 -13.5000 Du        
  28367 ****         0.0000 -25.7500 -13.2500 Du        
  28368 ****         0.0000 -25.7500 -13.0000 Du        
  28369 ****         0.0000 -25.7500 -12.7500 Du        
  28370 ****         0.0000 -25.7500 -12.5000 Du        
  28371 ****         0.0000 -25.5000 -15.0000 Du        
  28372 ****         0.0000 -25.5000 -14.7500 Du        
  28373 ****         0.0000 -25.5000 -14.5000 Du        
  28374 ****         0.0000 -25.5000 -14.2500 Du        
  28375 ****         0.0000 -25.5000 -14.0000 Du        
  28376 ****         0.0000 -25.5000 -13.7500 Du        
  28377 ****         0.0000 -25.5000 -13.5000 Du        
  28378 ****         0.0000 -25.5000 -13.2500 Du        
  28379 ****         0.0000 -25.5000 -13.0000 Du        
  28380 ****         0.0000 -25.5000 -12.7500 Du        
  28381 ****         0.0000 -25.5000 -12.5000 Du        
  28382 ****         0.0000 -25.2500 -15.0000 Du        
  28383 ****         0.0000 -25.2500 -14.7500 Du        
  28384 ****         0.0000 -25.2500 -14.5000 Du        
  28385 ****         0.0000 -25.2500 -14.2500 Du        
  28386 ****         0.0000 -25.2500 -14.0000 Du        
  28387 ****         0.0000 -25.2500 -13.7500 Du        
  28388 ****         0.0000 -25.2500 -13.5000 Du        
  28389 ****         0.0000 -25.2500 -13.2500 Du        
  28390 ****         0.0000 -25.2500 -13.0000 Du        
  28391 ****         0.0000 -25.2500 -12.7500 Du        
  28392 ****         0.0000 -25.2500 -12.5000 Du        
  28393 ****         0.0000 -25.0000 -15.0000 Du        
  28394 ****         0.0000 -25.0000 -14.7500 Du        
  28395 ****         0.0000 -25.0000 -14.5000 Du        
  28396 ****         0.0000 -25.0000 -14.2500 Du        
  28397 ****         0.0000 -25.0000 -14.0000 Du        
  28398 ****         0.0000 -25.0000 -13.7500 Du        
  28399 ****         0.0000 -25.0000 -13.5000 Du        
  28400 ****         0.0000 -25.0000 -13.2500 Du        
  28401 ****         0.0000 -25.0000 -13.0000 Du        
  28402 ****         0.0000 -25.0000 -12.7500 Du        
  28403 ****         0.0000 -24.7500 -15.2500 Du        
  28404 ****         0.0000 -24.7500 -15.0000 Du        
  28405 ****         0.0000 -24.7500 -14.7500 Du        
  28406 ****         0.0000 -24.7500 -14.5000 Du        
  28407 ****         0.0000 -24.7500 -14.2500 Du        
  28408 ****         0.0000 -24.7500 -14.0000 Du        
  28409 ****         0.0000 -24.7500 -13.7500 Du        
  28410 ****         0.0000 -24.7500 -13.5000 Du        
  28411 ****         0.0000 -24.7500 -13.2500 Du        
  28412 ****         0.0000 -24.5000 -15.2500 Du        
  28413 ****         0.0000 -24.5000 -15.0000 Du        
  28414 ****         0.0000 -24.5000 -14.7500 Du        
  28415 ****         0.0000 -24.5000 -14.5000 Du        
  28416 ****         0.0000 -24.5000 -14.2500 Du        
  28417 ****         0.0000 -24.5000 -14.0000 Du        
  28418 ****         0.0000 -24.5000 -13.7500 Du        
  28419 ****         0.0000 -24.2500 -15.5000 Du        
  28420 ****         0.0000 -24.2500 -15.2500 Du        
  28421 ****         0.0000 -24.2500 -15.0000 Du        
  28422 ****         0.0000 -24.2500 -14.7500 Du        
  28423 ****         0.0000 -24.2500 -14.5000 Du        
  28424 ****         0.0000 -24.2500 -14.2500 Du        
  28425 ****         0.0000 -24.2500 -14.0000 Du        
  28426 ****         0.0000 -24.2500 -13.7500 Du        
  28427 ****         0.0000 -24.0000 -15.7500 Du        
  28428 ****         0.0000 -24.0000 -15.5000 Du        
  28429 ****         0.0000 -24.0000 -15.2500 Du        
  28430 ****         0.0000 -24.0000 -15.0000 Du        
  28431 ****         0.0000 -24.0000 -14.7500 Du        
  28432 ****         0.0000 -24.0000 -14.5000 Du        
  28433 ****         0.0000 -24.0000 -14.2500 Du        
  28434 ****         0.0000 -24.0000 -14.0000 Du        
  28435 ****         0.0000 -23.7500 -15.7500 Du        
  28436 ****         0.0000 -23.7500 -15.5000 Du        
  28437 ****         0.0000 -23.7500 -15.2500 Du        
  28438 ****         0.0000 -23.7500 -15.0000 Du        
  28439 ****         0.0000 -23.7500 -14.7500 Du        
  28440 ****         0.0000 -23.7500 -14.5000 Du        
  28441 ****         0.0000 -23.7500 -14.2500 Du        
  28442 ****         0.0000 -23.5000 -16.0000 Du        
  28443 ****         0.0000 -23.5000 -15.7500 Du        
  28444 ****         0.0000 -23.5000 -15.5000 Du        
  28445 ****         0.0000 -23.5000 -15.2500 Du        
  28446 ****         0.0000 -23.5000 -15.0000 Du        
  28447 ****         0.0000 -23.5000 -14.7500 Du        
  28448 ****         0.0000 -23.5000 -14.5000 Du        
  28449 ****         0.0000 -23.2500 -16.0000 Du        
  28450 ****         0.0000 -23.2500 -15.7500 Du        
  28451 ****         0.0000 -23.2500 -15.5000 Du        
  28452 ****         0.0000 -23.2500 -15.2500 Du        
  28453 ****         0.0000 -23.2500 -15.0000 Du        
  28454 ****         0.0000 -23.2500 -14.7500 Du        
  28455 ****         0.0000 -23.2500 -14.5000 Du        
  28456 ****         0.0000 -23.0000 -16.2500 Du        
  28457 ****         0.0000 -23.0000 -16.0000 Du        
  28458 ****         0.0000 -23.0000 -15.7500 Du        
  28459 ****         0.0000 -23.0000 -15.5000 Du        
  28460 ****         0.0000 -23.0000 -15.2500 Du        
  28461 ****         0.0000 -23.0000 -15.0000 Du        
  28462 ****         0.0000 -23.0000 -14.7500 Du        
  28463 ****         0.0000 -22.7500 -16.2500 Du        
  28464 ****         0.0000 -22.7500 -16.0000 Du        
  28465 ****         0.0000 -22.7500 -15.7500 Du        
  28466 ****         0.0000 -22.7500 -15.5000 Du        
  28467 ****         0.0000 -22.7500 -15.2500 Du        
  28468 ****         0.0000 -22.7500 -15.0000 Du        
  28469 ****         0.0000 -22.7500 -14.7500 Du        
  28470 ****         0.0000 -22.5000 -16.2500 Du        
  28471 ****         0.0000 -22.5000 -16.0000 Du        
  28472 ****         0.0000 -22.5000 -15.7500 Du        
  28473 ****         0.0000 -22.5000 -15.5000 Du        
  28474 ****         0.0000 -22.5000 -15.2500 Du        
  28475 ****         0.0000 -22.5000 -15.0000 Du        
  28476 ****         0.0000 -22.5000 -14.7500 Du        
  28477 ****         0.0000 -22.2500 -16.5000 Du        
  28478 ****         0.0000 -22.2500 -16.2500 Du        
  28479 ****         0.0000 -22.2500 -16.0000 Du        
  28480 ****         0.0000 -22.2500 -15.7500 Du        
  28481 ****         0.0000 -22.2500 -15.5000 Du        
  28482 ****         0.0000 -22.2500 -15.2500 Du        
  28483 ****         0.0000 -22.2500 -15.0000 Du        
  28484 ****         0.0000 -22.2500 -14.7500 Du        
  28485 ****         0.0000 -22.0000 -16.7500 Du        
  28486 ****         0.0000 -22.0000 -16.5000 Du        
  28487 ****         0.0000 -22.0000 -16.2500 Du        
  28488 ****         0.0000 -22.0000 -16.0000 Du        
  28489 ****         0.0000 -22.0000 -15.7500 Du        
  28490 ****         0.0000 -22.0000 -15.5000 Du        
  28491 ****         0.0000 -22.0000 -15.2500 Du        
  28492 ****         0.0000 -22.0000 -15.0000 Du        
  28493 ****         0.0000 -21.7500 -16.7500 Du        
  28494 ****         0.0000 -21.7500 -16.5000 Du        
  28495 ****         0.0000 -21.7500 -16.2500 Du        
  28496 ****         0.0000 -21.7500 -16.0000 Du        
  28497 ****         0.0000 -21.7500 -15.7500 Du        
  28498 ****         0.0000 -21.7500 -15.5000 Du        
  28499 ****         0.0000 -21.7500 -15.2500 Du        
  28500 ****         0.0000 -21.7500 -15.0000 Du        
  28501 ****         0.0000 -21.5000 -16.5000 Du        
  28502 ****         0.0000 -21.5000 -16.2500 Du        
  28503 ****         0.0000 -21.5000 -16.0000 Du        
  28504 ****         0.0000 -21.5000 -15.7500 Du        
  28505 ****         0.0000 -21.5000 -15.5000 Du        
  28506 ****         0.0000 -21.5000 -15.2500 Du        
  28507 ****         0.0000 -21.5000 -15.0000 Du        
  28508 ****         0.0000 -21.2500 -16.5000 Du        
  28509 ****         0.0000 -21.2500 -16.2500 Du        
  28510 ****         0.0000 -21.2500 -16.0000 Du        
  28511 ****         0.0000 -21.2500 -15.7500 Du        
  28512 ****         0.0000 -21.2500 -15.2500 Du        
  28513 ****         0.0000 -21.2500 -15.0000 Du        
  28514 ****         0.0000 -21.0000 -16.5000 Du        
  28515 ****         0.0000 -21.0000 -16.2500 Du        
  28516 ****         0.0000 -21.0000 -16.0000 Du        
  28517 ****         0.0000 -21.0000 -15.7500 Du        
  28518 ****         0.0000 -21.0000 -15.2500 Du        
  28519 ****         0.0000 -21.0000 -15.0000 Du        
  28520 ****         0.0000 -20.7500 -16.2500 Du        
  28521 ****         0.0000 -20.7500 -16.0000 Du        
  28522 ****         0.0000 -20.7500 -15.7500 Du        
  28523 ****         0.0000 -20.7500 -15.5000 Du        
  28524 ****         0.0000 -20.7500 -15.2500 Du        
  28525 ****         0.0000 -20.7500 -15.0000 Du        
  28526 ****         0.0000 -20.5000 -15.7500 Du        
  28527 ****         0.0000 -20.5000 -15.5000 Du        
  28528 ****         0.0000 -20.5000 -15.2500 Du        
  28529 ****         0.0000 -20.5000 -15.0000 Du        
  28530 ****         0.0000 -20.2500 -16.0000 Du        
  28531 ****         0.0000 -20.2500 -15.7500 Du        
  28532 ****         0.0000 -20.2500 -15.5000 Du        
  28533 ****         0.0000 -20.2500 -15.2500 Du        
  28534 ****         0.0000 -20.2500 -15.0000 Du        
  28535 ****         0.0000 -20.2500 -14.7500 Du        
  28536 ****         0.0000 -20.0000 -16.0000 Du        
  28537 ****         0.0000 -20.0000 -15.7500 Du        
  28538 ****         0.0000 -20.0000 -15.5000 Du        
  28539 ****         0.0000 -20.0000 -15.2500 Du        
  28540 ****         0.0000 -20.0000 -15.0000 Du        
  28541 ****         0.0000 -20.0000 -14.7500 Du        
  28542 ****         0.0000 -19.7500 -15.7500 Du        
  28543 ****         0.0000 -19.7500 -15.5000 Du        
  28544 ****         0.0000 -19.7500 -15.2500 Du        
  28545 ****         0.0000 -19.7500 -15.0000 Du        
  28546 ****         0.0000 -19.7500 -14.7500 Du        
  28547 ****         0.0000 -19.5000 -16.0000 Du        
  28548 ****         0.0000 -19.5000 -15.7500 Du        
  28549 ****         0.0000 -19.5000 -15.5000 Du        
  28550 ****         0.0000 -19.5000 -15.2500 Du        
  28551 ****         0.0000 -19.5000 -15.0000 Du        
  28552 ****         0.0000 -19.5000 -14.7500 Du        
  28553 ****         0.0000 -19.5000 -14.5000 Du        
  28554 ****         0.0000 -19.2500 -16.0000 Du        
  28555 ****         0.0000 -19.2500 -15.7500 Du        
  28556 ****         0.0000 -19.2500 -15.5000 Du        
  28557 ****         0.0000 -19.2500 -15.2500 Du        
  28558 ****         0.0000 -19.2500 -15.0000 Du        
  28559 ****         0.0000 -19.2500 -14.7500 Du        
  28560 ****         0.0000 -19.2500 -14.5000 Du        
  28561 ****         0.0000 -19.0000 -16.0000 Du        
  28562 ****         0.0000 -19.0000 -15.7500 Du        
  28563 ****         0.0000 -19.0000 -15.5000 Du        
  28564 ****         0.0000 -19.0000 -15.2500 Du        
  28565 ****         0.0000 -19.0000 -15.0000 Du        
  28566 ****         0.0000 -19.0000 -14.7500 Du        
  28567 ****         0.0000 -19.0000 -14.5000 Du        
  28568 ****         0.0000 -18.7500 -28.7500 Du        
  28569 ****         0.0000 -18.7500 -28.5000 Du        
  28570 ****         0.0000 -18.7500 -15.7500 Du        
  28571 ****         0.0000 -18.7500 -15.5000 Du        
  28572 ****         0.0000 -18.7500 -15.2500 Du        
  28573 ****         0.0000 -18.7500 -15.0000 Du        
  28574 ****         0.0000 -18.7500 -14.7500 Du        
  28575 ****         0.0000 -18.7500 -14.5000 Du        
  28576 ****         0.0000 -18.5000 -29.0000 Du        
  28577 ****         0.0000 -18.5000 -28.7500 Du        
  28578 ****         0.0000 -18.5000 -28.5000 Du        
  28579 ****         0.0000 -18.5000 -15.7500 Du        
  28580 ****         0.0000 -18.5000 -15.5000 Du        
  28581 ****         0.0000 -18.5000 -15.2500 Du        
  28582 ****         0.0000 -18.5000 -15.0000 Du        
  28583 ****         0.0000 -18.5000 -14.7500 Du        
  28584 ****         0.0000 -18.2500 -29.2500 Du        
  28585 ****         0.0000 -18.2500 -29.0000 Du        
  28586 ****         0.0000 -18.2500 -28.7500 Du        
  28587 ****         0.0000 -18.2500 -28.5000 Du        
  28588 ****         0.0000 -18.2500 -28.2500 Du        
  28589 ****         0.0000 -18.2500 -15.7500 Du        
  28590 ****         0.0000 -18.2500 -15.5000 Du        
  28591 ****         0.0000 -18.2500 -15.2500 Du        
  28592 ****         0.0000 -18.2500 -15.0000 Du        
  28593 ****         0.0000 -18.2500 -14.7500 Du        
  28594 ****         0.0000 -18.0000 -29.2500 Du        
  28595 ****         0.0000 -18.0000 -29.0000 Du        
  28596 ****         0.0000 -18.0000 -28.7500 Du        
  28597 ****         0.0000 -18.0000 -28.5000 Du        
  28598 ****         0.0000 -18.0000 -28.2500 Du        
  28599 ****         0.0000 -18.0000 -28.0000 Du        
  28600 ****         0.0000 -18.0000 -15.7500 Du        
  28601 ****         0.0000 -18.0000 -15.5000 Du        
  28602 ****         0.0000 -18.0000 -15.2500 Du        
  28603 ****         0.0000 -18.0000 -15.0000 Du        
  28604 ****         0.0000 -18.0000 -14.7500 Du        
  28605 ****         0.0000 -17.7500 -29.0000 Du        
  28606 ****         0.0000 -17.7500 -28.7500 Du        
  28607 ****         0.0000 -17.7500 -28.5000 Du        
  28608 ****         0.0000 -17.7500 -28.2500 Du        
  28609 ****         0.0000 -17.7500 -28.0000 Du        
  28610 ****         0.0000 -17.7500 -16.0000 Du        
  28611 ****         0.0000 -17.7500 -15.7500 Du        
  28612 ****         0.0000 -17.7500 -15.5000 Du        
  28613 ****         0.0000 -17.7500 -15.2500 Du        
  28614 ****         0.0000 -17.7500 -15.0000 Du        
  28615 ****         0.0000 -17.5000 -29.0000 Du        
  28616 ****         0.0000 -17.5000 -28.7500 Du        
  28617 ****         0.0000 -17.5000 -28.5000 Du        
  28618 ****         0.0000 -17.5000 -28.2500 Du        
  28619 ****         0.0000 -17.5000 -28.0000 Du        
  28620 ****         0.0000 -17.5000 -27.7500 Du        
  28621 ****         0.0000 -17.5000 -15.5000 Du        
  28622 ****         0.0000 -17.2500 -29.0000 Du        
  28623 ****         0.0000 -17.2500 -28.7500 Du        
  28624 ****         0.0000 -17.2500 -28.5000 Du        
  28625 ****         0.0000 -17.2500 -28.2500 Du        
  28626 ****         0.0000 -17.2500 -28.0000 Du        
  28627 ****         0.0000 -17.2500 -27.7500 Du        
  28628 ****         0.0000 -17.0000 -28.7500 Du        
  28629 ****         0.0000 -17.0000 -28.5000 Du        
  28630 ****         0.0000 -17.0000 -28.2500 Du        
  28631 ****         0.0000 -17.0000 -28.0000 Du        
  28632 ****         0.0000 -17.0000 -27.7500 Du        
  28633 ****         0.0000 -17.0000 -27.5000 Du        
  28634 ****         0.0000 -16.7500 -28.7500 Du        
  28635 ****         0.0000 -16.7500 -28.5000 Du        
  28636 ****         0.0000 -16.7500 -28.2500 Du        
  28637 ****         0.0000 -16.7500 -28.0000 Du        
  28638 ****         0.0000 -16.7500 -27.7500 Du        
  28639 ****         0.0000 -16.7500 -27.5000 Du        
  28640 ****         0.0000 -16.5000 -28.7500 Du        
  28641 ****         0.0000 -16.5000 -28.5000 Du        
  28642 ****         0.0000 -16.5000 -28.2500 Du        
  28643 ****         0.0000 -16.5000 -28.0000 Du        
  28644 ****         0.0000 -16.5000 -27.7500 Du        
  28645 ****         0.0000 -16.5000 -27.5000 Du        
  28646 ****         0.0000 -16.2500 -28.7500 Du        
  28647 ****         0.0000 -16.2500 -28.5000 Du        
  28648 ****         0.0000 -16.2500 -28.2500 Du        
  28649 ****         0.0000 -16.2500 -28.0000 Du        
  28650 ****         0.0000 -16.2500 -27.7500 Du        
  28651 ****         0.0000 -16.2500 -27.5000 Du        
  28652 ****         0.0000 -16.0000 -29.0000 Du        
  28653 ****         0.0000 -16.0000 -28.7500 Du        
  28654 ****         0.0000 -16.0000 -28.5000 Du        
  28655 ****         0.0000 -16.0000 -28.2500 Du        
  28656 ****         0.0000 -16.0000 -28.0000 Du        
  28657 ****         0.0000 -16.0000 -27.7500 Du        
  28658 ****         0.0000 -16.0000 -27.5000 Du        
  28659 ****         0.0000 -15.7500 -29.0000 Du        
  28660 ****         0.0000 -15.7500 -28.7500 Du        
  28661 ****         0.0000 -15.7500 -28.5000 Du        
  28662 ****         0.0000 -15.7500 -28.2500 Du        
  28663 ****         0.0000 -15.7500 -28.0000 Du        
  28664 ****         0.0000 -15.7500 -27.7500 Du        
  28665 ****         0.0000 -15.7500 -27.5000 Du        
  28666 ****         0.0000 -15.5000 -29.0000 Du        
  28667 ****         0.0000 -15.5000 -28.7500 Du        
  28668 ****         0.0000 -15.5000 -28.5000 Du        
  28669 ****         0.0000 -15.5000 -28.2500 Du        
  28670 ****         0.0000 -15.5000 -28.0000 Du        
  28671 ****         0.0000 -15.5000 -27.7500 Du        
  28672 ****         0.0000 -15.2500 -29.0000 Du        
  28673 ****         0.0000 -15.2500 -28.7500 Du        
  28674 ****         0.0000 -15.2500 -28.5000 Du        
  28675 ****         0.0000 -15.2500 -28.2500 Du        
  28676 ****         0.0000 -15.2500 -28.0000 Du        
  28677 ****         0.0000 -15.2500 -27.7500 Du        
  28678 ****         0.0000 -15.0000 -29.0000 Du        
  28679 ****         0.0000 -15.0000 -28.7500 Du        
  28680 ****         0.0000 -15.0000 -28.5000 Du        
  28681 ****         0.0000 -15.0000 -28.2500 Du        
  28682 ****         0.0000 -15.0000 -28.0000 Du        
  28683 ****         0.0000 -15.0000 -27.7500 Du        
  28684 ****         0.0000 -14.7500 -29.0000 Du        
  28685 ****         0.0000 -14.7500 -28.7500 Du        
  28686 ****         0.0000 -14.7500 -28.5000 Du        
  28687 ****         0.0000 -14.7500 -28.2500 Du        
  28688 ****         0.0000 -14.7500 -28.0000 Du        
  28689 ****         0.0000 -14.5000 -28.7500 Du        
  28690 ****         0.0000  -3.7500 -27.7500 Du        
  28691 ****         0.0000  -3.7500 -27.5000 Du        
  28692 ****         0.0000  -3.7500 -27.2500 Du        
  28693 ****         0.0000  -3.7500 -27.0000 Du        
  28694 ****         0.0000  -3.5000 -28.5000 Du        
  28695 ****         0.0000  -3.5000 -28.2500 Du        
  28696 ****         0.0000  -3.5000 -28.0000 Du        
  28697 ****         0.0000  -3.5000 -27.7500 Du        
  28698 ****         0.0000  -3.5000 -27.5000 Du        
  28699 ****         0.0000  -3.5000 -27.2500 Du        
  28700 ****         0.0000  -3.5000 -27.0000 Du        
  28701 ****         0.0000  -3.2500 -29.2500 Du        
  28702 ****         0.0000  -3.2500 -29.0000 Du        
  28703 ****         0.0000  -3.2500 -28.7500 Du        
  28704 ****         0.0000  -3.2500 -28.5000 Du        
  28705 ****         0.0000  -3.2500 -28.2500 Du        
  28706 ****         0.0000  -3.2500 -28.0000 Du        
  28707 ****         0.0000  -3.2500 -27.7500 Du        
  28708 ****         0.0000  -3.2500 -27.5000 Du        
  28709 ****         0.0000  -3.2500 -27.2500 Du        
  28710 ****         0.0000  -3.2500 -27.0000 Du        
  28711 ****         0.0000  -3.0000 -29.5000 Du        
  28712 ****         0.0000  -3.0000 -29.2500 Du        
  28713 ****         0.0000  -3.0000 -29.0000 Du        
  28714 ****         0.0000  -3.0000 -28.7500 Du        
  28715 ****         0.0000  -3.0000 -28.5000 Du        
  28716 ****         0.0000  -3.0000 -28.2500 Du        
  28717 ****         0.0000  -3.0000 -28.0000 Du        
  28718 ****         0.0000  -3.0000 -27.7500 Du        
  28719 ****         0.0000  -3.0000 -27.5000 Du        
  28720 ****         0.0000  -3.0000 -27.2500 Du        
  28721 ****         0.0000  -3.0000 -27.0000 Du        
  28722 ****         0.0000  -3.0000 -26.7500 Du        
  28723 ****         0.0000  -2.7500 -29.5000 Du        
  28724 ****         0.0000  -2.7500 -29.2500 Du        
  28725 ****         0.0000  -2.7500 -29.0000 Du        
  28726 ****         0.0000  -2.7500 -28.7500 Du        
  28727 ****         0.0000  -2.7500 -28.5000 Du        
  28728 ****         0.0000  -2.7500 -28.2500 Du        
  28729 ****         0.0000  -2.7500 -28.0000 Du        
  28730 ****         0.0000  -2.7500 -27.7500 Du        
  28731 ****         0.0000  -2.7500 -27.5000 Du        
  28732 ****         0.0000  -2.7500 -27.2500 Du        
  28733 ****         0.0000  -2.7500 -27.0000 Du        
  28734 ****         0.0000  -2.7500 -26.7500 Du        
  28735 ****         0.0000  -2.5000 -29.5000 Du        
  28736 ****         0.0000  -2.5000 -29.2500 Du        
  28737 ****         0.0000  -2.5000 -29.0000 Du        
  28738 ****         0.0000  -2.5000 -28.7500 Du        
  28739 ****         0.0000  -2.5000 -28.5000 Du        
  28740 ****         0.0000  -2.5000 -28.2500 Du        
  28741 ****         0.0000  -2.5000 -28.0000 Du        
  28742 ****         0.0000  -2.5000 -27.7500 Du        
  28743 ****         0.0000  -2.5000 -27.5000 Du        
  28744 ****         0.0000  -2.5000 -27.2500 Du        
  28745 ****         0.0000  -2.5000 -27.0000 Du        
  28746 ****         0.0000  -2.5000 -26.7500 Du        
  28747 ****         0.0000  -2.2500 -29.2500 Du        
  28748 ****         0.0000  -2.2500 -29.0000 Du        
  28749 ****         0.0000  -2.2500 -28.7500 Du        
  28750 ****         0.0000  -2.2500 -28.5000 Du        
  28751 ****         0.0000  -2.2500 -28.2500 Du        
  28752 ****         0.0000  -2.2500 -28.0000 Du        
  28753 ****         0.0000  -2.2500 -27.7500 Du        
  28754 ****         0.2500 -29.0000 -14.7500 Du        
  28755 ****         0.2500 -29.0000 -14.5000 Du        
  28756 ****         0.2500 -28.7500 -14.5000 Du        
  28757 ****         0.2500 -28.5000 -14.5000 Du        
  28758 ****         0.2500 -28.5000 -14.2500 Du        
  28759 ****         0.2500 -28.2500 -14.5000 Du        
  28760 ****         0.2500 -28.2500 -14.2500 Du        
  28761 ****         0.2500 -28.0000 -14.5000 Du        
  28762 ****         0.2500 -28.0000 -14.2500 Du        
  28763 ****         0.2500 -28.0000 -14.0000 Du        
  28764 ****         0.2500 -27.7500 -14.5000 Du        
  28765 ****         0.2500 -27.7500 -14.2500 Du        
  28766 ****         0.2500 -27.7500 -14.0000 Du        
  28767 ****         0.2500 -27.5000 -14.5000 Du        
  28768 ****         0.2500 -27.5000 -14.2500 Du        
  28769 ****         0.2500 -27.5000 -14.0000 Du        
  28770 ****         0.2500 -27.2500 -14.5000 Du        
  28771 ****         0.2500 -27.2500 -14.2500 Du        
  28772 ****         0.2500 -27.2500 -14.0000 Du        
  28773 ****         0.2500 -27.2500 -13.7500 Du        
  28774 ****         0.2500 -27.0000 -14.5000 Du        
  28775 ****         0.2500 -27.0000 -14.2500 Du        
  28776 ****         0.2500 -27.0000 -14.0000 Du        
  28777 ****         0.2500 -27.0000 -13.7500 Du        
  28778 ****         0.2500 -26.7500 -14.5000 Du        
  28779 ****         0.2500 -26.7500 -14.2500 Du        
  28780 ****         0.2500 -26.7500 -14.0000 Du        
  28781 ****         0.2500 -26.7500 -13.7500 Du        
  28782 ****         0.2500 -26.7500 -13.5000 Du        
  28783 ****         0.2500 -26.5000 -14.5000 Du        
  28784 ****         0.2500 -26.5000 -14.2500 Du        
  28785 ****         0.2500 -26.5000 -14.0000 Du        
  28786 ****         0.2500 -26.5000 -13.7500 Du        
  28787 ****         0.2500 -26.5000 -13.5000 Du        
  28788 ****         0.2500 -26.2500 -14.5000 Du        
  28789 ****         0.2500 -26.2500 -14.2500 Du        
  28790 ****         0.2500 -26.2500 -14.0000 Du        
  28791 ****         0.2500 -26.2500 -13.7500 Du        
  28792 ****         0.2500 -26.2500 -13.5000 Du        
  28793 ****         0.2500 -26.2500 -13.2500 Du        
  28794 ****         0.2500 -26.0000 -14.5000 Du        
  28795 ****         0.2500 -26.0000 -14.2500 Du        
  28796 ****         0.2500 -26.0000 -14.0000 Du        
  28797 ****         0.2500 -26.0000 -13.7500 Du        
  28798 ****         0.2500 -26.0000 -13.5000 Du        
  28799 ****         0.2500 -26.0000 -13.2500 Du        
  28800 ****         0.2500 -26.0000 -13.0000 Du        
  28801 ****         0.2500 -26.0000 -12.7500 Du        
  28802 ****         0.2500 -25.7500 -14.5000 Du        
  28803 ****         0.2500 -25.7500 -14.2500 Du        
  28804 ****         0.2500 -25.7500 -14.0000 Du        
  28805 ****         0.2500 -25.7500 -13.7500 Du        
  28806 ****         0.2500 -25.7500 -13.5000 Du        
  28807 ****         0.2500 -25.7500 -13.2500 Du        
  28808 ****         0.2500 -25.7500 -13.0000 Du        
  28809 ****         0.2500 -25.7500 -12.7500 Du        
  28810 ****         0.2500 -25.7500 -12.5000 Du        
  28811 ****         0.2500 -25.5000 -14.7500 Du        
  28812 ****         0.2500 -25.5000 -14.5000 Du        
  28813 ****         0.2500 -25.5000 -14.2500 Du        
  28814 ****         0.2500 -25.5000 -14.0000 Du        
  28815 ****         0.2500 -25.5000 -13.7500 Du        
  28816 ****         0.2500 -25.5000 -13.5000 Du        
  28817 ****         0.2500 -25.5000 -13.2500 Du        
  28818 ****         0.2500 -25.5000 -13.0000 Du        
  28819 ****         0.2500 -25.5000 -12.7500 Du        
  28820 ****         0.2500 -25.5000 -12.5000 Du        
  28821 ****         0.2500 -25.5000 -12.2500 Du        
  28822 ****         0.2500 -25.5000 -12.0000 Du        
  28823 ****         0.2500 -25.2500 -15.0000 Du        
  28824 ****         0.2500 -25.2500 -14.7500 Du        
  28825 ****         0.2500 -25.2500 -14.5000 Du        
  28826 ****         0.2500 -25.2500 -14.2500 Du        
  28827 ****         0.2500 -25.2500 -14.0000 Du        
  28828 ****         0.2500 -25.2500 -13.7500 Du        
  28829 ****         0.2500 -25.2500 -13.5000 Du        
  28830 ****         0.2500 -25.2500 -13.2500 Du        
  28831 ****         0.2500 -25.2500 -13.0000 Du        
  28832 ****         0.2500 -25.2500 -12.7500 Du        
  28833 ****         0.2500 -25.2500 -12.5000 Du        
  28834 ****         0.2500 -25.2500 -12.2500 Du        
  28835 ****         0.2500 -25.0000 -15.0000 Du        
  28836 ****         0.2500 -25.0000 -14.7500 Du        
  28837 ****         0.2500 -25.0000 -14.5000 Du        
  28838 ****         0.2500 -25.0000 -14.2500 Du        
  28839 ****         0.2500 -25.0000 -14.0000 Du        
  28840 ****         0.2500 -25.0000 -13.7500 Du        
  28841 ****         0.2500 -25.0000 -13.5000 Du        
  28842 ****         0.2500 -25.0000 -13.2500 Du        
  28843 ****         0.2500 -25.0000 -13.0000 Du        
  28844 ****         0.2500 -25.0000 -12.7500 Du        
  28845 ****         0.2500 -24.7500 -15.0000 Du        
  28846 ****         0.2500 -24.7500 -14.7500 Du        
  28847 ****         0.2500 -24.7500 -14.5000 Du        
  28848 ****         0.2500 -24.7500 -14.2500 Du        
  28849 ****         0.2500 -24.7500 -14.0000 Du        
  28850 ****         0.2500 -24.7500 -13.7500 Du        
  28851 ****         0.2500 -24.7500 -13.5000 Du        
  28852 ****         0.2500 -24.7500 -13.2500 Du        
  28853 ****         0.2500 -24.5000 -15.2500 Du        
  28854 ****         0.2500 -24.5000 -15.0000 Du        
  28855 ****         0.2500 -24.5000 -14.7500 Du        
  28856 ****         0.2500 -24.5000 -14.5000 Du        
  28857 ****         0.2500 -24.5000 -14.2500 Du        
  28858 ****         0.2500 -24.5000 -14.0000 Du        
  28859 ****         0.2500 -24.5000 -13.7500 Du        
  28860 ****         0.2500 -24.2500 -15.2500 Du        
  28861 ****         0.2500 -24.2500 -15.0000 Du        
  28862 ****         0.2500 -24.2500 -14.7500 Du        
  28863 ****         0.2500 -24.2500 -14.5000 Du        
  28864 ****         0.2500 -24.2500 -14.2500 Du        
  28865 ****         0.2500 -24.2500 -14.0000 Du        
  28866 ****         0.2500 -24.2500 -13.7500 Du        
  28867 ****         0.2500 -24.0000 -15.7500 Du        
  28868 ****         0.2500 -24.0000 -15.5000 Du        
  28869 ****         0.2500 -24.0000 -15.2500 Du        
  28870 ****         0.2500 -24.0000 -15.0000 Du        
  28871 ****         0.2500 -24.0000 -14.7500 Du        
  28872 ****         0.2500 -24.0000 -14.5000 Du        
  28873 ****         0.2500 -24.0000 -14.2500 Du        
  28874 ****         0.2500 -24.0000 -14.0000 Du        
  28875 ****         0.2500 -23.7500 -15.7500 Du        
  28876 ****         0.2500 -23.7500 -15.5000 Du        
  28877 ****         0.2500 -23.7500 -15.2500 Du        
  28878 ****         0.2500 -23.7500 -15.0000 Du        
  28879 ****         0.2500 -23.7500 -14.7500 Du        
  28880 ****         0.2500 -23.7500 -14.5000 Du        
  28881 ****         0.2500 -23.7500 -14.2500 Du        
  28882 ****         0.2500 -23.5000 -16.0000 Du        
  28883 ****         0.2500 -23.5000 -15.7500 Du        
  28884 ****         0.2500 -23.5000 -15.5000 Du        
  28885 ****         0.2500 -23.5000 -15.2500 Du        
  28886 ****         0.2500 -23.5000 -15.0000 Du        
  28887 ****         0.2500 -23.5000 -14.7500 Du        
  28888 ****         0.2500 -23.5000 -14.5000 Du        
  28889 ****         0.2500 -23.2500 -16.0000 Du        
  28890 ****         0.2500 -23.2500 -15.7500 Du        
  28891 ****         0.2500 -23.2500 -15.5000 Du        
  28892 ****         0.2500 -23.2500 -15.2500 Du        
  28893 ****         0.2500 -23.2500 -15.0000 Du        
  28894 ****         0.2500 -23.2500 -14.7500 Du        
  28895 ****         0.2500 -23.0000 -16.2500 Du        
  28896 ****         0.2500 -23.0000 -16.0000 Du        
  28897 ****         0.2500 -23.0000 -15.7500 Du        
  28898 ****         0.2500 -23.0000 -15.5000 Du        
  28899 ****         0.2500 -23.0000 -15.2500 Du        
  28900 ****         0.2500 -23.0000 -15.0000 Du        
  28901 ****         0.2500 -23.0000 -14.7500 Du        
  28902 ****         0.2500 -22.7500 -16.2500 Du        
  28903 ****         0.2500 -22.7500 -16.0000 Du        
  28904 ****         0.2500 -22.7500 -15.7500 Du        
  28905 ****         0.2500 -22.7500 -15.5000 Du        
  28906 ****         0.2500 -22.7500 -15.2500 Du        
  28907 ****         0.2500 -22.7500 -15.0000 Du        
  28908 ****         0.2500 -22.7500 -14.7500 Du        
  28909 ****         0.2500 -22.5000 -16.2500 Du        
  28910 ****         0.2500 -22.5000 -16.0000 Du        
  28911 ****         0.2500 -22.5000 -15.7500 Du        
  28912 ****         0.2500 -22.5000 -15.5000 Du        
  28913 ****         0.2500 -22.5000 -15.2500 Du        
  28914 ****         0.2500 -22.5000 -15.0000 Du        
  28915 ****         0.2500 -22.5000 -14.7500 Du        
  28916 ****         0.2500 -22.2500 -16.7500 Du        
  28917 ****         0.2500 -22.2500 -16.5000 Du        
  28918 ****         0.2500 -22.2500 -16.2500 Du        
  28919 ****         0.2500 -22.2500 -16.0000 Du        
  28920 ****         0.2500 -22.2500 -15.7500 Du        
  28921 ****         0.2500 -22.2500 -15.5000 Du        
  28922 ****         0.2500 -22.2500 -15.2500 Du        
  28923 ****         0.2500 -22.2500 -15.0000 Du        
  28924 ****         0.2500 -22.0000 -16.7500 Du        
  28925 ****         0.2500 -22.0000 -16.5000 Du        
  28926 ****         0.2500 -22.0000 -16.2500 Du        
  28927 ****         0.2500 -22.0000 -16.0000 Du        
  28928 ****         0.2500 -22.0000 -15.7500 Du        
  28929 ****         0.2500 -22.0000 -15.5000 Du        
  28930 ****         0.2500 -22.0000 -15.2500 Du        
  28931 ****         0.2500 -22.0000 -15.0000 Du        
  28932 ****         0.2500 -21.7500 -16.7500 Du        
  28933 ****         0.2500 -21.7500 -16.5000 Du        
  28934 ****         0.2500 -21.7500 -16.2500 Du        
  28935 ****         0.2500 -21.7500 -16.0000 Du        
  28936 ****         0.2500 -21.7500 -15.7500 Du        
  28937 ****         0.2500 -21.7500 -15.5000 Du        
  28938 ****         0.2500 -21.7500 -15.2500 Du        
  28939 ****         0.2500 -21.7500 -15.0000 Du        
  28940 ****         0.2500 -21.5000 -16.7500 Du        
  28941 ****         0.2500 -21.5000 -16.5000 Du        
  28942 ****         0.2500 -21.5000 -16.2500 Du        
  28943 ****         0.2500 -21.5000 -16.0000 Du        
  28944 ****         0.2500 -21.5000 -15.7500 Du        
  28945 ****         0.2500 -21.2500 -16.7500 Du        
  28946 ****         0.2500 -21.2500 -16.5000 Du        
  28947 ****         0.2500 -21.2500 -16.2500 Du        
  28948 ****         0.2500 -21.2500 -16.0000 Du        
  28949 ****         0.2500 -21.2500 -15.7500 Du        
  28950 ****         0.2500 -21.0000 -16.7500 Du        
  28951 ****         0.2500 -21.0000 -16.5000 Du        
  28952 ****         0.2500 -21.0000 -16.2500 Du        
  28953 ****         0.2500 -21.0000 -16.0000 Du        
  28954 ****         0.2500 -21.0000 -15.7500 Du        
  28955 ****         0.2500 -21.0000 -15.0000 Du        
  28956 ****         0.2500 -20.7500 -16.7500 Du        
  28957 ****         0.2500 -20.7500 -16.5000 Du        
  28958 ****         0.2500 -20.7500 -16.2500 Du        
  28959 ****         0.2500 -20.7500 -16.0000 Du        
  28960 ****         0.2500 -20.7500 -15.7500 Du        
  28961 ****         0.2500 -20.7500 -15.5000 Du        
  28962 ****         0.2500 -20.7500 -15.2500 Du        
  28963 ****         0.2500 -20.7500 -15.0000 Du        
  28964 ****         0.2500 -20.5000 -15.7500 Du        
  28965 ****         0.2500 -20.5000 -15.2500 Du        
  28966 ****         0.2500 -20.5000 -15.0000 Du        
  28967 ****         0.2500 -20.2500 -15.7500 Du        
  28968 ****         0.2500 -20.2500 -15.5000 Du        
  28969 ****         0.2500 -20.2500 -15.2500 Du        
  28970 ****         0.2500 -20.2500 -15.0000 Du        
  28971 ****         0.2500 -20.0000 -16.0000 Du        
  28972 ****         0.2500 -20.0000 -15.7500 Du        
  28973 ****         0.2500 -20.0000 -15.5000 Du        
  28974 ****         0.2500 -20.0000 -15.2500 Du        
  28975 ****         0.2500 -20.0000 -15.0000 Du        
  28976 ****         0.2500 -20.0000 -14.7500 Du        
  28977 ****         0.2500 -19.7500 -16.0000 Du        
  28978 ****         0.2500 -19.7500 -15.7500 Du        
  28979 ****         0.2500 -19.7500 -15.5000 Du        
  28980 ****         0.2500 -19.7500 -15.2500 Du        
  28981 ****         0.2500 -19.7500 -15.0000 Du        
  28982 ****         0.2500 -19.7500 -14.7500 Du        
  28983 ****         0.2500 -19.5000 -15.7500 Du        
  28984 ****         0.2500 -19.5000 -15.5000 Du        
  28985 ****         0.2500 -19.5000 -15.2500 Du        
  28986 ****         0.2500 -19.5000 -15.0000 Du        
  28987 ****         0.2500 -19.5000 -14.7500 Du        
  28988 ****         0.2500 -19.5000 -14.5000 Du        
  28989 ****         0.2500 -19.2500 -15.7500 Du        
  28990 ****         0.2500 -19.2500 -15.5000 Du        
  28991 ****         0.2500 -19.2500 -15.2500 Du        
  28992 ****         0.2500 -19.2500 -15.0000 Du        
  28993 ****         0.2500 -19.2500 -14.7500 Du        
  28994 ****         0.2500 -19.2500 -14.5000 Du        
  28995 ****         0.2500 -19.0000 -28.7500 Du        
  28996 ****         0.2500 -19.0000 -28.5000 Du        
  28997 ****         0.2500 -19.0000 -15.7500 Du        
  28998 ****         0.2500 -19.0000 -15.5000 Du        
  28999 ****         0.2500 -19.0000 -15.2500 Du        
  29000 ****         0.2500 -19.0000 -15.0000 Du        
  29001 ****         0.2500 -19.0000 -14.7500 Du        
  29002 ****         0.2500 -19.0000 -14.5000 Du        
  29003 ****         0.2500 -18.7500 -29.0000 Du        
  29004 ****         0.2500 -18.7500 -28.7500 Du        
  29005 ****         0.2500 -18.7500 -28.5000 Du        
  29006 ****         0.2500 -18.7500 -28.2500 Du        
  29007 ****         0.2500 -18.7500 -15.7500 Du        
  29008 ****         0.2500 -18.7500 -15.5000 Du        
  29009 ****         0.2500 -18.7500 -15.2500 Du        
  29010 ****         0.2500 -18.7500 -15.0000 Du        
  29011 ****         0.2500 -18.7500 -14.7500 Du        
  29012 ****         0.2500 -18.7500 -14.5000 Du        
  29013 ****         0.2500 -18.5000 -29.2500 Du        
  29014 ****         0.2500 -18.5000 -29.0000 Du        
  29015 ****         0.2500 -18.5000 -28.7500 Du        
  29016 ****         0.2500 -18.5000 -28.5000 Du        
  29017 ****         0.2500 -18.5000 -28.2500 Du        
  29018 ****         0.2500 -18.5000 -15.5000 Du        
  29019 ****         0.2500 -18.5000 -15.2500 Du        
  29020 ****         0.2500 -18.5000 -15.0000 Du        
  29021 ****         0.2500 -18.5000 -14.7500 Du        
  29022 ****         0.2500 -18.5000 -14.5000 Du        
  29023 ****         0.2500 -18.2500 -29.5000 Du        
  29024 ****         0.2500 -18.2500 -29.2500 Du        
  29025 ****         0.2500 -18.2500 -29.0000 Du        
  29026 ****         0.2500 -18.2500 -28.7500 Du        
  29027 ****         0.2500 -18.2500 -28.5000 Du        
  29028 ****         0.2500 -18.2500 -28.2500 Du        
  29029 ****         0.2500 -18.2500 -28.0000 Du        
  29030 ****         0.2500 -18.2500 -15.5000 Du        
  29031 ****         0.2500 -18.2500 -15.2500 Du        
  29032 ****         0.2500 -18.2500 -15.0000 Du        
  29033 ****         0.2500 -18.2500 -14.7500 Du        
  29034 ****         0.2500 -18.2500 -14.5000 Du        
  29035 ****         0.2500 -18.0000 -29.5000 Du        
  29036 ****         0.2500 -18.0000 -29.2500 Du        
  29037 ****         0.2500 -18.0000 -29.0000 Du        
  29038 ****         0.2500 -18.0000 -28.7500 Du        
  29039 ****         0.2500 -18.0000 -28.5000 Du        
  29040 ****         0.2500 -18.0000 -28.2500 Du        
  29041 ****         0.2500 -18.0000 -28.0000 Du        
  29042 ****         0.2500 -18.0000 -15.5000 Du        
  29043 ****         0.2500 -18.0000 -15.2500 Du        
  29044 ****         0.2500 -18.0000 -15.0000 Du        
  29045 ****         0.2500 -18.0000 -14.7500 Du        
  29046 ****         0.2500 -17.7500 -29.5000 Du        
  29047 ****         0.2500 -17.7500 -29.2500 Du        
  29048 ****         0.2500 -17.7500 -29.0000 Du        
  29049 ****         0.2500 -17.7500 -28.7500 Du        
  29050 ****         0.2500 -17.7500 -28.5000 Du        
  29051 ****         0.2500 -17.7500 -28.2500 Du        
  29052 ****         0.2500 -17.7500 -28.0000 Du        
  29053 ****         0.2500 -17.7500 -27.7500 Du        
  29054 ****         0.2500 -17.7500 -15.5000 Du        
  29055 ****         0.2500 -17.7500 -15.2500 Du        
  29056 ****         0.2500 -17.7500 -15.0000 Du        
  29057 ****         0.2500 -17.5000 -29.2500 Du        
  29058 ****         0.2500 -17.5000 -29.0000 Du        
  29059 ****         0.2500 -17.5000 -28.7500 Du        
  29060 ****         0.2500 -17.5000 -28.5000 Du        
  29061 ****         0.2500 -17.5000 -28.2500 Du        
  29062 ****         0.2500 -17.5000 -28.0000 Du        
  29063 ****         0.2500 -17.5000 -27.7500 Du        
  29064 ****         0.2500 -17.2500 -29.2500 Du        
  29065 ****         0.2500 -17.2500 -29.0000 Du        
  29066 ****         0.2500 -17.2500 -28.7500 Du        
  29067 ****         0.2500 -17.2500 -28.5000 Du        
  29068 ****         0.2500 -17.2500 -28.2500 Du        
  29069 ****         0.2500 -17.2500 -28.0000 Du        
  29070 ****         0.2500 -17.2500 -27.7500 Du        
  29071 ****         0.2500 -17.0000 -29.2500 Du        
  29072 ****         0.2500 -17.0000 -29.0000 Du        
  29073 ****         0.2500 -17.0000 -28.7500 Du        
  29074 ****         0.2500 -17.0000 -28.5000 Du        
  29075 ****         0.2500 -17.0000 -28.2500 Du        
  29076 ****         0.2500 -17.0000 -28.0000 Du        
  29077 ****         0.2500 -17.0000 -27.7500 Du        
  29078 ****         0.2500 -16.7500 -29.2500 Du        
  29079 ****         0.2500 -16.7500 -29.0000 Du        
  29080 ****         0.2500 -16.7500 -28.7500 Du        
  29081 ****         0.2500 -16.7500 -28.5000 Du        
  29082 ****         0.2500 -16.7500 -28.2500 Du        
  29083 ****         0.2500 -16.7500 -28.0000 Du        
  29084 ****         0.2500 -16.7500 -27.7500 Du        
  29085 ****         0.2500 -16.5000 -29.2500 Du        
  29086 ****         0.2500 -16.5000 -29.0000 Du        
  29087 ****         0.2500 -16.5000 -28.7500 Du        
  29088 ****         0.2500 -16.5000 -28.5000 Du        
  29089 ****         0.2500 -16.5000 -28.2500 Du        
  29090 ****         0.2500 -16.5000 -28.0000 Du        
  29091 ****         0.2500 -16.5000 -27.7500 Du        
  29092 ****         0.2500 -16.2500 -29.2500 Du        
  29093 ****         0.2500 -16.2500 -29.0000 Du        
  29094 ****         0.2500 -16.2500 -28.7500 Du        
  29095 ****         0.2500 -16.2500 -28.5000 Du        
  29096 ****         0.2500 -16.2500 -28.2500 Du        
  29097 ****         0.2500 -16.2500 -28.0000 Du        
  29098 ****         0.2500 -16.2500 -27.7500 Du        
  29099 ****         0.2500 -16.0000 -29.2500 Du        
  29100 ****         0.2500 -16.0000 -29.0000 Du        
  29101 ****         0.2500 -16.0000 -28.7500 Du        
  29102 ****         0.2500 -16.0000 -28.5000 Du        
  29103 ****         0.2500 -16.0000 -28.2500 Du        
  29104 ****         0.2500 -16.0000 -28.0000 Du        
  29105 ****         0.2500 -16.0000 -27.7500 Du        
  29106 ****         0.2500 -15.7500 -29.5000 Du        
  29107 ****         0.2500 -15.7500 -29.2500 Du        
  29108 ****         0.2500 -15.7500 -29.0000 Du        
  29109 ****         0.2500 -15.7500 -28.7500 Du        
  29110 ****         0.2500 -15.7500 -28.5000 Du        
  29111 ****         0.2500 -15.7500 -28.2500 Du        
  29112 ****         0.2500 -15.7500 -28.0000 Du        
  29113 ****         0.2500 -15.7500 -27.7500 Du        
  29114 ****         0.2500 -15.5000 -29.5000 Du        
  29115 ****         0.2500 -15.5000 -29.2500 Du        
  29116 ****         0.2500 -15.5000 -29.0000 Du        
  29117 ****         0.2500 -15.5000 -28.7500 Du        
  29118 ****         0.2500 -15.5000 -28.5000 Du        
  29119 ****         0.2500 -15.5000 -28.2500 Du        
  29120 ****         0.2500 -15.5000 -28.0000 Du        
  29121 ****         0.2500 -15.2500 -29.5000 Du        
  29122 ****         0.2500 -15.2500 -29.2500 Du        
  29123 ****         0.2500 -15.2500 -29.0000 Du        
  29124 ****         0.2500 -15.2500 -28.7500 Du        
  29125 ****         0.2500 -15.2500 -28.5000 Du        
  29126 ****         0.2500 -15.2500 -28.2500 Du        
  29127 ****         0.2500 -15.2500 -28.0000 Du        
  29128 ****         0.2500 -15.0000 -29.5000 Du        
  29129 ****         0.2500 -15.0000 -29.2500 Du        
  29130 ****         0.2500 -15.0000 -29.0000 Du        
  29131 ****         0.2500 -15.0000 -28.7500 Du        
  29132 ****         0.2500 -15.0000 -28.5000 Du        
  29133 ****         0.2500 -15.0000 -28.2500 Du        
  29134 ****         0.2500 -15.0000 -28.0000 Du        
  29135 ****         0.2500 -14.7500 -29.5000 Du        
  29136 ****         0.2500 -14.7500 -29.2500 Du        
  29137 ****         0.2500 -14.7500 -29.0000 Du        
  29138 ****         0.2500 -14.7500 -28.7500 Du        
  29139 ****         0.2500 -14.7500 -28.5000 Du        
  29140 ****         0.2500 -14.7500 -28.2500 Du        
  29141 ****         0.2500 -14.5000 -29.5000 Du        
  29142 ****         0.2500 -14.5000 -29.2500 Du        
  29143 ****         0.2500 -14.5000 -29.0000 Du        
  29144 ****         0.2500 -14.5000 -28.7500 Du        
  29145 ****         0.2500 -14.2500 -29.2500 Du        
  29146 ****         0.2500 -14.2500 -29.0000 Du        
  29147 ****         0.2500  -3.7500 -27.2500 Du        
  29148 ****         0.2500  -3.5000 -28.2500 Du        
  29149 ****         0.2500  -3.5000 -28.0000 Du        
  29150 ****         0.2500  -3.5000 -27.7500 Du        
  29151 ****         0.2500  -3.5000 -27.5000 Du        
  29152 ****         0.2500  -3.5000 -27.2500 Du        
  29153 ****         0.2500  -3.5000 -27.0000 Du        
  29154 ****         0.2500  -3.2500 -28.7500 Du        
  29155 ****         0.2500  -3.2500 -28.5000 Du        
  29156 ****         0.2500  -3.2500 -28.2500 Du        
  29157 ****         0.2500  -3.2500 -28.0000 Du        
  29158 ****         0.2500  -3.2500 -27.7500 Du        
  29159 ****         0.2500  -3.2500 -27.5000 Du        
  29160 ****         0.2500  -3.2500 -27.2500 Du        
  29161 ****         0.2500  -3.2500 -27.0000 Du        
  29162 ****         0.2500  -3.2500 -26.7500 Du        
  29163 ****         0.2500  -3.0000 -29.2500 Du        
  29164 ****         0.2500  -3.0000 -29.0000 Du        
  29165 ****         0.2500  -3.0000 -28.7500 Du        
  29166 ****         0.2500  -3.0000 -28.5000 Du        
  29167 ****         0.2500  -3.0000 -28.2500 Du        
  29168 ****         0.2500  -3.0000 -28.0000 Du        
  29169 ****         0.2500  -3.0000 -27.7500 Du        
  29170 ****         0.2500  -3.0000 -27.5000 Du        
  29171 ****         0.2500  -3.0000 -27.2500 Du        
  29172 ****         0.2500  -3.0000 -27.0000 Du        
  29173 ****         0.2500  -3.0000 -26.7500 Du        
  29174 ****         0.2500  -2.7500 -29.2500 Du        
  29175 ****         0.2500  -2.7500 -29.0000 Du        
  29176 ****         0.2500  -2.7500 -28.7500 Du        
  29177 ****         0.2500  -2.7500 -28.5000 Du        
  29178 ****         0.2500  -2.7500 -28.2500 Du        
  29179 ****         0.2500  -2.7500 -28.0000 Du        
  29180 ****         0.2500  -2.7500 -27.7500 Du        
  29181 ****         0.2500  -2.7500 -27.5000 Du        
  29182 ****         0.2500  -2.7500 -27.2500 Du        
  29183 ****         0.2500  -2.7500 -27.0000 Du        
  29184 ****         0.2500  -2.7500 -26.7500 Du        
  29185 ****         0.2500  -2.5000 -29.2500 Du        
  29186 ****         0.2500  -2.5000 -29.0000 Du        
  29187 ****         0.2500  -2.5000 -28.7500 Du        
  29188 ****         0.2500  -2.5000 -28.5000 Du        
  29189 ****         0.2500  -2.5000 -28.2500 Du        
  29190 ****         0.2500  -2.5000 -28.0000 Du        
  29191 ****         0.2500  -2.5000 -27.7500 Du        
  29192 ****         0.2500  -2.5000 -27.5000 Du        
  29193 ****         0.2500  -2.5000 -27.2500 Du        
  29194 ****         0.2500  -2.5000 -27.0000 Du        
  29195 ****         0.2500  -2.2500 -29.0000 Du        
  29196 ****         0.2500  -2.2500 -28.7500 Du        
  29197 ****         0.2500  -2.2500 -28.5000 Du        
  29198 ****         0.2500  -2.2500 -28.2500 Du        
  29199 ****         0.2500  -2.2500 -28.0000 Du        
  29200 ****         0.2500  -2.2500 -27.7500 Du        
  29201 ****         0.5000 -29.0000 -14.7500 Du        
  29202 ****         0.5000 -29.0000 -14.5000 Du        
  29203 ****         0.5000 -28.7500 -14.5000 Du        
  29204 ****         0.5000 -28.7500 -14.2500 Du        
  29205 ****         0.5000 -28.5000 -14.5000 Du        
  29206 ****         0.5000 -28.5000 -14.2500 Du        
  29207 ****         0.5000 -28.2500 -14.5000 Du        
  29208 ****         0.5000 -28.2500 -14.2500 Du        
  29209 ****         0.5000 -28.0000 -14.5000 Du        
  29210 ****         0.5000 -28.0000 -14.2500 Du        
  29211 ****         0.5000 -27.7500 -14.5000 Du        
  29212 ****         0.5000 -27.7500 -14.2500 Du        
  29213 ****         0.5000 -27.5000 -14.5000 Du        
  29214 ****         0.5000 -27.5000 -14.2500 Du        
  29215 ****         0.5000 -27.5000 -14.0000 Du        
  29216 ****         0.5000 -27.2500 -14.5000 Du        
  29217 ****         0.5000 -27.2500 -14.2500 Du        
  29218 ****         0.5000 -27.2500 -14.0000 Du        
  29219 ****         0.5000 -27.0000 -14.5000 Du        
  29220 ****         0.5000 -27.0000 -14.2500 Du        
  29221 ****         0.5000 -27.0000 -14.0000 Du        
  29222 ****         0.5000 -26.7500 -14.5000 Du        
  29223 ****         0.5000 -26.7500 -14.2500 Du        
  29224 ****         0.5000 -26.7500 -14.0000 Du        
  29225 ****         0.5000 -26.5000 -14.5000 Du        
  29226 ****         0.5000 -26.5000 -14.2500 Du        
  29227 ****         0.5000 -26.5000 -14.0000 Du        
  29228 ****         0.5000 -26.5000 -13.7500 Du        
  29229 ****         0.5000 -26.5000 -13.5000 Du        
  29230 ****         0.5000 -26.2500 -14.5000 Du        
  29231 ****         0.5000 -26.2500 -14.2500 Du        
  29232 ****         0.5000 -26.2500 -14.0000 Du        
  29233 ****         0.5000 -26.2500 -13.7500 Du        
  29234 ****         0.5000 -26.2500 -13.5000 Du        
  29235 ****         0.5000 -26.0000 -14.5000 Du        
  29236 ****         0.5000 -26.0000 -14.2500 Du        
  29237 ****         0.5000 -26.0000 -14.0000 Du        
  29238 ****         0.5000 -26.0000 -13.7500 Du        
  29239 ****         0.5000 -26.0000 -13.5000 Du        
  29240 ****         0.5000 -26.0000 -13.2500 Du        
  29241 ****         0.5000 -26.0000 -13.0000 Du        
  29242 ****         0.5000 -25.7500 -14.5000 Du        
  29243 ****         0.5000 -25.7500 -14.2500 Du        
  29244 ****         0.5000 -25.7500 -14.0000 Du        
  29245 ****         0.5000 -25.7500 -13.7500 Du        
  29246 ****         0.5000 -25.7500 -13.5000 Du        
  29247 ****         0.5000 -25.7500 -13.2500 Du        
  29248 ****         0.5000 -25.7500 -13.0000 Du        
  29249 ****         0.5000 -25.7500 -12.7500 Du        
  29250 ****         0.5000 -25.5000 -14.5000 Du        
  29251 ****         0.5000 -25.5000 -14.2500 Du        
  29252 ****         0.5000 -25.5000 -14.0000 Du        
  29253 ****         0.5000 -25.5000 -13.7500 Du        
  29254 ****         0.5000 -25.5000 -13.5000 Du        
  29255 ****         0.5000 -25.5000 -13.2500 Du        
  29256 ****         0.5000 -25.5000 -13.0000 Du        
  29257 ****         0.5000 -25.5000 -12.7500 Du        
  29258 ****         0.5000 -25.5000 -12.5000 Du        
  29259 ****         0.5000 -25.5000 -12.2500 Du        
  29260 ****         0.5000 -25.2500 -14.5000 Du        
  29261 ****         0.5000 -25.2500 -14.2500 Du        
  29262 ****         0.5000 -25.2500 -14.0000 Du        
  29263 ****         0.5000 -25.2500 -13.7500 Du        
  29264 ****         0.5000 -25.2500 -13.5000 Du        
  29265 ****         0.5000 -25.2500 -13.2500 Du        
  29266 ****         0.5000 -25.2500 -13.0000 Du        
  29267 ****         0.5000 -25.2500 -12.7500 Du        
  29268 ****         0.5000 -25.2500 -12.5000 Du        
  29269 ****         0.5000 -25.2500 -12.2500 Du        
  29270 ****         0.5000 -25.0000 -14.5000 Du        
  29271 ****         0.5000 -25.0000 -14.2500 Du        
  29272 ****         0.5000 -25.0000 -14.0000 Du        
  29273 ****         0.5000 -25.0000 -13.7500 Du        
  29274 ****         0.5000 -25.0000 -13.5000 Du        
  29275 ****         0.5000 -25.0000 -13.2500 Du        
  29276 ****         0.5000 -25.0000 -13.0000 Du        
  29277 ****         0.5000 -25.0000 -12.7500 Du        
  29278 ****         0.5000 -24.7500 -14.5000 Du        
  29279 ****         0.5000 -24.7500 -14.2500 Du        
  29280 ****         0.5000 -24.7500 -14.0000 Du        
  29281 ****         0.5000 -24.7500 -13.7500 Du        
  29282 ****         0.5000 -24.7500 -13.5000 Du        
  29283 ****         0.5000 -24.7500 -13.2500 Du        
  29284 ****         0.5000 -24.5000 -15.0000 Du        
  29285 ****         0.5000 -24.5000 -14.7500 Du        
  29286 ****         0.5000 -24.5000 -14.5000 Du        
  29287 ****         0.5000 -24.5000 -14.2500 Du        
  29288 ****         0.5000 -24.5000 -14.0000 Du        
  29289 ****         0.5000 -24.5000 -13.7500 Du        
  29290 ****         0.5000 -24.2500 -15.2500 Du        
  29291 ****         0.5000 -24.2500 -15.0000 Du        
  29292 ****         0.5000 -24.2500 -14.7500 Du        
  29293 ****         0.5000 -24.2500 -14.5000 Du        
  29294 ****         0.5000 -24.2500 -14.2500 Du        
  29295 ****         0.5000 -24.2500 -14.0000 Du        
  29296 ****         0.5000 -24.0000 -15.2500 Du        
  29297 ****         0.5000 -24.0000 -15.0000 Du        
  29298 ****         0.5000 -24.0000 -14.7500 Du        
  29299 ****         0.5000 -24.0000 -14.5000 Du        
  29300 ****         0.5000 -24.0000 -14.2500 Du        
  29301 ****         0.5000 -23.7500 -15.7500 Du        
  29302 ****         0.5000 -23.7500 -15.5000 Du        
  29303 ****         0.5000 -23.7500 -15.2500 Du        
  29304 ****         0.5000 -23.7500 -15.0000 Du        
  29305 ****         0.5000 -23.7500 -14.7500 Du        
  29306 ****         0.5000 -23.5000 -15.7500 Du        
  29307 ****         0.5000 -23.5000 -15.5000 Du        
  29308 ****         0.5000 -23.5000 -15.2500 Du        
  29309 ****         0.5000 -23.5000 -15.0000 Du        
  29310 ****         0.5000 -23.5000 -14.7500 Du        
  29311 ****         0.5000 -23.2500 -16.0000 Du        
  29312 ****         0.5000 -23.2500 -15.7500 Du        
  29313 ****         0.5000 -23.2500 -15.5000 Du        
  29314 ****         0.5000 -23.2500 -15.2500 Du        
  29315 ****         0.5000 -23.2500 -15.0000 Du        
  29316 ****         0.5000 -23.2500 -14.7500 Du        
  29317 ****         0.5000 -23.0000 -16.2500 Du        
  29318 ****         0.5000 -23.0000 -16.0000 Du        
  29319 ****         0.5000 -23.0000 -15.7500 Du        
  29320 ****         0.5000 -23.0000 -15.5000 Du        
  29321 ****         0.5000 -23.0000 -15.2500 Du        
  29322 ****         0.5000 -23.0000 -15.0000 Du        
  29323 ****         0.5000 -23.0000 -14.7500 Du        
  29324 ****         0.5000 -22.7500 -16.5000 Du        
  29325 ****         0.5000 -22.7500 -16.2500 Du        
  29326 ****         0.5000 -22.7500 -16.0000 Du        
  29327 ****         0.5000 -22.7500 -15.7500 Du        
  29328 ****         0.5000 -22.7500 -15.5000 Du        
  29329 ****         0.5000 -22.7500 -15.2500 Du        
  29330 ****         0.5000 -22.7500 -15.0000 Du        
  29331 ****         0.5000 -22.5000 -16.5000 Du        
  29332 ****         0.5000 -22.5000 -16.2500 Du        
  29333 ****         0.5000 -22.5000 -16.0000 Du        
  29334 ****         0.5000 -22.5000 -15.7500 Du        
  29335 ****         0.5000 -22.5000 -15.5000 Du        
  29336 ****         0.5000 -22.5000 -15.2500 Du        
  29337 ****         0.5000 -22.2500 -16.7500 Du        
  29338 ****         0.5000 -22.2500 -16.5000 Du        
  29339 ****         0.5000 -22.2500 -16.2500 Du        
  29340 ****         0.5000 -22.2500 -16.0000 Du        
  29341 ****         0.5000 -22.2500 -15.7500 Du        
  29342 ****         0.5000 -22.2500 -15.5000 Du        
  29343 ****         0.5000 -22.2500 -15.2500 Du        
  29344 ****         0.5000 -22.0000 -16.7500 Du        
  29345 ****         0.5000 -22.0000 -16.5000 Du        
  29346 ****         0.5000 -22.0000 -16.2500 Du        
  29347 ****         0.5000 -22.0000 -16.0000 Du        
  29348 ****         0.5000 -22.0000 -15.7500 Du        
  29349 ****         0.5000 -22.0000 -15.5000 Du        
  29350 ****         0.5000 -22.0000 -15.2500 Du        
  29351 ****         0.5000 -21.7500 -16.7500 Du        
  29352 ****         0.5000 -21.7500 -16.5000 Du        
  29353 ****         0.5000 -21.7500 -16.2500 Du        
  29354 ****         0.5000 -21.7500 -16.0000 Du        
  29355 ****         0.5000 -21.7500 -15.7500 Du        
  29356 ****         0.5000 -21.7500 -15.5000 Du        
  29357 ****         0.5000 -21.7500 -15.2500 Du        
  29358 ****         0.5000 -21.5000 -16.7500 Du        
  29359 ****         0.5000 -21.5000 -16.5000 Du        
  29360 ****         0.5000 -21.5000 -16.2500 Du        
  29361 ****         0.5000 -21.5000 -16.0000 Du        
  29362 ****         0.5000 -21.5000 -15.7500 Du        
  29363 ****         0.5000 -21.2500 -16.7500 Du        
  29364 ****         0.5000 -21.2500 -16.5000 Du        
  29365 ****         0.5000 -21.2500 -16.2500 Du        
  29366 ****         0.5000 -21.2500 -16.0000 Du        
  29367 ****         0.5000 -21.2500 -15.7500 Du        
  29368 ****         0.5000 -21.0000 -16.7500 Du        
  29369 ****         0.5000 -21.0000 -16.5000 Du        
  29370 ****         0.5000 -21.0000 -16.2500 Du        
  29371 ****         0.5000 -21.0000 -16.0000 Du        
  29372 ****         0.5000 -21.0000 -15.7500 Du        
  29373 ****         0.5000 -20.7500 -16.5000 Du        
  29374 ****         0.5000 -20.7500 -16.2500 Du        
  29375 ****         0.5000 -20.7500 -16.0000 Du        
  29376 ****         0.5000 -20.7500 -15.7500 Du        
  29377 ****         0.5000 -20.5000 -16.2500 Du        
  29378 ****         0.5000 -20.5000 -16.0000 Du        
  29379 ****         0.5000 -20.2500 -16.0000 Du        
  29380 ****         0.5000 -20.2500 -15.0000 Du        
  29381 ****         0.5000 -20.0000 -15.2500 Du        
  29382 ****         0.5000 -20.0000 -15.0000 Du        
  29383 ****         0.5000 -19.7500 -15.5000 Du        
  29384 ****         0.5000 -19.7500 -15.2500 Du        
  29385 ****         0.5000 -19.7500 -15.0000 Du        
  29386 ****         0.5000 -19.7500 -14.7500 Du        
  29387 ****         0.5000 -19.5000 -28.5000 Du        
  29388 ****         0.5000 -19.5000 -15.2500 Du        
  29389 ****         0.5000 -19.5000 -15.0000 Du        
  29390 ****         0.5000 -19.5000 -14.7500 Du        
  29391 ****         0.5000 -19.5000 -14.5000 Du        
  29392 ****         0.5000 -19.2500 -29.0000 Du        
  29393 ****         0.5000 -19.2500 -28.7500 Du        
  29394 ****         0.5000 -19.2500 -28.5000 Du        
  29395 ****         0.5000 -19.2500 -28.2500 Du        
  29396 ****         0.5000 -19.2500 -15.5000 Du        
  29397 ****         0.5000 -19.2500 -15.2500 Du        
  29398 ****         0.5000 -19.2500 -15.0000 Du        
  29399 ****         0.5000 -19.2500 -14.7500 Du        
  29400 ****         0.5000 -19.2500 -14.5000 Du        
  29401 ****         0.5000 -19.2500 -14.2500 Du        
  29402 ****         0.5000 -19.0000 -29.0000 Du        
  29403 ****         0.5000 -19.0000 -28.7500 Du        
  29404 ****         0.5000 -19.0000 -28.5000 Du        
  29405 ****         0.5000 -19.0000 -28.2500 Du        
  29406 ****         0.5000 -19.0000 -15.5000 Du        
  29407 ****         0.5000 -19.0000 -15.2500 Du        
  29408 ****         0.5000 -19.0000 -15.0000 Du        
  29409 ****         0.5000 -19.0000 -14.7500 Du        
  29410 ****         0.5000 -19.0000 -14.5000 Du        
  29411 ****         0.5000 -19.0000 -14.2500 Du        
  29412 ****         0.5000 -18.7500 -29.2500 Du        
  29413 ****         0.5000 -18.7500 -29.0000 Du        
  29414 ****         0.5000 -18.7500 -28.7500 Du        
  29415 ****         0.5000 -18.7500 -28.5000 Du        
  29416 ****         0.5000 -18.7500 -28.2500 Du        
  29417 ****         0.5000 -18.7500 -28.0000 Du        
  29418 ****         0.5000 -18.7500 -15.5000 Du        
  29419 ****         0.5000 -18.7500 -15.2500 Du        
  29420 ****         0.5000 -18.7500 -15.0000 Du        
  29421 ****         0.5000 -18.7500 -14.7500 Du        
  29422 ****         0.5000 -18.7500 -14.5000 Du        
  29423 ****         0.5000 -18.7500 -14.2500 Du        
  29424 ****         0.5000 -18.5000 -29.5000 Du        
  29425 ****         0.5000 -18.5000 -29.2500 Du        
  29426 ****         0.5000 -18.5000 -29.0000 Du        
  29427 ****         0.5000 -18.5000 -28.7500 Du        
  29428 ****         0.5000 -18.5000 -28.5000 Du        
  29429 ****         0.5000 -18.5000 -28.2500 Du        
  29430 ****         0.5000 -18.5000 -28.0000 Du        
  29431 ****         0.5000 -18.5000 -15.5000 Du        
  29432 ****         0.5000 -18.5000 -15.2500 Du        
  29433 ****         0.5000 -18.5000 -15.0000 Du        
  29434 ****         0.5000 -18.5000 -14.7500 Du        
  29435 ****         0.5000 -18.5000 -14.5000 Du        
  29436 ****         0.5000 -18.5000 -14.2500 Du        
  29437 ****         0.5000 -18.2500 -29.7500 Du        
  29438 ****         0.5000 -18.2500 -29.5000 Du        
  29439 ****         0.5000 -18.2500 -29.2500 Du        
  29440 ****         0.5000 -18.2500 -29.0000 Du        
  29441 ****         0.5000 -18.2500 -28.7500 Du        
  29442 ****         0.5000 -18.2500 -28.5000 Du        
  29443 ****         0.5000 -18.2500 -28.2500 Du        
  29444 ****         0.5000 -18.2500 -28.0000 Du        
  29445 ****         0.5000 -18.2500 -15.5000 Du        
  29446 ****         0.5000 -18.2500 -15.2500 Du        
  29447 ****         0.5000 -18.2500 -15.0000 Du        
  29448 ****         0.5000 -18.2500 -14.7500 Du        
  29449 ****         0.5000 -18.2500 -14.5000 Du        
  29450 ****         0.5000 -18.0000 -29.7500 Du        
  29451 ****         0.5000 -18.0000 -29.5000 Du        
  29452 ****         0.5000 -18.0000 -29.2500 Du        
  29453 ****         0.5000 -18.0000 -29.0000 Du        
  29454 ****         0.5000 -18.0000 -28.7500 Du        
  29455 ****         0.5000 -18.0000 -28.5000 Du        
  29456 ****         0.5000 -18.0000 -28.2500 Du        
  29457 ****         0.5000 -18.0000 -28.0000 Du        
  29458 ****         0.5000 -18.0000 -15.5000 Du        
  29459 ****         0.5000 -18.0000 -15.2500 Du        
  29460 ****         0.5000 -18.0000 -15.0000 Du        
  29461 ****         0.5000 -18.0000 -14.7500 Du        
  29462 ****         0.5000 -17.7500 -29.7500 Du        
  29463 ****         0.5000 -17.7500 -29.5000 Du        
  29464 ****         0.5000 -17.7500 -29.2500 Du        
  29465 ****         0.5000 -17.7500 -29.0000 Du        
  29466 ****         0.5000 -17.7500 -28.7500 Du        
  29467 ****         0.5000 -17.7500 -28.5000 Du        
  29468 ****         0.5000 -17.7500 -28.2500 Du        
  29469 ****         0.5000 -17.7500 -28.0000 Du        
  29470 ****         0.5000 -17.7500 -27.7500 Du        
  29471 ****         0.5000 -17.7500 -15.5000 Du        
  29472 ****         0.5000 -17.7500 -15.2500 Du        
  29473 ****         0.5000 -17.7500 -15.0000 Du        
  29474 ****         0.5000 -17.5000 -29.5000 Du        
  29475 ****         0.5000 -17.5000 -29.2500 Du        
  29476 ****         0.5000 -17.5000 -29.0000 Du        
  29477 ****         0.5000 -17.5000 -28.7500 Du        
  29478 ****         0.5000 -17.5000 -28.5000 Du        
  29479 ****         0.5000 -17.5000 -28.2500 Du        
  29480 ****         0.5000 -17.5000 -28.0000 Du        
  29481 ****         0.5000 -17.5000 -27.7500 Du        
  29482 ****         0.5000 -17.2500 -29.5000 Du        
  29483 ****         0.5000 -17.2500 -29.2500 Du        
  29484 ****         0.5000 -17.2500 -29.0000 Du        
  29485 ****         0.5000 -17.2500 -28.7500 Du        
  29486 ****         0.5000 -17.2500 -28.5000 Du        
  29487 ****         0.5000 -17.2500 -28.2500 Du        
  29488 ****         0.5000 -17.2500 -28.0000 Du        
  29489 ****         0.5000 -17.2500 -27.7500 Du        
  29490 ****         0.5000 -17.0000 -29.5000 Du        
  29491 ****         0.5000 -17.0000 -29.2500 Du        
  29492 ****         0.5000 -17.0000 -29.0000 Du        
  29493 ****         0.5000 -17.0000 -28.7500 Du        
  29494 ****         0.5000 -17.0000 -28.5000 Du        
  29495 ****         0.5000 -17.0000 -28.2500 Du        
  29496 ****         0.5000 -17.0000 -28.0000 Du        
  29497 ****         0.5000 -17.0000 -27.7500 Du        
  29498 ****         0.5000 -16.7500 -29.5000 Du        
  29499 ****         0.5000 -16.7500 -29.2500 Du        
  29500 ****         0.5000 -16.7500 -29.0000 Du        
  29501 ****         0.5000 -16.7500 -28.7500 Du        
  29502 ****         0.5000 -16.7500 -28.5000 Du        
  29503 ****         0.5000 -16.7500 -28.2500 Du        
  29504 ****         0.5000 -16.7500 -28.0000 Du        
  29505 ****         0.5000 -16.7500 -27.7500 Du        
  29506 ****         0.5000 -16.5000 -29.5000 Du        
  29507 ****         0.5000 -16.5000 -29.2500 Du        
  29508 ****         0.5000 -16.5000 -29.0000 Du        
  29509 ****         0.5000 -16.5000 -28.7500 Du        
  29510 ****         0.5000 -16.5000 -28.5000 Du        
  29511 ****         0.5000 -16.5000 -28.2500 Du        
  29512 ****         0.5000 -16.5000 -28.0000 Du        
  29513 ****         0.5000 -16.2500 -29.5000 Du        
  29514 ****         0.5000 -16.2500 -29.2500 Du        
  29515 ****         0.5000 -16.2500 -29.0000 Du        
  29516 ****         0.5000 -16.2500 -28.7500 Du        
  29517 ****         0.5000 -16.2500 -28.5000 Du        
  29518 ****         0.5000 -16.2500 -28.2500 Du        
  29519 ****         0.5000 -16.2500 -28.0000 Du        
  29520 ****         0.5000 -16.0000 -29.5000 Du        
  29521 ****         0.5000 -16.0000 -29.2500 Du        
  29522 ****         0.5000 -16.0000 -29.0000 Du        
  29523 ****         0.5000 -16.0000 -28.7500 Du        
  29524 ****         0.5000 -16.0000 -28.5000 Du        
  29525 ****         0.5000 -16.0000 -28.2500 Du        
  29526 ****         0.5000 -16.0000 -28.0000 Du        
  29527 ****         0.5000 -15.7500 -29.7500 Du        
  29528 ****         0.5000 -15.7500 -29.5000 Du        
  29529 ****         0.5000 -15.7500 -29.2500 Du        
  29530 ****         0.5000 -15.7500 -29.0000 Du        
  29531 ****         0.5000 -15.7500 -28.7500 Du        
  29532 ****         0.5000 -15.7500 -28.5000 Du        
  29533 ****         0.5000 -15.7500 -28.2500 Du        
  29534 ****         0.5000 -15.5000 -29.7500 Du        
  29535 ****         0.5000 -15.5000 -29.5000 Du        
  29536 ****         0.5000 -15.5000 -29.2500 Du        
  29537 ****         0.5000 -15.5000 -29.0000 Du        
  29538 ****         0.5000 -15.5000 -28.7500 Du        
  29539 ****         0.5000 -15.5000 -28.5000 Du        
  29540 ****         0.5000 -15.5000 -28.2500 Du        
  29541 ****         0.5000 -15.2500 -29.7500 Du        
  29542 ****         0.5000 -15.2500 -29.5000 Du        
  29543 ****         0.5000 -15.2500 -29.2500 Du        
  29544 ****         0.5000 -15.2500 -29.0000 Du        
  29545 ****         0.5000 -15.2500 -28.7500 Du        
  29546 ****         0.5000 -15.2500 -28.5000 Du        
  29547 ****         0.5000 -15.2500 -28.2500 Du        
  29548 ****         0.5000 -15.0000 -29.7500 Du        
  29549 ****         0.5000 -15.0000 -29.5000 Du        
  29550 ****         0.5000 -15.0000 -29.2500 Du        
  29551 ****         0.5000 -15.0000 -29.0000 Du        
  29552 ****         0.5000 -15.0000 -28.7500 Du        
  29553 ****         0.5000 -15.0000 -28.5000 Du        
  29554 ****         0.5000 -15.0000 -28.2500 Du        
  29555 ****         0.5000 -14.7500 -29.7500 Du        
  29556 ****         0.5000 -14.7500 -29.5000 Du        
  29557 ****         0.5000 -14.7500 -29.2500 Du        
  29558 ****         0.5000 -14.7500 -29.0000 Du        
  29559 ****         0.5000 -14.7500 -28.7500 Du        
  29560 ****         0.5000 -14.7500 -28.5000 Du        
  29561 ****         0.5000 -14.5000 -29.7500 Du        
  29562 ****         0.5000 -14.5000 -29.5000 Du        
  29563 ****         0.5000 -14.5000 -29.2500 Du        
  29564 ****         0.5000 -14.5000 -29.0000 Du        
  29565 ****         0.5000 -14.5000 -28.7500 Du        
  29566 ****         0.5000 -14.2500 -29.7500 Du        
  29567 ****         0.5000 -14.2500 -29.5000 Du        
  29568 ****         0.5000 -14.2500 -29.2500 Du        
  29569 ****         0.5000 -14.2500 -29.0000 Du        
  29570 ****         0.5000 -14.0000 -29.7500 Du        
  29571 ****         0.5000 -13.7500 -29.7500 Du        
  29572 ****         0.5000  -3.5000 -28.0000 Du        
  29573 ****         0.5000  -3.5000 -27.7500 Du        
  29574 ****         0.5000  -3.5000 -27.5000 Du        
  29575 ****         0.5000  -3.5000 -27.2500 Du        
  29576 ****         0.5000  -3.5000 -27.0000 Du        
  29577 ****         0.5000  -3.2500 -28.5000 Du        
  29578 ****         0.5000  -3.2500 -28.2500 Du        
  29579 ****         0.5000  -3.2500 -28.0000 Du        
  29580 ****         0.5000  -3.2500 -27.7500 Du        
  29581 ****         0.5000  -3.2500 -27.5000 Du        
  29582 ****         0.5000  -3.2500 -27.2500 Du        
  29583 ****         0.5000  -3.2500 -27.0000 Du        
  29584 ****         0.5000  -3.2500 -26.7500 Du        
  29585 ****         0.5000  -3.0000 -29.0000 Du        
  29586 ****         0.5000  -3.0000 -28.7500 Du        
  29587 ****         0.5000  -3.0000 -28.5000 Du        
  29588 ****         0.5000  -3.0000 -28.2500 Du        
  29589 ****         0.5000  -3.0000 -28.0000 Du        
  29590 ****         0.5000  -3.0000 -27.7500 Du        
  29591 ****         0.5000  -3.0000 -27.5000 Du        
  29592 ****         0.5000  -3.0000 -27.2500 Du        
  29593 ****         0.5000  -3.0000 -27.0000 Du        
  29594 ****         0.5000  -3.0000 -26.7500 Du        
  29595 ****         0.5000  -2.7500 -29.0000 Du        
  29596 ****         0.5000  -2.7500 -28.7500 Du        
  29597 ****         0.5000  -2.7500 -28.5000 Du        
  29598 ****         0.5000  -2.7500 -28.2500 Du        
  29599 ****         0.5000  -2.7500 -28.0000 Du        
  29600 ****         0.5000  -2.7500 -27.7500 Du        
  29601 ****         0.5000  -2.7500 -27.5000 Du        
  29602 ****         0.5000  -2.7500 -27.2500 Du        
  29603 ****         0.5000  -2.7500 -27.0000 Du        
  29604 ****         0.5000  -2.5000 -28.7500 Du        
  29605 ****         0.5000  -2.5000 -28.5000 Du        
  29606 ****         0.5000  -2.5000 -28.2500 Du        
  29607 ****         0.5000  -2.5000 -28.0000 Du        
  29608 ****         0.5000  -2.5000 -27.7500 Du        
  29609 ****         0.5000  -2.5000 -27.5000 Du        
  29610 ****         0.5000  -2.5000 -27.2500 Du        
  29611 ****         0.5000  -2.2500 -28.7500 Du        
  29612 ****         0.5000  -2.2500 -28.5000 Du        
  29613 ****         0.5000  -2.2500 -28.2500 Du        
  29614 ****         0.5000  -2.2500 -28.0000 Du        
  29615 ****         0.7500 -29.0000 -14.7500 Du        
  29616 ****         0.7500 -29.0000 -14.5000 Du        
  29617 ****         0.7500 -29.0000 -14.2500 Du        
  29618 ****         0.7500 -28.7500 -14.5000 Du        
  29619 ****         0.7500 -28.7500 -14.2500 Du        
  29620 ****         0.7500 -28.5000 -14.5000 Du        
  29621 ****         0.7500 -28.5000 -14.2500 Du        
  29622 ****         0.7500 -28.2500 -14.5000 Du        
  29623 ****         0.7500 -28.2500 -14.2500 Du        
  29624 ****         0.7500 -28.0000 -14.5000 Du        
  29625 ****         0.7500 -28.0000 -14.2500 Du        
  29626 ****         0.7500 -27.7500 -14.5000 Du        
  29627 ****         0.7500 -27.7500 -14.2500 Du        
  29628 ****         0.7500 -27.5000 -14.5000 Du        
  29629 ****         0.7500 -27.5000 -14.2500 Du        
  29630 ****         0.7500 -27.2500 -14.5000 Du        
  29631 ****         0.7500 -27.2500 -14.2500 Du        
  29632 ****         0.7500 -27.0000 -14.5000 Du        
  29633 ****         0.7500 -27.0000 -14.2500 Du        
  29634 ****         0.7500 -27.0000 -14.0000 Du        
  29635 ****         0.7500 -26.7500 -14.5000 Du        
  29636 ****         0.7500 -26.7500 -14.2500 Du        
  29637 ****         0.7500 -26.7500 -14.0000 Du        
  29638 ****         0.7500 -26.5000 -14.5000 Du        
  29639 ****         0.7500 -26.5000 -14.2500 Du        
  29640 ****         0.7500 -26.5000 -14.0000 Du        
  29641 ****         0.7500 -26.5000 -13.7500 Du        
  29642 ****         0.7500 -26.2500 -14.5000 Du        
  29643 ****         0.7500 -26.2500 -14.2500 Du        
  29644 ****         0.7500 -26.2500 -14.0000 Du        
  29645 ****         0.7500 -26.2500 -13.7500 Du        
  29646 ****         0.7500 -26.0000 -14.5000 Du        
  29647 ****         0.7500 -26.0000 -14.2500 Du        
  29648 ****         0.7500 -26.0000 -14.0000 Du        
  29649 ****         0.7500 -26.0000 -13.7500 Du        
  29650 ****         0.7500 -26.0000 -13.5000 Du        
  29651 ****         0.7500 -26.0000 -13.2500 Du        
  29652 ****         0.7500 -25.7500 -14.5000 Du        
  29653 ****         0.7500 -25.7500 -14.2500 Du        
  29654 ****         0.7500 -25.7500 -14.0000 Du        
  29655 ****         0.7500 -25.7500 -13.7500 Du        
  29656 ****         0.7500 -25.7500 -13.5000 Du        
  29657 ****         0.7500 -25.7500 -13.2500 Du        
  29658 ****         0.7500 -25.7500 -13.0000 Du        
  29659 ****         0.7500 -25.5000 -14.5000 Du        
  29660 ****         0.7500 -25.5000 -14.2500 Du        
  29661 ****         0.7500 -25.5000 -14.0000 Du        
  29662 ****         0.7500 -25.5000 -13.7500 Du        
  29663 ****         0.7500 -25.5000 -13.5000 Du        
  29664 ****         0.7500 -25.5000 -13.2500 Du        
  29665 ****         0.7500 -25.5000 -13.0000 Du        
  29666 ****         0.7500 -25.5000 -12.7500 Du        
  29667 ****         0.7500 -25.5000 -12.5000 Du        
  29668 ****         0.7500 -25.2500 -14.5000 Du        
  29669 ****         0.7500 -25.2500 -14.2500 Du        
  29670 ****         0.7500 -25.2500 -14.0000 Du        
  29671 ****         0.7500 -25.2500 -13.7500 Du        
  29672 ****         0.7500 -25.2500 -13.5000 Du        
  29673 ****         0.7500 -25.2500 -13.2500 Du        
  29674 ****         0.7500 -25.2500 -13.0000 Du        
  29675 ****         0.7500 -25.2500 -12.7500 Du        
  29676 ****         0.7500 -25.2500 -12.5000 Du        
  29677 ****         0.7500 -25.0000 -14.7500 Du        
  29678 ****         0.7500 -25.0000 -14.5000 Du        
  29679 ****         0.7500 -25.0000 -14.2500 Du        
  29680 ****         0.7500 -25.0000 -14.0000 Du        
  29681 ****         0.7500 -25.0000 -13.7500 Du        
  29682 ****         0.7500 -25.0000 -13.5000 Du        
  29683 ****         0.7500 -25.0000 -13.2500 Du        
  29684 ****         0.7500 -25.0000 -13.0000 Du        
  29685 ****         0.7500 -25.0000 -12.7500 Du        
  29686 ****         0.7500 -24.7500 -14.7500 Du        
  29687 ****         0.7500 -24.7500 -14.5000 Du        
  29688 ****         0.7500 -24.7500 -14.2500 Du        
  29689 ****         0.7500 -24.7500 -14.0000 Du        
  29690 ****         0.7500 -24.7500 -13.7500 Du        
  29691 ****         0.7500 -24.7500 -13.5000 Du        
  29692 ****         0.7500 -24.7500 -13.2500 Du        
  29693 ****         0.7500 -24.5000 -15.0000 Du        
  29694 ****         0.7500 -24.5000 -14.7500 Du        
  29695 ****         0.7500 -24.5000 -14.5000 Du        
  29696 ****         0.7500 -24.5000 -14.2500 Du        
  29697 ****         0.7500 -24.5000 -14.0000 Du        
  29698 ****         0.7500 -24.5000 -13.7500 Du        
  29699 ****         0.7500 -24.2500 -15.0000 Du        
  29700 ****         0.7500 -24.2500 -14.7500 Du        
  29701 ****         0.7500 -24.2500 -14.5000 Du        
  29702 ****         0.7500 -24.2500 -14.2500 Du        
  29703 ****         0.7500 -24.2500 -14.0000 Du        
  29704 ****         0.7500 -24.0000 -15.2500 Du        
  29705 ****         0.7500 -24.0000 -15.0000 Du        
  29706 ****         0.7500 -24.0000 -14.7500 Du        
  29707 ****         0.7500 -24.0000 -14.5000 Du        
  29708 ****         0.7500 -24.0000 -14.2500 Du        
  29709 ****         0.7500 -23.7500 -15.7500 Du        
  29710 ****         0.7500 -23.7500 -15.5000 Du        
  29711 ****         0.7500 -23.7500 -15.2500 Du        
  29712 ****         0.7500 -23.7500 -15.0000 Du        
  29713 ****         0.7500 -23.7500 -14.7500 Du        
  29714 ****         0.7500 -23.5000 -15.7500 Du        
  29715 ****         0.7500 -23.5000 -15.5000 Du        
  29716 ****         0.7500 -23.5000 -15.2500 Du        
  29717 ****         0.7500 -23.5000 -15.0000 Du        
  29718 ****         0.7500 -23.5000 -14.7500 Du        
  29719 ****         0.7500 -23.2500 -16.2500 Du        
  29720 ****         0.7500 -23.2500 -16.0000 Du        
  29721 ****         0.7500 -23.2500 -15.7500 Du        
  29722 ****         0.7500 -23.2500 -15.5000 Du        
  29723 ****         0.7500 -23.2500 -15.2500 Du        
  29724 ****         0.7500 -23.2500 -15.0000 Du        
  29725 ****         0.7500 -23.2500 -14.7500 Du        
  29726 ****         0.7500 -23.0000 -16.2500 Du        
  29727 ****         0.7500 -23.0000 -16.0000 Du        
  29728 ****         0.7500 -23.0000 -15.7500 Du        
  29729 ****         0.7500 -23.0000 -15.5000 Du        
  29730 ****         0.7500 -23.0000 -15.2500 Du        
  29731 ****         0.7500 -23.0000 -15.0000 Du        
  29732 ****         0.7500 -23.0000 -14.7500 Du        
  29733 ****         0.7500 -22.7500 -16.5000 Du        
  29734 ****         0.7500 -22.7500 -16.2500 Du        
  29735 ****         0.7500 -22.7500 -16.0000 Du        
  29736 ****         0.7500 -22.7500 -15.7500 Du        
  29737 ****         0.7500 -22.7500 -15.5000 Du        
  29738 ****         0.7500 -22.7500 -15.2500 Du        
  29739 ****         0.7500 -22.7500 -15.0000 Du        
  29740 ****         0.7500 -22.5000 -16.7500 Du        
  29741 ****         0.7500 -22.5000 -16.5000 Du        
  29742 ****         0.7500 -22.5000 -16.2500 Du        
  29743 ****         0.7500 -22.5000 -16.0000 Du        
  29744 ****         0.7500 -22.5000 -15.7500 Du        
  29745 ****         0.7500 -22.5000 -15.5000 Du        
  29746 ****         0.7500 -22.5000 -15.2500 Du        
  29747 ****         0.7500 -22.2500 -16.7500 Du        
  29748 ****         0.7500 -22.2500 -16.5000 Du        
  29749 ****         0.7500 -22.2500 -16.2500 Du        
  29750 ****         0.7500 -22.2500 -16.0000 Du        
  29751 ****         0.7500 -22.2500 -15.7500 Du        
  29752 ****         0.7500 -22.2500 -15.5000 Du        
  29753 ****         0.7500 -22.2500 -15.2500 Du        
  29754 ****         0.7500 -22.0000 -17.0000 Du        
  29755 ****         0.7500 -22.0000 -16.7500 Du        
  29756 ****         0.7500 -22.0000 -16.5000 Du        
  29757 ****         0.7500 -22.0000 -16.2500 Du        
  29758 ****         0.7500 -22.0000 -16.0000 Du        
  29759 ****         0.7500 -22.0000 -15.7500 Du        
  29760 ****         0.7500 -22.0000 -15.5000 Du        
  29761 ****         0.7500 -22.0000 -15.2500 Du        
  29762 ****         0.7500 -21.7500 -17.0000 Du        
  29763 ****         0.7500 -21.7500 -16.7500 Du        
  29764 ****         0.7500 -21.7500 -16.5000 Du        
  29765 ****         0.7500 -21.7500 -16.2500 Du        
  29766 ****         0.7500 -21.7500 -16.0000 Du        
  29767 ****         0.7500 -21.7500 -15.7500 Du        
  29768 ****         0.7500 -21.7500 -15.5000 Du        
  29769 ****         0.7500 -21.7500 -15.2500 Du        
  29770 ****         0.7500 -21.5000 -17.0000 Du        
  29771 ****         0.7500 -21.5000 -16.7500 Du        
  29772 ****         0.7500 -21.5000 -16.5000 Du        
  29773 ****         0.7500 -21.5000 -16.2500 Du        
  29774 ****         0.7500 -21.5000 -16.0000 Du        
  29775 ****         0.7500 -21.5000 -15.7500 Du        
  29776 ****         0.7500 -21.2500 -16.7500 Du        
  29777 ****         0.7500 -21.2500 -16.5000 Du        
  29778 ****         0.7500 -21.2500 -16.2500 Du        
  29779 ****         0.7500 -21.2500 -16.0000 Du        
  29780 ****         0.7500 -21.2500 -15.7500 Du        
  29781 ****         0.7500 -21.0000 -16.7500 Du        
  29782 ****         0.7500 -21.0000 -16.5000 Du        
  29783 ****         0.7500 -21.0000 -16.2500 Du        
  29784 ****         0.7500 -21.0000 -16.0000 Du        
  29785 ****         0.7500 -21.0000 -15.7500 Du        
  29786 ****         0.7500 -20.7500 -28.5000 Du        
  29787 ****         0.7500 -20.7500 -16.7500 Du        
  29788 ****         0.7500 -20.7500 -16.5000 Du        
  29789 ****         0.7500 -20.7500 -16.2500 Du        
  29790 ****         0.7500 -20.7500 -16.0000 Du        
  29791 ****         0.7500 -20.7500 -15.7500 Du        
  29792 ****         0.7500 -20.5000 -28.5000 Du        
  29793 ****         0.7500 -20.5000 -28.2500 Du        
  29794 ****         0.7500 -20.5000 -16.0000 Du        
  29795 ****         0.7500 -20.5000 -15.7500 Du        
  29796 ****         0.7500 -20.2500 -28.5000 Du        
  29797 ****         0.7500 -20.2500 -28.2500 Du        
  29798 ****         0.7500 -20.2500 -16.2500 Du        
  29799 ****         0.7500 -20.2500 -16.0000 Du        
  29800 ****         0.7500 -20.2500 -15.7500 Du        
  29801 ****         0.7500 -20.2500 -15.0000 Du        
  29802 ****         0.7500 -20.0000 -28.7500 Du        
  29803 ****         0.7500 -20.0000 -28.5000 Du        
  29804 ****         0.7500 -20.0000 -28.2500 Du        
  29805 ****         0.7500 -20.0000 -15.2500 Du        
  29806 ****         0.7500 -20.0000 -15.0000 Du        
  29807 ****         0.7500 -20.0000 -14.7500 Du        
  29808 ****         0.7500 -19.7500 -28.7500 Du        
  29809 ****         0.7500 -19.7500 -28.5000 Du        
  29810 ****         0.7500 -19.7500 -28.2500 Du        
  29811 ****         0.7500 -19.7500 -15.5000 Du        
  29812 ****         0.7500 -19.7500 -15.2500 Du        
  29813 ****         0.7500 -19.7500 -15.0000 Du        
  29814 ****         0.7500 -19.7500 -14.7500 Du        
  29815 ****         0.7500 -19.7500 -14.5000 Du        
  29816 ****         0.7500 -19.5000 -29.0000 Du        
  29817 ****         0.7500 -19.5000 -28.7500 Du        
  29818 ****         0.7500 -19.5000 -28.5000 Du        
  29819 ****         0.7500 -19.5000 -28.2500 Du        
  29820 ****         0.7500 -19.5000 -28.0000 Du        
  29821 ****         0.7500 -19.5000 -15.2500 Du        
  29822 ****         0.7500 -19.5000 -15.0000 Du        
  29823 ****         0.7500 -19.5000 -14.7500 Du        
  29824 ****         0.7500 -19.5000 -14.5000 Du        
  29825 ****         0.7500 -19.5000 -14.2500 Du        
  29826 ****         0.7500 -19.2500 -29.2500 Du        
  29827 ****         0.7500 -19.2500 -29.0000 Du        
  29828 ****         0.7500 -19.2500 -28.7500 Du        
  29829 ****         0.7500 -19.2500 -28.5000 Du        
  29830 ****         0.7500 -19.2500 -28.2500 Du        
  29831 ****         0.7500 -19.2500 -28.0000 Du        
  29832 ****         0.7500 -19.2500 -15.5000 Du        
  29833 ****         0.7500 -19.2500 -15.2500 Du        
  29834 ****         0.7500 -19.2500 -15.0000 Du        
  29835 ****         0.7500 -19.2500 -14.7500 Du        
  29836 ****         0.7500 -19.2500 -14.5000 Du        
  29837 ****         0.7500 -19.2500 -14.2500 Du        
  29838 ****         0.7500 -19.0000 -29.2500 Du        
  29839 ****         0.7500 -19.0000 -29.0000 Du        
  29840 ****         0.7500 -19.0000 -28.7500 Du        
  29841 ****         0.7500 -19.0000 -28.5000 Du        
  29842 ****         0.7500 -19.0000 -28.2500 Du        
  29843 ****         0.7500 -19.0000 -28.0000 Du        
  29844 ****         0.7500 -19.0000 -15.5000 Du        
  29845 ****         0.7500 -19.0000 -15.2500 Du        
  29846 ****         0.7500 -19.0000 -15.0000 Du        
  29847 ****         0.7500 -19.0000 -14.7500 Du        
  29848 ****         0.7500 -19.0000 -14.5000 Du        
  29849 ****         0.7500 -19.0000 -14.2500 Du        
  29850 ****         0.7500 -19.0000 -14.0000 Du        
  29851 ****         0.7500 -18.7500 -29.5000 Du        
  29852 ****         0.7500 -18.7500 -29.2500 Du        
  29853 ****         0.7500 -18.7500 -29.0000 Du        
  29854 ****         0.7500 -18.7500 -28.7500 Du        
  29855 ****         0.7500 -18.7500 -28.5000 Du        
  29856 ****         0.7500 -18.7500 -28.2500 Du        
  29857 ****         0.7500 -18.7500 -28.0000 Du        
  29858 ****         0.7500 -18.7500 -15.5000 Du        
  29859 ****         0.7500 -18.7500 -15.2500 Du        
  29860 ****         0.7500 -18.7500 -15.0000 Du        
  29861 ****         0.7500 -18.7500 -14.7500 Du        
  29862 ****         0.7500 -18.7500 -14.5000 Du        
  29863 ****         0.7500 -18.7500 -14.2500 Du        
  29864 ****         0.7500 -18.7500 -14.0000 Du        
  29865 ****         0.7500 -18.5000 -29.5000 Du        
  29866 ****         0.7500 -18.5000 -29.2500 Du        
  29867 ****         0.7500 -18.5000 -29.0000 Du        
  29868 ****         0.7500 -18.5000 -28.7500 Du        
  29869 ****         0.7500 -18.5000 -28.5000 Du        
  29870 ****         0.7500 -18.5000 -28.2500 Du        
  29871 ****         0.7500 -18.5000 -28.0000 Du        
  29872 ****         0.7500 -18.5000 -15.5000 Du        
  29873 ****         0.7500 -18.5000 -15.2500 Du        
  29874 ****         0.7500 -18.5000 -15.0000 Du        
  29875 ****         0.7500 -18.5000 -14.7500 Du        
  29876 ****         0.7500 -18.5000 -14.5000 Du        
  29877 ****         0.7500 -18.5000 -14.2500 Du        
  29878 ****         0.7500 -18.2500 -29.7500 Du        
  29879 ****         0.7500 -18.2500 -29.5000 Du        
  29880 ****         0.7500 -18.2500 -29.2500 Du        
  29881 ****         0.7500 -18.2500 -29.0000 Du        
  29882 ****         0.7500 -18.2500 -28.7500 Du        
  29883 ****         0.7500 -18.2500 -28.5000 Du        
  29884 ****         0.7500 -18.2500 -28.2500 Du        
  29885 ****         0.7500 -18.2500 -28.0000 Du        
  29886 ****         0.7500 -18.2500 -15.5000 Du        
  29887 ****         0.7500 -18.2500 -15.2500 Du        
  29888 ****         0.7500 -18.2500 -15.0000 Du        
  29889 ****         0.7500 -18.2500 -14.7500 Du        
  29890 ****         0.7500 -18.2500 -14.5000 Du        
  29891 ****         0.7500 -18.2500 -14.2500 Du        
  29892 ****         0.7500 -18.0000 -29.7500 Du        
  29893 ****         0.7500 -18.0000 -29.5000 Du        
  29894 ****         0.7500 -18.0000 -29.2500 Du        
  29895 ****         0.7500 -18.0000 -29.0000 Du        
  29896 ****         0.7500 -18.0000 -28.7500 Du        
  29897 ****         0.7500 -18.0000 -28.5000 Du        
  29898 ****         0.7500 -18.0000 -28.2500 Du        
  29899 ****         0.7500 -18.0000 -28.0000 Du        
  29900 ****         0.7500 -18.0000 -27.7500 Du        
  29901 ****         0.7500 -18.0000 -15.5000 Du        
  29902 ****         0.7500 -18.0000 -15.2500 Du        
  29903 ****         0.7500 -18.0000 -15.0000 Du        
  29904 ****         0.7500 -18.0000 -14.7500 Du        
  29905 ****         0.7500 -18.0000 -14.5000 Du        
  29906 ****         0.7500 -17.7500 -29.7500 Du        
  29907 ****         0.7500 -17.7500 -29.5000 Du        
  29908 ****         0.7500 -17.7500 -29.2500 Du        
  29909 ****         0.7500 -17.7500 -29.0000 Du        
  29910 ****         0.7500 -17.7500 -28.7500 Du        
  29911 ****         0.7500 -17.7500 -28.5000 Du        
  29912 ****         0.7500 -17.7500 -28.2500 Du        
  29913 ****         0.7500 -17.7500 -28.0000 Du        
  29914 ****         0.7500 -17.7500 -27.7500 Du        
  29915 ****         0.7500 -17.7500 -15.2500 Du        
  29916 ****         0.7500 -17.7500 -15.0000 Du        
  29917 ****         0.7500 -17.5000 -29.7500 Du        
  29918 ****         0.7500 -17.5000 -29.5000 Du        
  29919 ****         0.7500 -17.5000 -29.2500 Du        
  29920 ****         0.7500 -17.5000 -29.0000 Du        
  29921 ****         0.7500 -17.5000 -28.7500 Du        
  29922 ****         0.7500 -17.5000 -28.5000 Du        
  29923 ****         0.7500 -17.5000 -28.2500 Du        
  29924 ****         0.7500 -17.5000 -28.0000 Du        
  29925 ****         0.7500 -17.5000 -27.7500 Du        
  29926 ****         0.7500 -17.2500 -29.7500 Du        
  29927 ****         0.7500 -17.2500 -29.5000 Du        
  29928 ****         0.7500 -17.2500 -29.2500 Du        
  29929 ****         0.7500 -17.2500 -29.0000 Du        
  29930 ****         0.7500 -17.2500 -28.7500 Du        
  29931 ****         0.7500 -17.2500 -28.5000 Du        
  29932 ****         0.7500 -17.2500 -28.2500 Du        
  29933 ****         0.7500 -17.2500 -28.0000 Du        
  29934 ****         0.7500 -17.2500 -27.7500 Du        
  29935 ****         0.7500 -17.0000 -29.5000 Du        
  29936 ****         0.7500 -17.0000 -29.2500 Du        
  29937 ****         0.7500 -17.0000 -29.0000 Du        
  29938 ****         0.7500 -17.0000 -28.7500 Du        
  29939 ****         0.7500 -17.0000 -28.5000 Du        
  29940 ****         0.7500 -17.0000 -28.2500 Du        
  29941 ****         0.7500 -17.0000 -28.0000 Du        
  29942 ****         0.7500 -16.7500 -29.7500 Du        
  29943 ****         0.7500 -16.7500 -29.5000 Du        
  29944 ****         0.7500 -16.7500 -29.2500 Du        
  29945 ****         0.7500 -16.7500 -29.0000 Du        
  29946 ****         0.7500 -16.7500 -28.7500 Du        
  29947 ****         0.7500 -16.7500 -28.5000 Du        
  29948 ****         0.7500 -16.7500 -28.2500 Du        
  29949 ****         0.7500 -16.7500 -28.0000 Du        
  29950 ****         0.7500 -16.5000 -29.5000 Du        
  29951 ****         0.7500 -16.5000 -29.2500 Du        
  29952 ****         0.7500 -16.5000 -29.0000 Du        
  29953 ****         0.7500 -16.5000 -28.7500 Du        
  29954 ****         0.7500 -16.5000 -28.5000 Du        
  29955 ****         0.7500 -16.5000 -28.2500 Du        
  29956 ****         0.7500 -16.2500 -29.5000 Du        
  29957 ****         0.7500 -16.2500 -29.2500 Du        
  29958 ****         0.7500 -16.2500 -29.0000 Du        
  29959 ****         0.7500 -16.2500 -28.7500 Du        
  29960 ****         0.7500 -16.2500 -28.5000 Du        
  29961 ****         0.7500 -16.2500 -28.2500 Du        
  29962 ****         0.7500 -16.0000 -29.7500 Du        
  29963 ****         0.7500 -16.0000 -29.5000 Du        
  29964 ****         0.7500 -16.0000 -29.2500 Du        
  29965 ****         0.7500 -16.0000 -29.0000 Du        
  29966 ****         0.7500 -16.0000 -28.7500 Du        
  29967 ****         0.7500 -16.0000 -28.5000 Du        
  29968 ****         0.7500 -16.0000 -28.2500 Du        
  29969 ****         0.7500 -15.7500 -29.7500 Du        
  29970 ****         0.7500 -15.7500 -29.5000 Du        
  29971 ****         0.7500 -15.7500 -29.2500 Du        
  29972 ****         0.7500 -15.7500 -29.0000 Du        
  29973 ****         0.7500 -15.7500 -28.7500 Du        
  29974 ****         0.7500 -15.7500 -28.5000 Du        
  29975 ****         0.7500 -15.7500 -28.2500 Du        
  29976 ****         0.7500 -15.5000 -29.7500 Du        
  29977 ****         0.7500 -15.5000 -29.5000 Du        
  29978 ****         0.7500 -15.5000 -29.2500 Du        
  29979 ****         0.7500 -15.5000 -29.0000 Du        
  29980 ****         0.7500 -15.5000 -28.7500 Du        
  29981 ****         0.7500 -15.5000 -28.5000 Du        
  29982 ****         0.7500 -15.2500 -29.7500 Du        
  29983 ****         0.7500 -15.2500 -29.5000 Du        
  29984 ****         0.7500 -15.2500 -29.2500 Du        
  29985 ****         0.7500 -15.2500 -29.0000 Du        
  29986 ****         0.7500 -15.2500 -28.7500 Du        
  29987 ****         0.7500 -15.2500 -28.5000 Du        
  29988 ****         0.7500 -15.0000 -29.7500 Du        
  29989 ****         0.7500 -15.0000 -29.5000 Du        
  29990 ****         0.7500 -15.0000 -29.2500 Du        
  29991 ****         0.7500 -15.0000 -29.0000 Du        
  29992 ****         0.7500 -15.0000 -28.7500 Du        
  29993 ****         0.7500 -15.0000 -28.5000 Du        
  29994 ****         0.7500 -14.7500 -29.7500 Du        
  29995 ****         0.7500 -14.7500 -29.5000 Du        
  29996 ****         0.7500 -14.7500 -29.2500 Du        
  29997 ****         0.7500 -14.7500 -29.0000 Du        
  29998 ****         0.7500 -14.7500 -28.7500 Du        
  29999 ****         0.7500 -14.5000 -29.7500 Du        
  30000 ****         0.7500 -14.5000 -29.5000 Du        
  30001 ****         0.7500 -14.5000 -29.2500 Du        
  30002 ****         0.7500 -14.5000 -29.0000 Du        
  30003 ****         0.7500 -14.2500 -29.7500 Du        
  30004 ****         0.7500 -14.2500 -29.5000 Du        
  30005 ****         0.7500 -14.2500 -29.2500 Du        
  30006 ****         0.7500 -14.2500 -29.0000 Du        
  30007 ****         0.7500 -14.0000 -30.0000 Du        
  30008 ****         0.7500 -14.0000 -29.7500 Du        
  30009 ****         0.7500  -3.5000 -27.7500 Du        
  30010 ****         0.7500  -3.5000 -27.5000 Du        
  30011 ****         0.7500  -3.5000 -27.2500 Du        
  30012 ****         0.7500  -3.5000 -27.0000 Du        
  30013 ****         0.7500  -3.2500 -28.2500 Du        
  30014 ****         0.7500  -3.2500 -28.0000 Du        
  30015 ****         0.7500  -3.2500 -27.7500 Du        
  30016 ****         0.7500  -3.2500 -27.5000 Du        
  30017 ****         0.7500  -3.2500 -27.2500 Du        
  30018 ****         0.7500  -3.2500 -27.0000 Du        
  30019 ****         0.7500  -3.2500 -26.7500 Du        
  30020 ****         0.7500  -3.0000 -28.7500 Du        
  30021 ****         0.7500  -3.0000 -28.5000 Du        
  30022 ****         0.7500  -3.0000 -28.2500 Du        
  30023 ****         0.7500  -3.0000 -28.0000 Du        
  30024 ****         0.7500  -3.0000 -27.7500 Du        
  30025 ****         0.7500  -3.0000 -27.5000 Du        
  30026 ****         0.7500  -3.0000 -27.2500 Du        
  30027 ****         0.7500  -3.0000 -27.0000 Du        
  30028 ****         0.7500  -3.0000 -26.7500 Du        
  30029 ****         0.7500  -2.7500 -28.7500 Du        
  30030 ****         0.7500  -2.7500 -28.5000 Du        
  30031 ****         0.7500  -2.7500 -28.2500 Du        
  30032 ****         0.7500  -2.7500 -28.0000 Du        
  30033 ****         0.7500  -2.7500 -27.7500 Du        
  30034 ****         0.7500  -2.7500 -27.5000 Du        
  30035 ****         0.7500  -2.7500 -27.2500 Du        
  30036 ****         0.7500  -2.5000 -28.5000 Du        
  30037 ****         0.7500  -2.5000 -28.2500 Du        
  30038 ****         0.7500  -2.5000 -28.0000 Du        
  30039 ****         0.7500  -2.5000 -27.7500 Du        
  30040 ****         1.0000 -29.0000 -14.7500 Du        
  30041 ****         1.0000 -29.0000 -14.5000 Du        
  30042 ****         1.0000 -29.0000 -14.2500 Du        
  30043 ****         1.0000 -28.7500 -14.7500 Du        
  30044 ****         1.0000 -28.7500 -14.5000 Du        
  30045 ****         1.0000 -28.7500 -14.2500 Du        
  30046 ****         1.0000 -28.5000 -14.5000 Du        
  30047 ****         1.0000 -28.5000 -14.2500 Du        
  30048 ****         1.0000 -28.2500 -14.5000 Du        
  30049 ****         1.0000 -28.2500 -14.2500 Du        
  30050 ****         1.0000 -28.0000 -14.5000 Du        
  30051 ****         1.0000 -28.0000 -14.2500 Du        
  30052 ****         1.0000 -27.7500 -14.5000 Du        
  30053 ****         1.0000 -27.7500 -14.2500 Du        
  30054 ****         1.0000 -27.5000 -14.5000 Du        
  30055 ****         1.0000 -27.5000 -14.2500 Du        
  30056 ****         1.0000 -27.2500 -14.2500 Du        
  30057 ****         1.0000 -27.0000 -14.5000 Du        
  30058 ****         1.0000 -27.0000 -14.2500 Du        
  30059 ****         1.0000 -26.7500 -14.5000 Du        
  30060 ****         1.0000 -26.7500 -14.2500 Du        
  30061 ****         1.0000 -26.5000 -14.5000 Du        
  30062 ****         1.0000 -26.5000 -14.2500 Du        
  30063 ****         1.0000 -26.5000 -14.0000 Du        
  30064 ****         1.0000 -26.2500 -14.5000 Du        
  30065 ****         1.0000 -26.2500 -14.2500 Du        
  30066 ****         1.0000 -26.2500 -14.0000 Du        
  30067 ****         1.0000 -26.2500 -13.7500 Du        
  30068 ****         1.0000 -26.0000 -14.5000 Du        
  30069 ****         1.0000 -26.0000 -14.2500 Du        
  30070 ****         1.0000 -26.0000 -14.0000 Du        
  30071 ****         1.0000 -26.0000 -13.7500 Du        
  30072 ****         1.0000 -26.0000 -13.5000 Du        
  30073 ****         1.0000 -25.7500 -14.5000 Du        
  30074 ****         1.0000 -25.7500 -14.2500 Du        
  30075 ****         1.0000 -25.7500 -14.0000 Du        
  30076 ****         1.0000 -25.7500 -13.7500 Du        
  30077 ****         1.0000 -25.7500 -13.5000 Du        
  30078 ****         1.0000 -25.7500 -13.2500 Du        
  30079 ****         1.0000 -25.5000 -14.5000 Du        
  30080 ****         1.0000 -25.5000 -14.2500 Du        
  30081 ****         1.0000 -25.5000 -14.0000 Du        
  30082 ****         1.0000 -25.5000 -13.7500 Du        
  30083 ****         1.0000 -25.5000 -13.5000 Du        
  30084 ****         1.0000 -25.5000 -13.2500 Du        
  30085 ****         1.0000 -25.5000 -13.0000 Du        
  30086 ****         1.0000 -25.2500 -14.7500 Du        
  30087 ****         1.0000 -25.2500 -14.5000 Du        
  30088 ****         1.0000 -25.2500 -14.2500 Du        
  30089 ****         1.0000 -25.2500 -14.0000 Du        
  30090 ****         1.0000 -25.2500 -13.7500 Du        
  30091 ****         1.0000 -25.2500 -13.5000 Du        
  30092 ****         1.0000 -25.2500 -13.2500 Du        
  30093 ****         1.0000 -25.2500 -13.0000 Du        
  30094 ****         1.0000 -25.2500 -12.7500 Du        
  30095 ****         1.0000 -25.0000 -14.7500 Du        
  30096 ****         1.0000 -25.0000 -14.5000 Du        
  30097 ****         1.0000 -25.0000 -14.2500 Du        
  30098 ****         1.0000 -25.0000 -14.0000 Du        
  30099 ****         1.0000 -25.0000 -13.7500 Du        
  30100 ****         1.0000 -25.0000 -13.5000 Du        
  30101 ****         1.0000 -25.0000 -13.2500 Du        
  30102 ****         1.0000 -25.0000 -13.0000 Du        
  30103 ****         1.0000 -24.7500 -14.7500 Du        
  30104 ****         1.0000 -24.7500 -14.5000 Du        
  30105 ****         1.0000 -24.7500 -14.2500 Du        
  30106 ****         1.0000 -24.7500 -14.0000 Du        
  30107 ****         1.0000 -24.7500 -13.7500 Du        
  30108 ****         1.0000 -24.7500 -13.5000 Du        
  30109 ****         1.0000 -24.5000 -15.0000 Du        
  30110 ****         1.0000 -24.5000 -14.7500 Du        
  30111 ****         1.0000 -24.5000 -14.5000 Du        
  30112 ****         1.0000 -24.5000 -14.2500 Du        
  30113 ****         1.0000 -24.5000 -14.0000 Du        
  30114 ****         1.0000 -24.5000 -13.7500 Du        
  30115 ****         1.0000 -24.2500 -15.0000 Du        
  30116 ****         1.0000 -24.2500 -14.7500 Du        
  30117 ****         1.0000 -24.2500 -14.5000 Du        
  30118 ****         1.0000 -24.2500 -14.2500 Du        
  30119 ****         1.0000 -24.2500 -14.0000 Du        
  30120 ****         1.0000 -24.0000 -15.2500 Du        
  30121 ****         1.0000 -24.0000 -15.0000 Du        
  30122 ****         1.0000 -24.0000 -14.7500 Du        
  30123 ****         1.0000 -23.7500 -15.7500 Du        
  30124 ****         1.0000 -23.7500 -15.5000 Du        
  30125 ****         1.0000 -23.7500 -15.2500 Du        
  30126 ****         1.0000 -23.7500 -15.0000 Du        
  30127 ****         1.0000 -23.7500 -14.7500 Du        
  30128 ****         1.0000 -23.5000 -15.7500 Du        
  30129 ****         1.0000 -23.5000 -15.5000 Du        
  30130 ****         1.0000 -23.5000 -15.2500 Du        
  30131 ****         1.0000 -23.5000 -15.0000 Du        
  30132 ****         1.0000 -23.5000 -14.7500 Du        
  30133 ****         1.0000 -23.2500 -16.2500 Du        
  30134 ****         1.0000 -23.2500 -16.0000 Du        
  30135 ****         1.0000 -23.2500 -15.7500 Du        
  30136 ****         1.0000 -23.2500 -15.5000 Du        
  30137 ****         1.0000 -23.2500 -15.2500 Du        
  30138 ****         1.0000 -23.2500 -15.0000 Du        
  30139 ****         1.0000 -23.2500 -14.7500 Du        
  30140 ****         1.0000 -23.0000 -16.5000 Du        
  30141 ****         1.0000 -23.0000 -16.2500 Du        
  30142 ****         1.0000 -23.0000 -16.0000 Du        
  30143 ****         1.0000 -23.0000 -15.7500 Du        
  30144 ****         1.0000 -23.0000 -15.5000 Du        
  30145 ****         1.0000 -23.0000 -15.2500 Du        
  30146 ****         1.0000 -23.0000 -15.0000 Du        
  30147 ****         1.0000 -23.0000 -14.7500 Du        
  30148 ****         1.0000 -22.7500 -16.7500 Du        
  30149 ****         1.0000 -22.7500 -16.5000 Du        
  30150 ****         1.0000 -22.7500 -16.2500 Du        
  30151 ****         1.0000 -22.7500 -16.0000 Du        
  30152 ****         1.0000 -22.7500 -15.7500 Du        
  30153 ****         1.0000 -22.7500 -15.5000 Du        
  30154 ****         1.0000 -22.7500 -15.2500 Du        
  30155 ****         1.0000 -22.7500 -15.0000 Du        
  30156 ****         1.0000 -22.5000 -16.7500 Du        
  30157 ****         1.0000 -22.5000 -16.5000 Du        
  30158 ****         1.0000 -22.5000 -16.2500 Du        
  30159 ****         1.0000 -22.5000 -16.0000 Du        
  30160 ****         1.0000 -22.5000 -15.7500 Du        
  30161 ****         1.0000 -22.5000 -15.5000 Du        
  30162 ****         1.0000 -22.5000 -15.2500 Du        
  30163 ****         1.0000 -22.2500 -17.0000 Du        
  30164 ****         1.0000 -22.2500 -16.7500 Du        
  30165 ****         1.0000 -22.2500 -16.5000 Du        
  30166 ****         1.0000 -22.2500 -16.2500 Du        
  30167 ****         1.0000 -22.2500 -16.0000 Du        
  30168 ****         1.0000 -22.2500 -15.7500 Du        
  30169 ****         1.0000 -22.2500 -15.5000 Du        
  30170 ****         1.0000 -22.2500 -15.2500 Du        
  30171 ****         1.0000 -22.0000 -17.0000 Du        
  30172 ****         1.0000 -22.0000 -16.7500 Du        
  30173 ****         1.0000 -22.0000 -16.5000 Du        
  30174 ****         1.0000 -22.0000 -16.2500 Du        
  30175 ****         1.0000 -22.0000 -16.0000 Du        
  30176 ****         1.0000 -22.0000 -15.7500 Du        
  30177 ****         1.0000 -22.0000 -15.5000 Du        
  30178 ****         1.0000 -22.0000 -15.2500 Du        
  30179 ****         1.0000 -21.7500 -28.7500 Du        
  30180 ****         1.0000 -21.7500 -17.0000 Du        
  30181 ****         1.0000 -21.7500 -16.7500 Du        
  30182 ****         1.0000 -21.7500 -16.5000 Du        
  30183 ****         1.0000 -21.7500 -16.2500 Du        
  30184 ****         1.0000 -21.7500 -16.0000 Du        
  30185 ****         1.0000 -21.7500 -15.7500 Du        
  30186 ****         1.0000 -21.7500 -15.5000 Du        
  30187 ****         1.0000 -21.7500 -15.2500 Du        
  30188 ****         1.0000 -21.5000 -28.7500 Du        
  30189 ****         1.0000 -21.5000 -28.5000 Du        
  30190 ****         1.0000 -21.5000 -17.0000 Du        
  30191 ****         1.0000 -21.5000 -16.7500 Du        
  30192 ****         1.0000 -21.5000 -16.5000 Du        
  30193 ****         1.0000 -21.5000 -16.2500 Du        
  30194 ****         1.0000 -21.5000 -16.0000 Du        
  30195 ****         1.0000 -21.5000 -15.7500 Du        
  30196 ****         1.0000 -21.2500 -28.7500 Du        
  30197 ****         1.0000 -21.2500 -28.5000 Du        
  30198 ****         1.0000 -21.2500 -28.2500 Du        
  30199 ****         1.0000 -21.2500 -16.7500 Du        
  30200 ****         1.0000 -21.2500 -16.5000 Du        
  30201 ****         1.0000 -21.2500 -16.2500 Du        
  30202 ****         1.0000 -21.2500 -16.0000 Du        
  30203 ****         1.0000 -21.0000 -28.7500 Du        
  30204 ****         1.0000 -21.0000 -28.5000 Du        
  30205 ****         1.0000 -21.0000 -28.2500 Du        
  30206 ****         1.0000 -21.0000 -16.7500 Du        
  30207 ****         1.0000 -21.0000 -16.5000 Du        
  30208 ****         1.0000 -21.0000 -16.2500 Du        
  30209 ****         1.0000 -21.0000 -16.0000 Du        
  30210 ****         1.0000 -20.7500 -28.7500 Du        
  30211 ****         1.0000 -20.7500 -28.5000 Du        
  30212 ****         1.0000 -20.7500 -28.2500 Du        
  30213 ****         1.0000 -20.7500 -16.5000 Du        
  30214 ****         1.0000 -20.5000 -28.7500 Du        
  30215 ****         1.0000 -20.5000 -28.5000 Du        
  30216 ****         1.0000 -20.5000 -28.2500 Du        
  30217 ****         1.0000 -20.5000 -28.0000 Du        
  30218 ****         1.0000 -20.2500 -29.0000 Du        
  30219 ****         1.0000 -20.2500 -28.7500 Du        
  30220 ****         1.0000 -20.2500 -28.5000 Du        
  30221 ****         1.0000 -20.2500 -28.2500 Du        
  30222 ****         1.0000 -20.2500 -28.0000 Du        
  30223 ****         1.0000 -20.2500 -16.2500 Du        
  30224 ****         1.0000 -20.2500 -15.7500 Du        
  30225 ****         1.0000 -20.0000 -29.0000 Du        
  30226 ****         1.0000 -20.0000 -28.7500 Du        
  30227 ****         1.0000 -20.0000 -28.5000 Du        
  30228 ****         1.0000 -20.0000 -28.2500 Du        
  30229 ****         1.0000 -20.0000 -28.0000 Du        
  30230 ****         1.0000 -20.0000 -15.0000 Du        
  30231 ****         1.0000 -20.0000 -14.7500 Du        
  30232 ****         1.0000 -19.7500 -29.0000 Du        
  30233 ****         1.0000 -19.7500 -28.7500 Du        
  30234 ****         1.0000 -19.7500 -28.5000 Du        
  30235 ****         1.0000 -19.7500 -28.2500 Du        
  30236 ****         1.0000 -19.7500 -28.0000 Du        
  30237 ****         1.0000 -19.7500 -15.2500 Du        
  30238 ****         1.0000 -19.7500 -15.0000 Du        
  30239 ****         1.0000 -19.7500 -14.7500 Du        
  30240 ****         1.0000 -19.7500 -14.5000 Du        
  30241 ****         1.0000 -19.5000 -29.2500 Du        
  30242 ****         1.0000 -19.5000 -29.0000 Du        
  30243 ****         1.0000 -19.5000 -28.7500 Du        
  30244 ****         1.0000 -19.5000 -28.5000 Du        
  30245 ****         1.0000 -19.5000 -28.2500 Du        
  30246 ****         1.0000 -19.5000 -28.0000 Du        
  30247 ****         1.0000 -19.5000 -15.2500 Du        
  30248 ****         1.0000 -19.5000 -15.0000 Du        
  30249 ****         1.0000 -19.5000 -14.7500 Du        
  30250 ****         1.0000 -19.5000 -14.5000 Du        
  30251 ****         1.0000 -19.5000 -14.2500 Du        
  30252 ****         1.0000 -19.2500 -29.2500 Du        
  30253 ****         1.0000 -19.2500 -29.0000 Du        
  30254 ****         1.0000 -19.2500 -28.7500 Du        
  30255 ****         1.0000 -19.2500 -28.5000 Du        
  30256 ****         1.0000 -19.2500 -28.2500 Du        
  30257 ****         1.0000 -19.2500 -28.0000 Du        
  30258 ****         1.0000 -19.2500 -15.5000 Du        
  30259 ****         1.0000 -19.2500 -15.2500 Du        
  30260 ****         1.0000 -19.2500 -15.0000 Du        
  30261 ****         1.0000 -19.2500 -14.7500 Du        
  30262 ****         1.0000 -19.2500 -14.5000 Du        
  30263 ****         1.0000 -19.2500 -14.2500 Du        
  30264 ****         1.0000 -19.2500 -14.0000 Du        
  30265 ****         1.0000 -19.0000 -29.5000 Du        
  30266 ****         1.0000 -19.0000 -29.2500 Du        
  30267 ****         1.0000 -19.0000 -29.0000 Du        
  30268 ****         1.0000 -19.0000 -28.7500 Du        
  30269 ****         1.0000 -19.0000 -28.5000 Du        
  30270 ****         1.0000 -19.0000 -28.2500 Du        
  30271 ****         1.0000 -19.0000 -28.0000 Du        
  30272 ****         1.0000 -19.0000 -27.7500 Du        
  30273 ****         1.0000 -19.0000 -15.5000 Du        
  30274 ****         1.0000 -19.0000 -15.2500 Du        
  30275 ****         1.0000 -19.0000 -15.0000 Du        
  30276 ****         1.0000 -19.0000 -14.7500 Du        
  30277 ****         1.0000 -19.0000 -14.5000 Du        
  30278 ****         1.0000 -19.0000 -14.2500 Du        
  30279 ****         1.0000 -19.0000 -14.0000 Du        
  30280 ****         1.0000 -18.7500 -29.5000 Du        
  30281 ****         1.0000 -18.7500 -29.2500 Du        
  30282 ****         1.0000 -18.7500 -29.0000 Du        
  30283 ****         1.0000 -18.7500 -28.7500 Du        
  30284 ****         1.0000 -18.7500 -28.5000 Du        
  30285 ****         1.0000 -18.7500 -28.2500 Du        
  30286 ****         1.0000 -18.7500 -28.0000 Du        
  30287 ****         1.0000 -18.7500 -27.7500 Du        
  30288 ****         1.0000 -18.7500 -15.5000 Du        
  30289 ****         1.0000 -18.7500 -15.2500 Du        
  30290 ****         1.0000 -18.7500 -15.0000 Du        
  30291 ****         1.0000 -18.7500 -14.7500 Du        
  30292 ****         1.0000 -18.7500 -14.5000 Du        
  30293 ****         1.0000 -18.7500 -14.2500 Du        
  30294 ****         1.0000 -18.7500 -14.0000 Du        
  30295 ****         1.0000 -18.5000 -29.5000 Du        
  30296 ****         1.0000 -18.5000 -29.2500 Du        
  30297 ****         1.0000 -18.5000 -29.0000 Du        
  30298 ****         1.0000 -18.5000 -28.7500 Du        
  30299 ****         1.0000 -18.5000 -28.5000 Du        
  30300 ****         1.0000 -18.5000 -28.2500 Du        
  30301 ****         1.0000 -18.5000 -28.0000 Du        
  30302 ****         1.0000 -18.5000 -27.7500 Du        
  30303 ****         1.0000 -18.5000 -15.5000 Du        
  30304 ****         1.0000 -18.5000 -15.2500 Du        
  30305 ****         1.0000 -18.5000 -15.0000 Du        
  30306 ****         1.0000 -18.5000 -14.7500 Du        
  30307 ****         1.0000 -18.5000 -14.5000 Du        
  30308 ****         1.0000 -18.5000 -14.2500 Du        
  30309 ****         1.0000 -18.5000 -14.0000 Du        
  30310 ****         1.0000 -18.2500 -29.5000 Du        
  30311 ****         1.0000 -18.2500 -29.2500 Du        
  30312 ****         1.0000 -18.2500 -29.0000 Du        
  30313 ****         1.0000 -18.2500 -28.7500 Du        
  30314 ****         1.0000 -18.2500 -28.5000 Du        
  30315 ****         1.0000 -18.2500 -28.2500 Du        
  30316 ****         1.0000 -18.2500 -28.0000 Du        
  30317 ****         1.0000 -18.2500 -27.7500 Du        
  30318 ****         1.0000 -18.2500 -15.5000 Du        
  30319 ****         1.0000 -18.2500 -15.2500 Du        
  30320 ****         1.0000 -18.2500 -15.0000 Du        
  30321 ****         1.0000 -18.2500 -14.7500 Du        
  30322 ****         1.0000 -18.2500 -14.5000 Du        
  30323 ****         1.0000 -18.2500 -14.2500 Du        
  30324 ****         1.0000 -18.0000 -29.5000 Du        
  30325 ****         1.0000 -18.0000 -29.2500 Du        
  30326 ****         1.0000 -18.0000 -29.0000 Du        
  30327 ****         1.0000 -18.0000 -28.7500 Du        
  30328 ****         1.0000 -18.0000 -28.5000 Du        
  30329 ****         1.0000 -18.0000 -28.2500 Du        
  30330 ****         1.0000 -18.0000 -28.0000 Du        
  30331 ****         1.0000 -18.0000 -27.7500 Du        
  30332 ****         1.0000 -18.0000 -15.2500 Du        
  30333 ****         1.0000 -18.0000 -15.0000 Du        
  30334 ****         1.0000 -18.0000 -14.7500 Du        
  30335 ****         1.0000 -18.0000 -14.5000 Du        
  30336 ****         1.0000 -17.7500 -29.5000 Du        
  30337 ****         1.0000 -17.7500 -29.2500 Du        
  30338 ****         1.0000 -17.7500 -29.0000 Du        
  30339 ****         1.0000 -17.7500 -28.7500 Du        
  30340 ****         1.0000 -17.7500 -28.5000 Du        
  30341 ****         1.0000 -17.7500 -28.2500 Du        
  30342 ****         1.0000 -17.7500 -28.0000 Du        
  30343 ****         1.0000 -17.7500 -27.7500 Du        
  30344 ****         1.0000 -17.5000 -29.5000 Du        
  30345 ****         1.0000 -17.5000 -29.2500 Du        
  30346 ****         1.0000 -17.5000 -29.0000 Du        
  30347 ****         1.0000 -17.5000 -28.7500 Du        
  30348 ****         1.0000 -17.5000 -28.5000 Du        
  30349 ****         1.0000 -17.5000 -28.2500 Du        
  30350 ****         1.0000 -17.5000 -28.0000 Du        
  30351 ****         1.0000 -17.2500 -29.5000 Du        
  30352 ****         1.0000 -17.2500 -29.2500 Du        
  30353 ****         1.0000 -17.2500 -29.0000 Du        
  30354 ****         1.0000 -17.2500 -28.7500 Du        
  30355 ****         1.0000 -17.2500 -28.5000 Du        
  30356 ****         1.0000 -17.2500 -28.2500 Du        
  30357 ****         1.0000 -17.2500 -28.0000 Du        
  30358 ****         1.0000 -17.0000 -29.5000 Du        
  30359 ****         1.0000 -17.0000 -29.2500 Du        
  30360 ****         1.0000 -17.0000 -29.0000 Du        
  30361 ****         1.0000 -17.0000 -28.7500 Du        
  30362 ****         1.0000 -17.0000 -28.5000 Du        
  30363 ****         1.0000 -17.0000 -28.2500 Du        
  30364 ****         1.0000 -16.7500 -29.5000 Du        
  30365 ****         1.0000 -16.7500 -29.2500 Du        
  30366 ****         1.0000 -16.7500 -29.0000 Du        
  30367 ****         1.0000 -16.7500 -28.7500 Du        
  30368 ****         1.0000 -16.7500 -28.5000 Du        
  30369 ****         1.0000 -16.7500 -28.2500 Du        
  30370 ****         1.0000 -16.5000 -29.5000 Du        
  30371 ****         1.0000 -16.5000 -29.2500 Du        
  30372 ****         1.0000 -16.5000 -29.0000 Du        
  30373 ****         1.0000 -16.5000 -28.7500 Du        
  30374 ****         1.0000 -16.5000 -28.5000 Du        
  30375 ****         1.0000 -16.2500 -29.5000 Du        
  30376 ****         1.0000 -16.2500 -29.2500 Du        
  30377 ****         1.0000 -16.2500 -29.0000 Du        
  30378 ****         1.0000 -16.2500 -28.7500 Du        
  30379 ****         1.0000 -16.2500 -28.5000 Du        
  30380 ****         1.0000 -16.0000 -29.5000 Du        
  30381 ****         1.0000 -16.0000 -29.2500 Du        
  30382 ****         1.0000 -16.0000 -29.0000 Du        
  30383 ****         1.0000 -16.0000 -28.7500 Du        
  30384 ****         1.0000 -16.0000 -28.5000 Du        
  30385 ****         1.0000 -15.7500 -29.5000 Du        
  30386 ****         1.0000 -15.7500 -29.2500 Du        
  30387 ****         1.0000 -15.7500 -29.0000 Du        
  30388 ****         1.0000 -15.7500 -28.7500 Du        
  30389 ****         1.0000 -15.7500 -28.5000 Du        
  30390 ****         1.0000 -15.5000 -29.5000 Du        
  30391 ****         1.0000 -15.5000 -29.2500 Du        
  30392 ****         1.0000 -15.5000 -29.0000 Du        
  30393 ****         1.0000 -15.5000 -28.7500 Du        
  30394 ****         1.0000 -15.2500 -29.5000 Du        
  30395 ****         1.0000 -15.2500 -29.2500 Du        
  30396 ****         1.0000 -15.2500 -29.0000 Du        
  30397 ****         1.0000 -15.2500 -28.7500 Du        
  30398 ****         1.0000 -15.0000 -29.7500 Du        
  30399 ****         1.0000 -15.0000 -29.5000 Du        
  30400 ****         1.0000 -15.0000 -29.2500 Du        
  30401 ****         1.0000 -15.0000 -29.0000 Du        
  30402 ****         1.0000 -15.0000 -28.7500 Du        
  30403 ****         1.0000 -14.7500 -29.7500 Du        
  30404 ****         1.0000 -14.7500 -29.5000 Du        
  30405 ****         1.0000 -14.7500 -29.2500 Du        
  30406 ****         1.0000 -14.7500 -29.0000 Du        
  30407 ****         1.0000 -14.5000 -29.7500 Du        
  30408 ****         1.0000 -14.5000 -29.5000 Du        
  30409 ****         1.0000 -14.5000 -29.2500 Du        
  30410 ****         1.0000 -14.2500 -29.7500 Du        
  30411 ****         1.0000 -14.2500 -29.5000 Du        
  30412 ****         1.0000  -3.5000 -27.5000 Du        
  30413 ****         1.0000  -3.5000 -27.2500 Du        
  30414 ****         1.0000  -3.5000 -27.0000 Du        
  30415 ****         1.0000  -3.5000 -26.7500 Du        
  30416 ****         1.0000  -3.2500 -28.0000 Du        
  30417 ****         1.0000  -3.2500 -27.7500 Du        
  30418 ****         1.0000  -3.2500 -27.5000 Du        
  30419 ****         1.0000  -3.2500 -27.2500 Du        
  30420 ****         1.0000  -3.2500 -27.0000 Du        
  30421 ****         1.0000  -3.0000 -28.2500 Du        
  30422 ****         1.0000  -3.0000 -28.0000 Du        
  30423 ****         1.0000  -3.0000 -27.7500 Du        
  30424 ****         1.0000  -3.0000 -27.5000 Du        
  30425 ****         1.0000  -3.0000 -27.2500 Du        
  30426 ****         1.0000  -3.0000 -27.0000 Du        
  30427 ****         1.0000  -2.7500 -28.2500 Du        
  30428 ****         1.0000  -2.7500 -28.0000 Du        
  30429 ****         1.0000  -2.7500 -27.7500 Du        
  30430 ****         1.2500 -29.0000 -14.7500 Du        
  30431 ****         1.2500 -29.0000 -14.5000 Du        
  30432 ****         1.2500 -29.0000 -14.2500 Du        
  30433 ****         1.2500 -28.7500 -14.7500 Du        
  30434 ****         1.2500 -28.7500 -14.5000 Du        
  30435 ****         1.2500 -28.7500 -14.2500 Du        
  30436 ****         1.2500 -28.5000 -14.5000 Du        
  30437 ****         1.2500 -28.5000 -14.2500 Du        
  30438 ****         1.2500 -28.2500 -14.5000 Du        
  30439 ****         1.2500 -28.2500 -14.2500 Du        
  30440 ****         1.2500 -28.0000 -14.5000 Du        
  30441 ****         1.2500 -26.7500 -14.2500 Du        
  30442 ****         1.2500 -26.5000 -14.5000 Du        
  30443 ****         1.2500 -26.5000 -14.2500 Du        
  30444 ****         1.2500 -26.5000 -14.0000 Du        
  30445 ****         1.2500 -26.2500 -14.5000 Du        
  30446 ****         1.2500 -26.2500 -14.2500 Du        
  30447 ****         1.2500 -26.2500 -14.0000 Du        
  30448 ****         1.2500 -26.0000 -14.5000 Du        
  30449 ****         1.2500 -26.0000 -14.2500 Du        
  30450 ****         1.2500 -26.0000 -14.0000 Du        
  30451 ****         1.2500 -26.0000 -13.7500 Du        
  30452 ****         1.2500 -25.7500 -14.5000 Du        
  30453 ****         1.2500 -25.7500 -14.2500 Du        
  30454 ****         1.2500 -25.7500 -14.0000 Du        
  30455 ****         1.2500 -25.7500 -13.7500 Du        
  30456 ****         1.2500 -25.7500 -13.5000 Du        
  30457 ****         1.2500 -25.5000 -14.5000 Du        
  30458 ****         1.2500 -25.5000 -14.2500 Du        
  30459 ****         1.2500 -25.5000 -14.0000 Du        
  30460 ****         1.2500 -25.5000 -13.7500 Du        
  30461 ****         1.2500 -25.5000 -13.5000 Du        
  30462 ****         1.2500 -25.5000 -13.2500 Du        
  30463 ****         1.2500 -25.2500 -14.7500 Du        
  30464 ****         1.2500 -25.2500 -14.5000 Du        
  30465 ****         1.2500 -25.2500 -14.2500 Du        
  30466 ****         1.2500 -25.2500 -14.0000 Du        
  30467 ****         1.2500 -25.2500 -13.7500 Du        
  30468 ****         1.2500 -25.2500 -13.5000 Du        
  30469 ****         1.2500 -25.2500 -13.2500 Du        
  30470 ****         1.2500 -25.2500 -13.0000 Du        
  30471 ****         1.2500 -25.0000 -14.7500 Du        
  30472 ****         1.2500 -25.0000 -14.5000 Du        
  30473 ****         1.2500 -25.0000 -14.2500 Du        
  30474 ****         1.2500 -25.0000 -14.0000 Du        
  30475 ****         1.2500 -25.0000 -13.7500 Du        
  30476 ****         1.2500 -25.0000 -13.5000 Du        
  30477 ****         1.2500 -25.0000 -13.2500 Du        
  30478 ****         1.2500 -24.7500 -14.7500 Du        
  30479 ****         1.2500 -24.7500 -14.5000 Du        
  30480 ****         1.2500 -24.7500 -14.2500 Du        
  30481 ****         1.2500 -24.7500 -14.0000 Du        
  30482 ****         1.2500 -24.7500 -13.7500 Du        
  30483 ****         1.2500 -24.7500 -13.5000 Du        
  30484 ****         1.2500 -24.5000 -14.7500 Du        
  30485 ****         1.2500 -24.5000 -14.5000 Du        
  30486 ****         1.2500 -24.5000 -14.2500 Du        
  30487 ****         1.2500 -24.5000 -14.0000 Du        
  30488 ****         1.2500 -24.2500 -15.0000 Du        
  30489 ****         1.2500 -24.2500 -14.7500 Du        
  30490 ****         1.2500 -24.2500 -14.5000 Du        
  30491 ****         1.2500 -24.2500 -14.2500 Du        
  30492 ****         1.2500 -24.0000 -15.2500 Du        
  30493 ****         1.2500 -24.0000 -15.0000 Du        
  30494 ****         1.2500 -24.0000 -14.7500 Du        
  30495 ****         1.2500 -23.7500 -15.5000 Du        
  30496 ****         1.2500 -23.7500 -15.2500 Du        
  30497 ****         1.2500 -23.7500 -15.0000 Du        
  30498 ****         1.2500 -23.5000 -15.7500 Du        
  30499 ****         1.2500 -23.5000 -15.5000 Du        
  30500 ****         1.2500 -23.5000 -15.2500 Du        
  30501 ****         1.2500 -23.5000 -15.0000 Du        
  30502 ****         1.2500 -23.5000 -14.7500 Du        
  30503 ****         1.2500 -23.2500 -16.2500 Du        
  30504 ****         1.2500 -23.2500 -16.0000 Du        
  30505 ****         1.2500 -23.2500 -15.7500 Du        
  30506 ****         1.2500 -23.2500 -15.5000 Du        
  30507 ****         1.2500 -23.2500 -15.2500 Du        
  30508 ****         1.2500 -23.2500 -15.0000 Du        
  30509 ****         1.2500 -23.0000 -16.5000 Du        
  30510 ****         1.2500 -23.0000 -16.2500 Du        
  30511 ****         1.2500 -23.0000 -16.0000 Du        
  30512 ****         1.2500 -23.0000 -15.7500 Du        
  30513 ****         1.2500 -23.0000 -15.5000 Du        
  30514 ****         1.2500 -23.0000 -15.2500 Du        
  30515 ****         1.2500 -23.0000 -15.0000 Du        
  30516 ****         1.2500 -22.7500 -16.7500 Du        
  30517 ****         1.2500 -22.7500 -16.5000 Du        
  30518 ****         1.2500 -22.7500 -16.2500 Du        
  30519 ****         1.2500 -22.7500 -16.0000 Du        
  30520 ****         1.2500 -22.7500 -15.7500 Du        
  30521 ****         1.2500 -22.7500 -15.5000 Du        
  30522 ****         1.2500 -22.7500 -15.2500 Du        
  30523 ****         1.2500 -22.7500 -15.0000 Du        
  30524 ****         1.2500 -22.5000 -17.0000 Du        
  30525 ****         1.2500 -22.5000 -16.7500 Du        
  30526 ****         1.2500 -22.5000 -16.5000 Du        
  30527 ****         1.2500 -22.5000 -16.2500 Du        
  30528 ****         1.2500 -22.5000 -16.0000 Du        
  30529 ****         1.2500 -22.5000 -15.7500 Du        
  30530 ****         1.2500 -22.5000 -15.5000 Du        
  30531 ****         1.2500 -22.5000 -15.2500 Du        
  30532 ****         1.2500 -22.2500 -17.0000 Du        
  30533 ****         1.2500 -22.2500 -16.7500 Du        
  30534 ****         1.2500 -22.2500 -16.5000 Du        
  30535 ****         1.2500 -22.2500 -16.2500 Du        
  30536 ****         1.2500 -22.2500 -16.0000 Du        
  30537 ****         1.2500 -22.2500 -15.7500 Du        
  30538 ****         1.2500 -22.2500 -15.5000 Du        
  30539 ****         1.2500 -22.2500 -15.2500 Du        
  30540 ****         1.2500 -22.0000 -17.0000 Du        
  30541 ****         1.2500 -22.0000 -16.7500 Du        
  30542 ****         1.2500 -22.0000 -16.5000 Du        
  30543 ****         1.2500 -22.0000 -16.2500 Du        
  30544 ****         1.2500 -22.0000 -16.0000 Du        
  30545 ****         1.2500 -22.0000 -15.7500 Du        
  30546 ****         1.2500 -22.0000 -15.5000 Du        
  30547 ****         1.2500 -22.0000 -15.2500 Du        
  30548 ****         1.2500 -21.7500 -17.0000 Du        
  30549 ****         1.2500 -21.7500 -16.7500 Du        
  30550 ****         1.2500 -21.7500 -16.5000 Du        
  30551 ****         1.2500 -21.7500 -16.2500 Du        
  30552 ****         1.2500 -21.7500 -16.0000 Du        
  30553 ****         1.2500 -21.7500 -15.7500 Du        
  30554 ****         1.2500 -21.7500 -15.5000 Du        
  30555 ****         1.2500 -21.7500 -15.2500 Du        
  30556 ****         1.2500 -21.5000 -28.7500 Du        
  30557 ****         1.2500 -21.5000 -28.5000 Du        
  30558 ****         1.2500 -21.5000 -16.5000 Du        
  30559 ****         1.2500 -21.5000 -16.2500 Du        
  30560 ****         1.2500 -21.5000 -16.0000 Du        
  30561 ****         1.2500 -21.5000 -15.7500 Du        
  30562 ****         1.2500 -21.2500 -28.7500 Du        
  30563 ****         1.2500 -21.2500 -28.5000 Du        
  30564 ****         1.2500 -21.2500 -28.2500 Du        
  30565 ****         1.2500 -21.2500 -16.7500 Du        
  30566 ****         1.2500 -21.2500 -16.5000 Du        
  30567 ****         1.2500 -21.2500 -16.0000 Du        
  30568 ****         1.2500 -21.0000 -29.0000 Du        
  30569 ****         1.2500 -21.0000 -28.7500 Du        
  30570 ****         1.2500 -21.0000 -28.5000 Du        
  30571 ****         1.2500 -21.0000 -28.2500 Du        
  30572 ****         1.2500 -21.0000 -16.0000 Du        
  30573 ****         1.2500 -20.7500 -29.0000 Du        
  30574 ****         1.2500 -20.7500 -28.7500 Du        
  30575 ****         1.2500 -20.7500 -28.5000 Du        
  30576 ****         1.2500 -20.7500 -28.2500 Du        
  30577 ****         1.2500 -20.5000 -29.0000 Du        
  30578 ****         1.2500 -20.5000 -28.7500 Du        
  30579 ****         1.2500 -20.5000 -28.5000 Du        
  30580 ****         1.2500 -20.5000 -28.2500 Du        
  30581 ****         1.2500 -20.5000 -28.0000 Du        
  30582 ****         1.2500 -20.5000 -16.0000 Du        
  30583 ****         1.2500 -20.2500 -29.0000 Du        
  30584 ****         1.2500 -20.2500 -28.7500 Du        
  30585 ****         1.2500 -20.2500 -28.5000 Du        
  30586 ****         1.2500 -20.2500 -28.2500 Du        
  30587 ****         1.2500 -20.2500 -28.0000 Du        
  30588 ****         1.2500 -20.0000 -29.2500 Du        
  30589 ****         1.2500 -20.0000 -29.0000 Du        
  30590 ****         1.2500 -20.0000 -28.7500 Du        
  30591 ****         1.2500 -20.0000 -28.5000 Du        
  30592 ****         1.2500 -20.0000 -28.2500 Du        
  30593 ****         1.2500 -20.0000 -28.0000 Du        
  30594 ****         1.2500 -20.0000 -27.7500 Du        
  30595 ****         1.2500 -20.0000 -14.5000 Du        
  30596 ****         1.2500 -19.7500 -29.2500 Du        
  30597 ****         1.2500 -19.7500 -29.0000 Du        
  30598 ****         1.2500 -19.7500 -28.7500 Du        
  30599 ****         1.2500 -19.7500 -28.5000 Du        
  30600 ****         1.2500 -19.7500 -28.2500 Du        
  30601 ****         1.2500 -19.7500 -28.0000 Du        
  30602 ****         1.2500 -19.7500 -27.7500 Du        
  30603 ****         1.2500 -19.7500 -14.7500 Du        
  30604 ****         1.2500 -19.7500 -14.5000 Du        
  30605 ****         1.2500 -19.5000 -29.5000 Du        
  30606 ****         1.2500 -19.5000 -29.2500 Du        
  30607 ****         1.2500 -19.5000 -29.0000 Du        
  30608 ****         1.2500 -19.5000 -28.7500 Du        
  30609 ****         1.2500 -19.5000 -28.5000 Du        
  30610 ****         1.2500 -19.5000 -28.2500 Du        
  30611 ****         1.2500 -19.5000 -28.0000 Du        
  30612 ****         1.2500 -19.5000 -27.7500 Du        
  30613 ****         1.2500 -19.5000 -15.2500 Du        
  30614 ****         1.2500 -19.5000 -15.0000 Du        
  30615 ****         1.2500 -19.5000 -14.7500 Du        
  30616 ****         1.2500 -19.5000 -14.5000 Du        
  30617 ****         1.2500 -19.5000 -14.2500 Du        
  30618 ****         1.2500 -19.5000 -14.0000 Du        
  30619 ****         1.2500 -19.2500 -29.5000 Du        
  30620 ****         1.2500 -19.2500 -29.2500 Du        
  30621 ****         1.2500 -19.2500 -29.0000 Du        
  30622 ****         1.2500 -19.2500 -28.7500 Du        
  30623 ****         1.2500 -19.2500 -28.5000 Du        
  30624 ****         1.2500 -19.2500 -28.2500 Du        
  30625 ****         1.2500 -19.2500 -28.0000 Du        
  30626 ****         1.2500 -19.2500 -27.7500 Du        
  30627 ****         1.2500 -19.2500 -15.2500 Du        
  30628 ****         1.2500 -19.2500 -15.0000 Du        
  30629 ****         1.2500 -19.2500 -14.7500 Du        
  30630 ****         1.2500 -19.2500 -14.5000 Du        
  30631 ****         1.2500 -19.2500 -14.2500 Du        
  30632 ****         1.2500 -19.2500 -14.0000 Du        
  30633 ****         1.2500 -19.0000 -29.5000 Du        
  30634 ****         1.2500 -19.0000 -29.2500 Du        
  30635 ****         1.2500 -19.0000 -29.0000 Du        
  30636 ****         1.2500 -19.0000 -28.7500 Du        
  30637 ****         1.2500 -19.0000 -28.5000 Du        
  30638 ****         1.2500 -19.0000 -28.2500 Du        
  30639 ****         1.2500 -19.0000 -28.0000 Du        
  30640 ****         1.2500 -19.0000 -27.7500 Du        
  30641 ****         1.2500 -19.0000 -15.5000 Du        
  30642 ****         1.2500 -19.0000 -15.2500 Du        
  30643 ****         1.2500 -19.0000 -15.0000 Du        
  30644 ****         1.2500 -19.0000 -14.7500 Du        
  30645 ****         1.2500 -19.0000 -14.5000 Du        
  30646 ****         1.2500 -19.0000 -14.2500 Du        
  30647 ****         1.2500 -19.0000 -14.0000 Du        
  30648 ****         1.2500 -19.0000 -13.7500 Du        
  30649 ****         1.2500 -18.7500 -29.5000 Du        
  30650 ****         1.2500 -18.7500 -29.2500 Du        
  30651 ****         1.2500 -18.7500 -29.0000 Du        
  30652 ****         1.2500 -18.7500 -28.7500 Du        
  30653 ****         1.2500 -18.7500 -28.5000 Du        
  30654 ****         1.2500 -18.7500 -28.2500 Du        
  30655 ****         1.2500 -18.7500 -28.0000 Du        
  30656 ****         1.2500 -18.7500 -27.7500 Du        
  30657 ****         1.2500 -18.7500 -15.5000 Du        
  30658 ****         1.2500 -18.7500 -15.2500 Du        
  30659 ****         1.2500 -18.7500 -15.0000 Du        
  30660 ****         1.2500 -18.7500 -14.7500 Du        
  30661 ****         1.2500 -18.7500 -14.5000 Du        
  30662 ****         1.2500 -18.7500 -14.2500 Du        
  30663 ****         1.2500 -18.7500 -14.0000 Du        
  30664 ****         1.2500 -18.7500 -13.7500 Du        
  30665 ****         1.2500 -18.5000 -29.5000 Du        
  30666 ****         1.2500 -18.5000 -29.2500 Du        
  30667 ****         1.2500 -18.5000 -29.0000 Du        
  30668 ****         1.2500 -18.5000 -28.7500 Du        
  30669 ****         1.2500 -18.5000 -28.5000 Du        
  30670 ****         1.2500 -18.5000 -28.2500 Du        
  30671 ****         1.2500 -18.5000 -28.0000 Du        
  30672 ****         1.2500 -18.5000 -27.7500 Du        
  30673 ****         1.2500 -18.5000 -15.2500 Du        
  30674 ****         1.2500 -18.5000 -15.0000 Du        
  30675 ****         1.2500 -18.5000 -14.7500 Du        
  30676 ****         1.2500 -18.5000 -14.5000 Du        
  30677 ****         1.2500 -18.5000 -14.2500 Du        
  30678 ****         1.2500 -18.5000 -14.0000 Du        
  30679 ****         1.2500 -18.2500 -29.5000 Du        
  30680 ****         1.2500 -18.2500 -29.2500 Du        
  30681 ****         1.2500 -18.2500 -29.0000 Du        
  30682 ****         1.2500 -18.2500 -28.7500 Du        
  30683 ****         1.2500 -18.2500 -28.5000 Du        
  30684 ****         1.2500 -18.2500 -28.2500 Du        
  30685 ****         1.2500 -18.2500 -28.0000 Du        
  30686 ****         1.2500 -18.2500 -27.7500 Du        
  30687 ****         1.2500 -18.2500 -15.2500 Du        
  30688 ****         1.2500 -18.2500 -15.0000 Du        
  30689 ****         1.2500 -18.2500 -14.7500 Du        
  30690 ****         1.2500 -18.2500 -14.5000 Du        
  30691 ****         1.2500 -18.2500 -14.2500 Du        
  30692 ****         1.2500 -18.0000 -29.5000 Du        
  30693 ****         1.2500 -18.0000 -29.2500 Du        
  30694 ****         1.2500 -18.0000 -29.0000 Du        
  30695 ****         1.2500 -18.0000 -28.7500 Du        
  30696 ****         1.2500 -18.0000 -28.5000 Du        
  30697 ****         1.2500 -18.0000 -28.2500 Du        
  30698 ****         1.2500 -18.0000 -28.0000 Du        
  30699 ****         1.2500 -18.0000 -27.7500 Du        
  30700 ****         1.2500 -18.0000 -15.0000 Du        
  30701 ****         1.2500 -18.0000 -14.7500 Du        
  30702 ****         1.2500 -17.7500 -29.5000 Du        
  30703 ****         1.2500 -17.7500 -29.2500 Du        
  30704 ****         1.2500 -17.7500 -29.0000 Du        
  30705 ****         1.2500 -17.7500 -28.7500 Du        
  30706 ****         1.2500 -17.7500 -28.5000 Du        
  30707 ****         1.2500 -17.7500 -28.2500 Du        
  30708 ****         1.2500 -17.7500 -28.0000 Du        
  30709 ****         1.2500 -17.7500 -27.7500 Du        
  30710 ****         1.2500 -17.5000 -29.5000 Du        
  30711 ****         1.2500 -17.5000 -29.2500 Du        
  30712 ****         1.2500 -17.5000 -29.0000 Du        
  30713 ****         1.2500 -17.5000 -28.7500 Du        
  30714 ****         1.2500 -17.5000 -28.5000 Du        
  30715 ****         1.2500 -17.5000 -28.2500 Du        
  30716 ****         1.2500 -17.5000 -28.0000 Du        
  30717 ****         1.2500 -17.2500 -29.5000 Du        
  30718 ****         1.2500 -17.2500 -29.2500 Du        
  30719 ****         1.2500 -17.2500 -29.0000 Du        
  30720 ****         1.2500 -17.2500 -28.7500 Du        
  30721 ****         1.2500 -17.2500 -28.5000 Du        
  30722 ****         1.2500 -17.2500 -28.2500 Du        
  30723 ****         1.2500 -17.0000 -29.5000 Du        
  30724 ****         1.2500 -17.0000 -29.2500 Du        
  30725 ****         1.2500 -17.0000 -29.0000 Du        
  30726 ****         1.2500 -17.0000 -28.7500 Du        
  30727 ****         1.2500 -17.0000 -28.5000 Du        
  30728 ****         1.2500 -17.0000 -28.2500 Du        
  30729 ****         1.2500 -16.7500 -29.5000 Du        
  30730 ****         1.2500 -16.7500 -29.2500 Du        
  30731 ****         1.2500 -16.7500 -29.0000 Du        
  30732 ****         1.2500 -16.7500 -28.7500 Du        
  30733 ****         1.2500 -16.7500 -28.5000 Du        
  30734 ****         1.2500 -16.5000 -29.5000 Du        
  30735 ****         1.2500 -16.5000 -29.2500 Du        
  30736 ****         1.2500 -16.5000 -29.0000 Du        
  30737 ****         1.2500 -16.5000 -28.7500 Du        
  30738 ****         1.2500 -16.5000 -28.5000 Du        
  30739 ****         1.2500 -16.2500 -29.5000 Du        
  30740 ****         1.2500 -16.2500 -29.2500 Du        
  30741 ****         1.2500 -16.2500 -29.0000 Du        
  30742 ****         1.2500 -16.2500 -28.7500 Du        
  30743 ****         1.2500 -16.0000 -29.5000 Du        
  30744 ****         1.2500 -16.0000 -29.2500 Du        
  30745 ****         1.2500 -16.0000 -29.0000 Du        
  30746 ****         1.2500 -16.0000 -28.7500 Du        
  30747 ****         1.2500 -15.7500 -29.5000 Du        
  30748 ****         1.2500 -15.7500 -29.2500 Du        
  30749 ****         1.2500 -15.7500 -29.0000 Du        
  30750 ****         1.2500 -15.7500 -28.7500 Du        
  30751 ****         1.2500 -15.5000 -29.5000 Du        
  30752 ****         1.2500 -15.5000 -29.2500 Du        
  30753 ****         1.2500 -15.5000 -29.0000 Du        
  30754 ****         1.2500 -15.2500 -29.5000 Du        
  30755 ****         1.2500 -15.2500 -29.2500 Du        
  30756 ****         1.2500 -15.2500 -29.0000 Du        
  30757 ****         1.2500 -15.0000 -29.2500 Du        
  30758 ****         1.2500  -3.5000 -27.2500 Du        
  30759 ****         1.2500  -3.2500 -27.7500 Du        
  30760 ****         1.2500  -3.2500 -27.5000 Du        
  30761 ****         1.2500  -3.2500 -27.2500 Du        
  30762 ****         1.2500  -3.2500 -27.0000 Du        
  30763 ****         1.2500  -3.0000 -27.7500 Du        
  30764 ****         1.5000 -29.0000 -14.7500 Du        
  30765 ****         1.5000 -29.0000 -14.5000 Du        
  30766 ****         1.5000 -29.0000 -14.2500 Du        
  30767 ****         1.5000 -28.7500 -14.7500 Du        
  30768 ****         1.5000 -28.7500 -14.5000 Du        
  30769 ****         1.5000 -28.7500 -14.2500 Du        
  30770 ****         1.5000 -28.5000 -14.5000 Du        
  30771 ****         1.5000 -28.5000 -14.2500 Du        
  30772 ****         1.5000 -26.5000 -14.2500 Du        
  30773 ****         1.5000 -26.2500 -14.5000 Du        
  30774 ****         1.5000 -26.2500 -14.2500 Du        
  30775 ****         1.5000 -26.2500 -14.0000 Du        
  30776 ****         1.5000 -26.0000 -14.5000 Du        
  30777 ****         1.5000 -26.0000 -14.2500 Du        
  30778 ****         1.5000 -26.0000 -14.0000 Du        
  30779 ****         1.5000 -26.0000 -13.7500 Du        
  30780 ****         1.5000 -25.7500 -14.5000 Du        
  30781 ****         1.5000 -25.7500 -14.2500 Du        
  30782 ****         1.5000 -25.7500 -14.0000 Du        
  30783 ****         1.5000 -25.7500 -13.7500 Du        
  30784 ****         1.5000 -25.7500 -13.5000 Du        
  30785 ****         1.5000 -25.5000 -14.5000 Du        
  30786 ****         1.5000 -25.5000 -14.2500 Du        
  30787 ****         1.5000 -25.5000 -14.0000 Du        
  30788 ****         1.5000 -25.5000 -13.7500 Du        
  30789 ****         1.5000 -25.5000 -13.5000 Du        
  30790 ****         1.5000 -25.5000 -13.2500 Du        
  30791 ****         1.5000 -25.2500 -14.5000 Du        
  30792 ****         1.5000 -25.2500 -14.2500 Du        
  30793 ****         1.5000 -25.2500 -14.0000 Du        
  30794 ****         1.5000 -25.2500 -13.7500 Du        
  30795 ****         1.5000 -25.2500 -13.5000 Du        
  30796 ****         1.5000 -25.2500 -13.2500 Du        
  30797 ****         1.5000 -25.0000 -14.7500 Du        
  30798 ****         1.5000 -25.0000 -14.5000 Du        
  30799 ****         1.5000 -25.0000 -14.2500 Du        
  30800 ****         1.5000 -25.0000 -14.0000 Du        
  30801 ****         1.5000 -25.0000 -13.7500 Du        
  30802 ****         1.5000 -25.0000 -13.5000 Du        
  30803 ****         1.5000 -25.0000 -13.2500 Du        
  30804 ****         1.5000 -24.7500 -14.7500 Du        
  30805 ****         1.5000 -24.7500 -14.5000 Du        
  30806 ****         1.5000 -24.7500 -14.2500 Du        
  30807 ****         1.5000 -24.7500 -14.0000 Du        
  30808 ****         1.5000 -24.7500 -13.7500 Du        
  30809 ****         1.5000 -24.5000 -15.0000 Du        
  30810 ****         1.5000 -24.5000 -14.7500 Du        
  30811 ****         1.5000 -24.5000 -14.5000 Du        
  30812 ****         1.5000 -24.5000 -14.2500 Du        
  30813 ****         1.5000 -24.5000 -14.0000 Du        
  30814 ****         1.5000 -24.2500 -15.0000 Du        
  30815 ****         1.5000 -24.2500 -14.7500 Du        
  30816 ****         1.5000 -24.2500 -14.5000 Du        
  30817 ****         1.5000 -24.2500 -14.2500 Du        
  30818 ****         1.5000 -24.0000 -15.0000 Du        
  30819 ****         1.5000 -24.0000 -14.7500 Du        
  30820 ****         1.5000 -24.0000 -14.5000 Du        
  30821 ****         1.5000 -23.7500 -15.2500 Du        
  30822 ****         1.5000 -23.7500 -15.0000 Du        
  30823 ****         1.5000 -23.7500 -14.7500 Du        
  30824 ****         1.5000 -23.5000 -15.7500 Du        
  30825 ****         1.5000 -23.5000 -15.5000 Du        
  30826 ****         1.5000 -23.5000 -15.2500 Du        
  30827 ****         1.5000 -23.5000 -15.0000 Du        
  30828 ****         1.5000 -23.2500 -16.2500 Du        
  30829 ****         1.5000 -23.2500 -16.0000 Du        
  30830 ****         1.5000 -23.2500 -15.7500 Du        
  30831 ****         1.5000 -23.2500 -15.5000 Du        
  30832 ****         1.5000 -23.2500 -15.2500 Du        
  30833 ****         1.5000 -23.2500 -15.0000 Du        
  30834 ****         1.5000 -23.0000 -16.5000 Du        
  30835 ****         1.5000 -23.0000 -16.2500 Du        
  30836 ****         1.5000 -23.0000 -16.0000 Du        
  30837 ****         1.5000 -23.0000 -15.7500 Du        
  30838 ****         1.5000 -23.0000 -15.5000 Du        
  30839 ****         1.5000 -23.0000 -15.2500 Du        
  30840 ****         1.5000 -22.7500 -17.0000 Du        
  30841 ****         1.5000 -22.7500 -16.7500 Du        
  30842 ****         1.5000 -22.7500 -16.5000 Du        
  30843 ****         1.5000 -22.7500 -16.2500 Du        
  30844 ****         1.5000 -22.7500 -16.0000 Du        
  30845 ****         1.5000 -22.7500 -15.7500 Du        
  30846 ****         1.5000 -22.7500 -15.5000 Du        
  30847 ****         1.5000 -22.5000 -17.0000 Du        
  30848 ****         1.5000 -22.5000 -16.7500 Du        
  30849 ****         1.5000 -22.5000 -16.5000 Du        
  30850 ****         1.5000 -22.5000 -16.2500 Du        
  30851 ****         1.5000 -22.5000 -16.0000 Du        
  30852 ****         1.5000 -22.5000 -15.7500 Du        
  30853 ****         1.5000 -22.2500 -17.0000 Du        
  30854 ****         1.5000 -22.2500 -16.7500 Du        
  30855 ****         1.5000 -22.2500 -16.5000 Du        
  30856 ****         1.5000 -22.2500 -16.2500 Du        
  30857 ****         1.5000 -22.2500 -16.0000 Du        
  30858 ****         1.5000 -22.2500 -15.7500 Du        
  30859 ****         1.5000 -22.0000 -17.0000 Du        
  30860 ****         1.5000 -22.0000 -16.7500 Du        
  30861 ****         1.5000 -22.0000 -16.5000 Du        
  30862 ****         1.5000 -22.0000 -16.2500 Du        
  30863 ****         1.5000 -22.0000 -16.0000 Du        
  30864 ****         1.5000 -21.7500 -17.0000 Du        
  30865 ****         1.5000 -21.7500 -16.7500 Du        
  30866 ****         1.5000 -21.7500 -16.5000 Du        
  30867 ****         1.5000 -21.7500 -16.2500 Du        
  30868 ****         1.5000 -21.7500 -16.0000 Du        
  30869 ****         1.5000 -21.0000 -28.7500 Du        
  30870 ****         1.5000 -21.0000 -28.5000 Du        
  30871 ****         1.5000 -20.7500 -29.0000 Du        
  30872 ****         1.5000 -20.7500 -28.7500 Du        
  30873 ****         1.5000 -20.7500 -28.5000 Du        
  30874 ****         1.5000 -20.5000 -29.0000 Du        
  30875 ****         1.5000 -20.5000 -28.7500 Du        
  30876 ****         1.5000 -20.5000 -28.5000 Du        
  30877 ****         1.5000 -20.5000 -28.2500 Du        
  30878 ****         1.5000 -20.2500 -29.2500 Du        
  30879 ****         1.5000 -20.2500 -29.0000 Du        
  30880 ****         1.5000 -20.2500 -28.7500 Du        
  30881 ****         1.5000 -20.2500 -28.5000 Du        
  30882 ****         1.5000 -20.2500 -28.2500 Du        
  30883 ****         1.5000 -20.2500 -28.0000 Du        
  30884 ****         1.5000 -20.0000 -29.2500 Du        
  30885 ****         1.5000 -20.0000 -29.0000 Du        
  30886 ****         1.5000 -20.0000 -28.7500 Du        
  30887 ****         1.5000 -20.0000 -28.5000 Du        
  30888 ****         1.5000 -20.0000 -28.2500 Du        
  30889 ****         1.5000 -20.0000 -28.0000 Du        
  30890 ****         1.5000 -19.7500 -29.5000 Du        
  30891 ****         1.5000 -19.7500 -29.2500 Du        
  30892 ****         1.5000 -19.7500 -29.0000 Du        
  30893 ****         1.5000 -19.7500 -28.7500 Du        
  30894 ****         1.5000 -19.7500 -28.5000 Du        
  30895 ****         1.5000 -19.7500 -28.2500 Du        
  30896 ****         1.5000 -19.7500 -28.0000 Du        
  30897 ****         1.5000 -19.7500 -27.7500 Du        
  30898 ****         1.5000 -19.7500 -15.0000 Du        
  30899 ****         1.5000 -19.7500 -14.7500 Du        
  30900 ****         1.5000 -19.7500 -14.5000 Du        
  30901 ****         1.5000 -19.5000 -29.5000 Du        
  30902 ****         1.5000 -19.5000 -29.2500 Du        
  30903 ****         1.5000 -19.5000 -29.0000 Du        
  30904 ****         1.5000 -19.5000 -28.7500 Du        
  30905 ****         1.5000 -19.5000 -28.5000 Du        
  30906 ****         1.5000 -19.5000 -28.2500 Du        
  30907 ****         1.5000 -19.5000 -28.0000 Du        
  30908 ****         1.5000 -19.5000 -27.7500 Du        
  30909 ****         1.5000 -19.5000 -15.0000 Du        
  30910 ****         1.5000 -19.5000 -14.7500 Du        
  30911 ****         1.5000 -19.5000 -14.5000 Du        
  30912 ****         1.5000 -19.5000 -14.2500 Du        
  30913 ****         1.5000 -19.2500 -29.5000 Du        
  30914 ****         1.5000 -19.2500 -29.2500 Du        
  30915 ****         1.5000 -19.2500 -29.0000 Du        
  30916 ****         1.5000 -19.2500 -28.7500 Du        
  30917 ****         1.5000 -19.2500 -28.5000 Du        
  30918 ****         1.5000 -19.2500 -28.2500 Du        
  30919 ****         1.5000 -19.2500 -28.0000 Du        
  30920 ****         1.5000 -19.2500 -27.7500 Du        
  30921 ****         1.5000 -19.2500 -15.2500 Du        
  30922 ****         1.5000 -19.2500 -15.0000 Du        
  30923 ****         1.5000 -19.2500 -14.7500 Du        
  30924 ****         1.5000 -19.2500 -14.5000 Du        
  30925 ****         1.5000 -19.2500 -14.2500 Du        
  30926 ****         1.5000 -19.2500 -14.0000 Du        
  30927 ****         1.5000 -19.0000 -29.5000 Du        
  30928 ****         1.5000 -19.0000 -29.2500 Du        
  30929 ****         1.5000 -19.0000 -29.0000 Du        
  30930 ****         1.5000 -19.0000 -28.7500 Du        
  30931 ****         1.5000 -19.0000 -28.5000 Du        
  30932 ****         1.5000 -19.0000 -28.2500 Du        
  30933 ****         1.5000 -19.0000 -28.0000 Du        
  30934 ****         1.5000 -19.0000 -27.7500 Du        
  30935 ****         1.5000 -19.0000 -15.2500 Du        
  30936 ****         1.5000 -19.0000 -15.0000 Du        
  30937 ****         1.5000 -19.0000 -14.7500 Du        
  30938 ****         1.5000 -19.0000 -14.5000 Du        
  30939 ****         1.5000 -19.0000 -14.2500 Du        
  30940 ****         1.5000 -19.0000 -14.0000 Du        
  30941 ****         1.5000 -19.0000 -13.7500 Du        
  30942 ****         1.5000 -18.7500 -29.5000 Du        
  30943 ****         1.5000 -18.7500 -29.2500 Du        
  30944 ****         1.5000 -18.7500 -29.0000 Du        
  30945 ****         1.5000 -18.7500 -28.7500 Du        
  30946 ****         1.5000 -18.7500 -28.5000 Du        
  30947 ****         1.5000 -18.7500 -28.2500 Du        
  30948 ****         1.5000 -18.7500 -28.0000 Du        
  30949 ****         1.5000 -18.7500 -27.7500 Du        
  30950 ****         1.5000 -18.7500 -15.2500 Du        
  30951 ****         1.5000 -18.7500 -15.0000 Du        
  30952 ****         1.5000 -18.7500 -14.7500 Du        
  30953 ****         1.5000 -18.7500 -14.5000 Du        
  30954 ****         1.5000 -18.7500 -14.2500 Du        
  30955 ****         1.5000 -18.7500 -14.0000 Du        
  30956 ****         1.5000 -18.7500 -13.7500 Du        
  30957 ****         1.5000 -18.5000 -29.2500 Du        
  30958 ****         1.5000 -18.5000 -29.0000 Du        
  30959 ****         1.5000 -18.5000 -28.7500 Du        
  30960 ****         1.5000 -18.5000 -28.5000 Du        
  30961 ****         1.5000 -18.5000 -28.2500 Du        
  30962 ****         1.5000 -18.5000 -28.0000 Du        
  30963 ****         1.5000 -18.5000 -27.7500 Du        
  30964 ****         1.5000 -18.5000 -15.0000 Du        
  30965 ****         1.5000 -18.5000 -14.7500 Du        
  30966 ****         1.5000 -18.5000 -14.5000 Du        
  30967 ****         1.5000 -18.5000 -14.2500 Du        
  30968 ****         1.5000 -18.5000 -14.0000 Du        
  30969 ****         1.5000 -18.2500 -29.2500 Du        
  30970 ****         1.5000 -18.2500 -29.0000 Du        
  30971 ****         1.5000 -18.2500 -28.7500 Du        
  30972 ****         1.5000 -18.2500 -28.5000 Du        
  30973 ****         1.5000 -18.2500 -28.2500 Du        
  30974 ****         1.5000 -18.2500 -28.0000 Du        
  30975 ****         1.5000 -18.2500 -27.7500 Du        
  30976 ****         1.5000 -18.2500 -14.5000 Du        
  30977 ****         1.5000 -18.0000 -29.2500 Du        
  30978 ****         1.5000 -18.0000 -29.0000 Du        
  30979 ****         1.5000 -18.0000 -28.7500 Du        
  30980 ****         1.5000 -18.0000 -28.5000 Du        
  30981 ****         1.5000 -18.0000 -28.2500 Du        
  30982 ****         1.5000 -18.0000 -28.0000 Du        
  30983 ****         1.5000 -18.0000 -27.7500 Du        
  30984 ****         1.5000 -17.7500 -29.2500 Du        
  30985 ****         1.5000 -17.7500 -29.0000 Du        
  30986 ****         1.5000 -17.7500 -28.7500 Du        
  30987 ****         1.5000 -17.7500 -28.5000 Du        
  30988 ****         1.5000 -17.7500 -28.2500 Du        
  30989 ****         1.5000 -17.7500 -28.0000 Du        
  30990 ****         1.5000 -17.5000 -29.2500 Du        
  30991 ****         1.5000 -17.5000 -29.0000 Du        
  30992 ****         1.5000 -17.5000 -28.7500 Du        
  30993 ****         1.5000 -17.5000 -28.5000 Du        
  30994 ****         1.5000 -17.5000 -28.2500 Du        
  30995 ****         1.5000 -17.2500 -29.2500 Du        
  30996 ****         1.5000 -17.2500 -29.0000 Du        
  30997 ****         1.5000 -17.2500 -28.7500 Du        
  30998 ****         1.5000 -17.2500 -28.5000 Du        
  30999 ****         1.5000 -17.2500 -28.2500 Du        
  31000 ****         1.5000 -17.0000 -29.2500 Du        
  31001 ****         1.5000 -17.0000 -29.0000 Du        
  31002 ****         1.5000 -17.0000 -28.7500 Du        
  31003 ****         1.5000 -17.0000 -28.5000 Du        
  31004 ****         1.5000 -16.7500 -29.2500 Du        
  31005 ****         1.5000 -16.7500 -29.0000 Du        
  31006 ****         1.5000 -16.7500 -28.7500 Du        
  31007 ****         1.5000 -16.7500 -28.5000 Du        
  31008 ****         1.5000 -16.5000 -29.2500 Du        
  31009 ****         1.5000 -16.5000 -29.0000 Du        
  31010 ****         1.5000 -16.5000 -28.7500 Du        
  31011 ****         1.5000 -16.2500 -29.2500 Du        
  31012 ****         1.5000 -16.2500 -29.0000 Du        
  31013 ****         1.5000 -16.2500 -28.7500 Du        
  31014 ****         1.5000 -16.0000 -29.2500 Du        
  31015 ****         1.5000 -16.0000 -29.0000 Du        
  31016 ****         1.5000 -15.7500 -29.2500 Du        
  31017 ****         1.5000 -15.7500 -29.0000 Du        
  31018 ****         1.7500 -29.0000 -14.7500 Du        
  31019 ****         1.7500 -29.0000 -14.5000 Du        
  31020 ****         1.7500 -29.0000 -14.2500 Du        
  31021 ****         1.7500 -28.7500 -14.5000 Du        
  31022 ****         1.7500 -28.7500 -14.2500 Du        
  31023 ****         1.7500 -26.2500 -14.2500 Du        
  31024 ****         1.7500 -26.2500 -14.0000 Du        
  31025 ****         1.7500 -26.0000 -14.5000 Du        
  31026 ****         1.7500 -26.0000 -14.2500 Du        
  31027 ****         1.7500 -26.0000 -14.0000 Du        
  31028 ****         1.7500 -25.7500 -14.5000 Du        
  31029 ****         1.7500 -25.7500 -14.2500 Du        
  31030 ****         1.7500 -25.7500 -14.0000 Du        
  31031 ****         1.7500 -25.7500 -13.7500 Du        
  31032 ****         1.7500 -25.5000 -14.5000 Du        
  31033 ****         1.7500 -25.5000 -14.2500 Du        
  31034 ****         1.7500 -25.5000 -14.0000 Du        
  31035 ****         1.7500 -25.5000 -13.7500 Du        
  31036 ****         1.7500 -25.5000 -13.5000 Du        
  31037 ****         1.7500 -25.2500 -14.5000 Du        
  31038 ****         1.7500 -25.2500 -14.2500 Du        
  31039 ****         1.7500 -25.2500 -14.0000 Du        
  31040 ****         1.7500 -25.2500 -13.7500 Du        
  31041 ****         1.7500 -25.2500 -13.5000 Du        
  31042 ****         1.7500 -25.2500 -13.2500 Du        
  31043 ****         1.7500 -25.0000 -14.7500 Du        
  31044 ****         1.7500 -25.0000 -14.5000 Du        
  31045 ****         1.7500 -25.0000 -14.2500 Du        
  31046 ****         1.7500 -25.0000 -14.0000 Du        
  31047 ****         1.7500 -25.0000 -13.7500 Du        
  31048 ****         1.7500 -25.0000 -13.5000 Du        
  31049 ****         1.7500 -24.7500 -15.0000 Du        
  31050 ****         1.7500 -24.7500 -14.7500 Du        
  31051 ****         1.7500 -24.7500 -14.5000 Du        
  31052 ****         1.7500 -24.7500 -14.2500 Du        
  31053 ****         1.7500 -24.7500 -14.0000 Du        
  31054 ****         1.7500 -24.7500 -13.7500 Du        
  31055 ****         1.7500 -24.5000 -15.0000 Du        
  31056 ****         1.7500 -24.5000 -14.7500 Du        
  31057 ****         1.7500 -24.5000 -14.5000 Du        
  31058 ****         1.7500 -24.5000 -14.2500 Du        
  31059 ****         1.7500 -24.5000 -14.0000 Du        
  31060 ****         1.7500 -24.2500 -15.0000 Du        
  31061 ****         1.7500 -24.2500 -14.7500 Du        
  31062 ****         1.7500 -24.2500 -14.5000 Du        
  31063 ****         1.7500 -24.2500 -14.2500 Du        
  31064 ****         1.7500 -24.0000 -15.2500 Du        
  31065 ****         1.7500 -24.0000 -15.0000 Du        
  31066 ****         1.7500 -24.0000 -14.7500 Du        
  31067 ****         1.7500 -24.0000 -14.5000 Du        
  31068 ****         1.7500 -23.7500 -15.5000 Du        
  31069 ****         1.7500 -23.7500 -15.2500 Du        
  31070 ****         1.7500 -23.7500 -15.0000 Du        
  31071 ****         1.7500 -23.7500 -14.7500 Du        
  31072 ****         1.7500 -23.5000 -16.0000 Du        
  31073 ****         1.7500 -23.5000 -15.7500 Du        
  31074 ****         1.7500 -23.5000 -15.5000 Du        
  31075 ****         1.7500 -23.5000 -15.2500 Du        
  31076 ****         1.7500 -23.5000 -15.0000 Du        
  31077 ****         1.7500 -23.2500 -16.2500 Du        
  31078 ****         1.7500 -23.2500 -16.0000 Du        
  31079 ****         1.7500 -23.2500 -15.7500 Du        
  31080 ****         1.7500 -23.2500 -15.5000 Du        
  31081 ****         1.7500 -23.2500 -15.2500 Du        
  31082 ****         1.7500 -23.2500 -15.0000 Du        
  31083 ****         1.7500 -23.0000 -16.7500 Du        
  31084 ****         1.7500 -23.0000 -16.5000 Du        
  31085 ****         1.7500 -23.0000 -16.2500 Du        
  31086 ****         1.7500 -23.0000 -16.0000 Du        
  31087 ****         1.7500 -23.0000 -15.7500 Du        
  31088 ****         1.7500 -23.0000 -15.5000 Du        
  31089 ****         1.7500 -23.0000 -15.2500 Du        
  31090 ****         1.7500 -23.0000 -15.0000 Du        
  31091 ****         1.7500 -22.7500 -17.0000 Du        
  31092 ****         1.7500 -22.7500 -16.7500 Du        
  31093 ****         1.7500 -22.7500 -16.5000 Du        
  31094 ****         1.7500 -22.7500 -16.2500 Du        
  31095 ****         1.7500 -22.7500 -16.0000 Du        
  31096 ****         1.7500 -22.7500 -15.7500 Du        
  31097 ****         1.7500 -22.7500 -15.5000 Du        
  31098 ****         1.7500 -22.7500 -15.2500 Du        
  31099 ****         1.7500 -22.7500 -15.0000 Du        
  31100 ****         1.7500 -22.5000 -17.0000 Du        
  31101 ****         1.7500 -22.5000 -16.7500 Du        
  31102 ****         1.7500 -22.5000 -16.5000 Du        
  31103 ****         1.7500 -22.5000 -16.2500 Du        
  31104 ****         1.7500 -22.5000 -16.0000 Du        
  31105 ****         1.7500 -22.5000 -15.7500 Du        
  31106 ****         1.7500 -22.2500 -17.2500 Du        
  31107 ****         1.7500 -22.2500 -17.0000 Du        
  31108 ****         1.7500 -22.2500 -16.7500 Du        
  31109 ****         1.7500 -22.2500 -16.5000 Du        
  31110 ****         1.7500 -22.2500 -16.2500 Du        
  31111 ****         1.7500 -22.2500 -16.0000 Du        
  31112 ****         1.7500 -22.2500 -15.7500 Du        
  31113 ****         1.7500 -22.0000 -17.2500 Du        
  31114 ****         1.7500 -22.0000 -17.0000 Du        
  31115 ****         1.7500 -22.0000 -16.7500 Du        
  31116 ****         1.7500 -22.0000 -16.5000 Du        
  31117 ****         1.7500 -22.0000 -16.2500 Du        
  31118 ****         1.7500 -22.0000 -16.0000 Du        
  31119 ****         1.7500 -21.7500 -17.2500 Du        
  31120 ****         1.7500 -21.7500 -17.0000 Du        
  31121 ****         1.7500 -21.7500 -16.7500 Du        
  31122 ****         1.7500 -21.7500 -16.5000 Du        
  31123 ****         1.7500 -21.7500 -16.2500 Du        
  31124 ****         1.7500 -21.7500 -16.0000 Du        
  31125 ****         1.7500 -20.5000 -29.0000 Du        
  31126 ****         1.7500 -20.5000 -28.7500 Du        
  31127 ****         1.7500 -20.5000 -28.5000 Du        
  31128 ****         1.7500 -20.2500 -29.2500 Du        
  31129 ****         1.7500 -20.2500 -29.0000 Du        
  31130 ****         1.7500 -20.2500 -28.7500 Du        
  31131 ****         1.7500 -20.2500 -28.5000 Du        
  31132 ****         1.7500 -20.2500 -28.2500 Du        
  31133 ****         1.7500 -20.0000 -29.2500 Du        
  31134 ****         1.7500 -20.0000 -29.0000 Du        
  31135 ****         1.7500 -20.0000 -28.7500 Du        
  31136 ****         1.7500 -20.0000 -28.5000 Du        
  31137 ****         1.7500 -20.0000 -28.2500 Du        
  31138 ****         1.7500 -20.0000 -15.0000 Du        
  31139 ****         1.7500 -19.7500 -29.2500 Du        
  31140 ****         1.7500 -19.7500 -29.0000 Du        
  31141 ****         1.7500 -19.7500 -28.7500 Du        
  31142 ****         1.7500 -19.7500 -28.5000 Du        
  31143 ****         1.7500 -19.7500 -28.2500 Du        
  31144 ****         1.7500 -19.7500 -28.0000 Du        
  31145 ****         1.7500 -19.7500 -15.2500 Du        
  31146 ****         1.7500 -19.7500 -15.0000 Du        
  31147 ****         1.7500 -19.7500 -14.7500 Du        
  31148 ****         1.7500 -19.7500 -14.5000 Du        
  31149 ****         1.7500 -19.5000 -29.5000 Du        
  31150 ****         1.7500 -19.5000 -29.2500 Du        
  31151 ****         1.7500 -19.5000 -29.0000 Du        
  31152 ****         1.7500 -19.5000 -28.7500 Du        
  31153 ****         1.7500 -19.5000 -28.5000 Du        
  31154 ****         1.7500 -19.5000 -28.2500 Du        
  31155 ****         1.7500 -19.5000 -28.0000 Du        
  31156 ****         1.7500 -19.5000 -27.7500 Du        
  31157 ****         1.7500 -19.5000 -15.2500 Du        
  31158 ****         1.7500 -19.5000 -15.0000 Du        
  31159 ****         1.7500 -19.5000 -14.7500 Du        
  31160 ****         1.7500 -19.5000 -14.5000 Du        
  31161 ****         1.7500 -19.5000 -14.2500 Du        
  31162 ****         1.7500 -19.5000 -14.0000 Du        
  31163 ****         1.7500 -19.2500 -29.5000 Du        
  31164 ****         1.7500 -19.2500 -29.2500 Du        
  31165 ****         1.7500 -19.2500 -29.0000 Du        
  31166 ****         1.7500 -19.2500 -28.7500 Du        
  31167 ****         1.7500 -19.2500 -28.5000 Du        
  31168 ****         1.7500 -19.2500 -28.2500 Du        
  31169 ****         1.7500 -19.2500 -28.0000 Du        
  31170 ****         1.7500 -19.2500 -27.7500 Du        
  31171 ****         1.7500 -19.2500 -27.5000 Du        
  31172 ****         1.7500 -19.2500 -15.2500 Du        
  31173 ****         1.7500 -19.2500 -15.0000 Du        
  31174 ****         1.7500 -19.2500 -14.7500 Du        
  31175 ****         1.7500 -19.2500 -14.5000 Du        
  31176 ****         1.7500 -19.2500 -14.2500 Du        
  31177 ****         1.7500 -19.2500 -14.0000 Du        
  31178 ****         1.7500 -19.2500 -13.7500 Du        
  31179 ****         1.7500 -19.0000 -29.5000 Du        
  31180 ****         1.7500 -19.0000 -29.2500 Du        
  31181 ****         1.7500 -19.0000 -29.0000 Du        
  31182 ****         1.7500 -19.0000 -28.7500 Du        
  31183 ****         1.7500 -19.0000 -28.5000 Du        
  31184 ****         1.7500 -19.0000 -28.2500 Du        
  31185 ****         1.7500 -19.0000 -28.0000 Du        
  31186 ****         1.7500 -19.0000 -27.7500 Du        
  31187 ****         1.7500 -19.0000 -27.5000 Du        
  31188 ****         1.7500 -19.0000 -15.2500 Du        
  31189 ****         1.7500 -19.0000 -15.0000 Du        
  31190 ****         1.7500 -19.0000 -14.7500 Du        
  31191 ****         1.7500 -19.0000 -14.5000 Du        
  31192 ****         1.7500 -19.0000 -14.2500 Du        
  31193 ****         1.7500 -19.0000 -14.0000 Du        
  31194 ****         1.7500 -19.0000 -13.7500 Du        
  31195 ****         1.7500 -19.0000 -13.5000 Du        
  31196 ****         1.7500 -18.7500 -29.2500 Du        
  31197 ****         1.7500 -18.7500 -29.0000 Du        
  31198 ****         1.7500 -18.7500 -28.7500 Du        
  31199 ****         1.7500 -18.7500 -28.5000 Du        
  31200 ****         1.7500 -18.7500 -28.2500 Du        
  31201 ****         1.7500 -18.7500 -28.0000 Du        
  31202 ****         1.7500 -18.7500 -27.7500 Du        
  31203 ****         1.7500 -18.7500 -27.5000 Du        
  31204 ****         1.7500 -18.7500 -15.2500 Du        
  31205 ****         1.7500 -18.7500 -15.0000 Du        
  31206 ****         1.7500 -18.7500 -14.7500 Du        
  31207 ****         1.7500 -18.7500 -14.5000 Du        
  31208 ****         1.7500 -18.7500 -14.2500 Du        
  31209 ****         1.7500 -18.7500 -14.0000 Du        
  31210 ****         1.7500 -18.7500 -13.7500 Du        
  31211 ****         1.7500 -18.7500 -13.5000 Du        
  31212 ****         1.7500 -18.5000 -29.2500 Du        
  31213 ****         1.7500 -18.5000 -29.0000 Du        
  31214 ****         1.7500 -18.5000 -28.7500 Du        
  31215 ****         1.7500 -18.5000 -28.5000 Du        
  31216 ****         1.7500 -18.5000 -28.2500 Du        
  31217 ****         1.7500 -18.5000 -28.0000 Du        
  31218 ****         1.7500 -18.5000 -27.7500 Du        
  31219 ****         1.7500 -18.5000 -27.5000 Du        
  31220 ****         1.7500 -18.5000 -14.5000 Du        
  31221 ****         1.7500 -18.5000 -14.2500 Du        
  31222 ****         1.7500 -18.5000 -14.0000 Du        
  31223 ****         1.7500 -18.2500 -29.2500 Du        
  31224 ****         1.7500 -18.2500 -29.0000 Du        
  31225 ****         1.7500 -18.2500 -28.7500 Du        
  31226 ****         1.7500 -18.2500 -28.5000 Du        
  31227 ****         1.7500 -18.2500 -28.2500 Du        
  31228 ****         1.7500 -18.2500 -28.0000 Du        
  31229 ****         1.7500 -18.2500 -27.7500 Du        
  31230 ****         1.7500 -18.0000 -29.2500 Du        
  31231 ****         1.7500 -18.0000 -29.0000 Du        
  31232 ****         1.7500 -18.0000 -28.7500 Du        
  31233 ****         1.7500 -18.0000 -28.5000 Du        
  31234 ****         1.7500 -18.0000 -28.2500 Du        
  31235 ****         1.7500 -18.0000 -28.0000 Du        
  31236 ****         1.7500 -18.0000 -27.7500 Du        
  31237 ****         1.7500 -17.7500 -29.2500 Du        
  31238 ****         1.7500 -17.7500 -29.0000 Du        
  31239 ****         1.7500 -17.7500 -28.7500 Du        
  31240 ****         1.7500 -17.7500 -28.5000 Du        
  31241 ****         1.7500 -17.7500 -28.2500 Du        
  31242 ****         1.7500 -17.7500 -28.0000 Du        
  31243 ****         1.7500 -17.5000 -29.2500 Du        
  31244 ****         1.7500 -17.5000 -29.0000 Du        
  31245 ****         1.7500 -17.5000 -28.7500 Du        
  31246 ****         1.7500 -17.5000 -28.5000 Du        
  31247 ****         1.7500 -17.5000 -28.2500 Du        
  31248 ****         1.7500 -17.2500 -29.2500 Du        
  31249 ****         1.7500 -17.2500 -29.0000 Du        
  31250 ****         1.7500 -17.2500 -28.7500 Du        
  31251 ****         1.7500 -17.2500 -28.5000 Du        
  31252 ****         1.7500 -17.0000 -29.2500 Du        
  31253 ****         1.7500 -17.0000 -29.0000 Du        
  31254 ****         1.7500 -17.0000 -28.7500 Du        
  31255 ****         1.7500 -17.0000 -28.5000 Du        
  31256 ****         1.7500 -16.7500 -29.2500 Du        
  31257 ****         1.7500 -16.7500 -29.0000 Du        
  31258 ****         1.7500 -16.7500 -28.7500 Du        
  31259 ****         1.7500 -16.5000 -29.0000 Du        
  31260 ****         1.7500 -16.2500 -29.0000 Du        
  31261 ****         2.0000 -26.2500 -14.2500 Du        
  31262 ****         2.0000 -26.0000 -14.2500 Du        
  31263 ****         2.0000 -26.0000 -14.0000 Du        
  31264 ****         2.0000 -25.7500 -14.5000 Du        
  31265 ****         2.0000 -25.7500 -14.2500 Du        
  31266 ****         2.0000 -25.7500 -14.0000 Du        
  31267 ****         2.0000 -25.7500 -13.7500 Du        
  31268 ****         2.0000 -25.5000 -14.5000 Du        
  31269 ****         2.0000 -25.5000 -14.2500 Du        
  31270 ****         2.0000 -25.5000 -14.0000 Du        
  31271 ****         2.0000 -25.5000 -13.7500 Du        
  31272 ****         2.0000 -25.5000 -13.5000 Du        
  31273 ****         2.0000 -25.2500 -14.5000 Du        
  31274 ****         2.0000 -25.2500 -14.2500 Du        
  31275 ****         2.0000 -25.2500 -14.0000 Du        
  31276 ****         2.0000 -25.2500 -13.7500 Du        
  31277 ****         2.0000 -25.2500 -13.5000 Du        
  31278 ****         2.0000 -25.2500 -13.2500 Du        
  31279 ****         2.0000 -25.0000 -14.7500 Du        
  31280 ****         2.0000 -25.0000 -14.5000 Du        
  31281 ****         2.0000 -25.0000 -14.2500 Du        
  31282 ****         2.0000 -25.0000 -14.0000 Du        
  31283 ****         2.0000 -25.0000 -13.7500 Du        
  31284 ****         2.0000 -25.0000 -13.5000 Du        
  31285 ****         2.0000 -24.7500 -15.0000 Du        
  31286 ****         2.0000 -24.7500 -14.7500 Du        
  31287 ****         2.0000 -24.7500 -14.5000 Du        
  31288 ****         2.0000 -24.7500 -14.2500 Du        
  31289 ****         2.0000 -24.7500 -14.0000 Du        
  31290 ****         2.0000 -24.7500 -13.7500 Du        
  31291 ****         2.0000 -24.5000 -15.0000 Du        
  31292 ****         2.0000 -24.5000 -14.7500 Du        
  31293 ****         2.0000 -24.5000 -14.5000 Du        
  31294 ****         2.0000 -24.5000 -14.2500 Du        
  31295 ****         2.0000 -24.5000 -14.0000 Du        
  31296 ****         2.0000 -24.2500 -15.2500 Du        
  31297 ****         2.0000 -24.2500 -15.0000 Du        
  31298 ****         2.0000 -24.2500 -14.7500 Du        
  31299 ****         2.0000 -24.2500 -14.5000 Du        
  31300 ****         2.0000 -24.2500 -14.2500 Du        
  31301 ****         2.0000 -24.0000 -15.2500 Du        
  31302 ****         2.0000 -24.0000 -15.0000 Du        
  31303 ****         2.0000 -24.0000 -14.7500 Du        
  31304 ****         2.0000 -24.0000 -14.5000 Du        
  31305 ****         2.0000 -23.7500 -15.7500 Du        
  31306 ****         2.0000 -23.7500 -15.5000 Du        
  31307 ****         2.0000 -23.7500 -15.2500 Du        
  31308 ****         2.0000 -23.7500 -15.0000 Du        
  31309 ****         2.0000 -23.7500 -14.7500 Du        
  31310 ****         2.0000 -23.5000 -16.0000 Du        
  31311 ****         2.0000 -23.5000 -15.7500 Du        
  31312 ****         2.0000 -23.5000 -15.5000 Du        
  31313 ****         2.0000 -23.5000 -15.2500 Du        
  31314 ****         2.0000 -23.5000 -15.0000 Du        
  31315 ****         2.0000 -23.2500 -16.2500 Du        
  31316 ****         2.0000 -23.2500 -16.0000 Du        
  31317 ****         2.0000 -23.2500 -15.7500 Du        
  31318 ****         2.0000 -23.2500 -15.5000 Du        
  31319 ****         2.0000 -23.2500 -15.2500 Du        
  31320 ****         2.0000 -23.2500 -15.0000 Du        
  31321 ****         2.0000 -23.0000 -16.7500 Du        
  31322 ****         2.0000 -23.0000 -16.5000 Du        
  31323 ****         2.0000 -23.0000 -16.2500 Du        
  31324 ****         2.0000 -23.0000 -16.0000 Du        
  31325 ****         2.0000 -23.0000 -15.7500 Du        
  31326 ****         2.0000 -23.0000 -15.5000 Du        
  31327 ****         2.0000 -23.0000 -15.2500 Du        
  31328 ****         2.0000 -23.0000 -15.0000 Du        
  31329 ****         2.0000 -22.7500 -17.0000 Du        
  31330 ****         2.0000 -22.7500 -16.7500 Du        
  31331 ****         2.0000 -22.7500 -16.5000 Du        
  31332 ****         2.0000 -22.7500 -16.2500 Du        
  31333 ****         2.0000 -22.7500 -16.0000 Du        
  31334 ****         2.0000 -22.7500 -15.7500 Du        
  31335 ****         2.0000 -22.7500 -15.5000 Du        
  31336 ****         2.0000 -22.7500 -15.2500 Du        
  31337 ****         2.0000 -22.7500 -15.0000 Du        
  31338 ****         2.0000 -22.5000 -17.0000 Du        
  31339 ****         2.0000 -22.5000 -16.7500 Du        
  31340 ****         2.0000 -22.5000 -16.5000 Du        
  31341 ****         2.0000 -22.5000 -16.2500 Du        
  31342 ****         2.0000 -22.5000 -16.0000 Du        
  31343 ****         2.0000 -22.5000 -15.7500 Du        
  31344 ****         2.0000 -22.2500 -17.2500 Du        
  31345 ****         2.0000 -22.2500 -17.0000 Du        
  31346 ****         2.0000 -22.2500 -16.7500 Du        
  31347 ****         2.0000 -22.2500 -16.5000 Du        
  31348 ****         2.0000 -22.2500 -16.2500 Du        
  31349 ****         2.0000 -22.2500 -16.0000 Du        
  31350 ****         2.0000 -22.2500 -15.7500 Du        
  31351 ****         2.0000 -22.0000 -17.2500 Du        
  31352 ****         2.0000 -22.0000 -17.0000 Du        
  31353 ****         2.0000 -22.0000 -16.7500 Du        
  31354 ****         2.0000 -22.0000 -16.5000 Du        
  31355 ****         2.0000 -22.0000 -16.2500 Du        
  31356 ****         2.0000 -22.0000 -16.0000 Du        
  31357 ****         2.0000 -21.7500 -17.2500 Du        
  31358 ****         2.0000 -21.7500 -17.0000 Du        
  31359 ****         2.0000 -21.7500 -16.7500 Du        
  31360 ****         2.0000 -21.7500 -16.5000 Du        
  31361 ****         2.0000 -21.7500 -16.2500 Du        
  31362 ****         2.0000 -21.7500 -16.0000 Du        
  31363 ****         2.0000 -20.2500 -28.7500 Du        
  31364 ****         2.0000 -20.0000 -29.0000 Du        
  31365 ****         2.0000 -20.0000 -28.7500 Du        
  31366 ****         2.0000 -20.0000 -28.5000 Du        
  31367 ****         2.0000 -20.0000 -15.0000 Du        
  31368 ****         2.0000 -20.0000 -14.7500 Du        
  31369 ****         2.0000 -19.7500 -29.2500 Du        
  31370 ****         2.0000 -19.7500 -29.0000 Du        
  31371 ****         2.0000 -19.7500 -28.7500 Du        
  31372 ****         2.0000 -19.7500 -28.5000 Du        
  31373 ****         2.0000 -19.7500 -28.2500 Du        
  31374 ****         2.0000 -19.7500 -15.0000 Du        
  31375 ****         2.0000 -19.7500 -14.7500 Du        
  31376 ****         2.0000 -19.7500 -14.5000 Du        
  31377 ****         2.0000 -19.5000 -29.2500 Du        
  31378 ****         2.0000 -19.5000 -29.0000 Du        
  31379 ****         2.0000 -19.5000 -28.7500 Du        
  31380 ****         2.0000 -19.5000 -28.5000 Du        
  31381 ****         2.0000 -19.5000 -28.2500 Du        
  31382 ****         2.0000 -19.5000 -28.0000 Du        
  31383 ****         2.0000 -19.5000 -15.0000 Du        
  31384 ****         2.0000 -19.5000 -14.7500 Du        
  31385 ****         2.0000 -19.5000 -14.5000 Du        
  31386 ****         2.0000 -19.5000 -14.2500 Du        
  31387 ****         2.0000 -19.5000 -14.0000 Du        
  31388 ****         2.0000 -19.2500 -29.2500 Du        
  31389 ****         2.0000 -19.2500 -29.0000 Du        
  31390 ****         2.0000 -19.2500 -28.7500 Du        
  31391 ****         2.0000 -19.2500 -28.5000 Du        
  31392 ****         2.0000 -19.2500 -28.2500 Du        
  31393 ****         2.0000 -19.2500 -28.0000 Du        
  31394 ****         2.0000 -19.2500 -27.7500 Du        
  31395 ****         2.0000 -19.2500 -15.2500 Du        
  31396 ****         2.0000 -19.2500 -15.0000 Du        
  31397 ****         2.0000 -19.2500 -14.7500 Du        
  31398 ****         2.0000 -19.2500 -14.5000 Du        
  31399 ****         2.0000 -19.2500 -14.2500 Du        
  31400 ****         2.0000 -19.2500 -14.0000 Du        
  31401 ****         2.0000 -19.2500 -13.7500 Du        
  31402 ****         2.0000 -19.0000 -29.2500 Du        
  31403 ****         2.0000 -19.0000 -29.0000 Du        
  31404 ****         2.0000 -19.0000 -28.7500 Du        
  31405 ****         2.0000 -19.0000 -28.5000 Du        
  31406 ****         2.0000 -19.0000 -28.2500 Du        
  31407 ****         2.0000 -19.0000 -28.0000 Du        
  31408 ****         2.0000 -19.0000 -27.7500 Du        
  31409 ****         2.0000 -19.0000 -27.5000 Du        
  31410 ****         2.0000 -19.0000 -15.2500 Du        
  31411 ****         2.0000 -19.0000 -15.0000 Du        
  31412 ****         2.0000 -19.0000 -14.7500 Du        
  31413 ****         2.0000 -19.0000 -14.5000 Du        
  31414 ****         2.0000 -19.0000 -14.2500 Du        
  31415 ****         2.0000 -19.0000 -14.0000 Du        
  31416 ****         2.0000 -19.0000 -13.7500 Du        
  31417 ****         2.0000 -18.7500 -29.2500 Du        
  31418 ****         2.0000 -18.7500 -29.0000 Du        
  31419 ****         2.0000 -18.7500 -28.7500 Du        
  31420 ****         2.0000 -18.7500 -28.5000 Du        
  31421 ****         2.0000 -18.7500 -28.2500 Du        
  31422 ****         2.0000 -18.7500 -28.0000 Du        
  31423 ****         2.0000 -18.7500 -27.7500 Du        
  31424 ****         2.0000 -18.7500 -27.5000 Du        
  31425 ****         2.0000 -18.7500 -18.7500 Du        
  31426 ****         2.0000 -18.7500 -15.0000 Du        
  31427 ****         2.0000 -18.7500 -14.5000 Du        
  31428 ****         2.0000 -18.7500 -14.2500 Du        
  31429 ****         2.0000 -18.7500 -14.0000 Du        
  31430 ****         2.0000 -18.7500 -13.7500 Du        
  31431 ****         2.0000 -18.5000 -29.2500 Du        
  31432 ****         2.0000 -18.5000 -29.0000 Du        
  31433 ****         2.0000 -18.5000 -28.7500 Du        
  31434 ****         2.0000 -18.5000 -28.5000 Du        
  31435 ****         2.0000 -18.5000 -28.2500 Du        
  31436 ****         2.0000 -18.5000 -28.0000 Du        
  31437 ****         2.0000 -18.5000 -27.7500 Du        
  31438 ****         2.0000 -18.5000 -27.5000 Du        
  31439 ****         2.0000 -18.2500 -29.2500 Du        
  31440 ****         2.0000 -18.2500 -29.0000 Du        
  31441 ****         2.0000 -18.2500 -28.7500 Du        
  31442 ****         2.0000 -18.2500 -28.5000 Du        
  31443 ****         2.0000 -18.2500 -28.2500 Du        
  31444 ****         2.0000 -18.2500 -28.0000 Du        
  31445 ****         2.0000 -18.2500 -27.7500 Du        
  31446 ****         2.0000 -18.0000 -29.0000 Du        
  31447 ****         2.0000 -18.0000 -28.7500 Du        
  31448 ****         2.0000 -18.0000 -28.5000 Du        
  31449 ****         2.0000 -18.0000 -28.2500 Du        
  31450 ****         2.0000 -18.0000 -28.0000 Du        
  31451 ****         2.0000 -17.7500 -29.0000 Du        
  31452 ****         2.0000 -17.7500 -28.7500 Du        
  31453 ****         2.0000 -17.7500 -28.5000 Du        
  31454 ****         2.0000 -17.7500 -28.2500 Du        
  31455 ****         2.0000 -17.5000 -29.0000 Du        
  31456 ****         2.0000 -17.5000 -28.7500 Du        
  31457 ****         2.0000 -17.5000 -28.5000 Du        
  31458 ****         2.0000 -17.2500 -29.0000 Du        
  31459 ****         2.0000 -17.2500 -28.7500 Du        
  31460 ****         2.0000 -17.2500 -28.5000 Du        
  31461 ****         2.0000 -17.0000 -29.0000 Du        
  31462 ****         2.0000 -17.0000 -28.7500 Du        
  31463 ****         2.0000 -16.7500 -29.0000 Du        
  31464 ****         2.0000 -16.7500 -28.7500 Du        
  31465 ****         2.2500 -26.0000 -14.2500 Du        
  31466 ****         2.2500 -26.0000 -14.0000 Du        
  31467 ****         2.2500 -25.7500 -14.2500 Du        
  31468 ****         2.2500 -25.7500 -14.0000 Du        
  31469 ****         2.2500 -25.7500 -13.7500 Du        
  31470 ****         2.2500 -25.5000 -14.5000 Du        
  31471 ****         2.2500 -25.5000 -14.2500 Du        
  31472 ****         2.2500 -25.5000 -14.0000 Du        
  31473 ****         2.2500 -25.5000 -13.7500 Du        
  31474 ****         2.2500 -25.5000 -13.5000 Du        
  31475 ****         2.2500 -25.2500 -14.5000 Du        
  31476 ****         2.2500 -25.2500 -14.2500 Du        
  31477 ****         2.2500 -25.2500 -14.0000 Du        
  31478 ****         2.2500 -25.2500 -13.7500 Du        
  31479 ****         2.2500 -25.2500 -13.5000 Du        
  31480 ****         2.2500 -25.0000 -14.7500 Du        
  31481 ****         2.2500 -25.0000 -14.5000 Du        
  31482 ****         2.2500 -25.0000 -14.2500 Du        
  31483 ****         2.2500 -25.0000 -14.0000 Du        
  31484 ****         2.2500 -25.0000 -13.7500 Du        
  31485 ****         2.2500 -25.0000 -13.5000 Du        
  31486 ****         2.2500 -24.7500 -15.0000 Du        
  31487 ****         2.2500 -24.7500 -14.7500 Du        
  31488 ****         2.2500 -24.7500 -14.5000 Du        
  31489 ****         2.2500 -24.7500 -14.2500 Du        
  31490 ****         2.2500 -24.7500 -14.0000 Du        
  31491 ****         2.2500 -24.7500 -13.7500 Du        
  31492 ****         2.2500 -24.5000 -15.0000 Du        
  31493 ****         2.2500 -24.5000 -14.7500 Du        
  31494 ****         2.2500 -24.5000 -14.5000 Du        
  31495 ****         2.2500 -24.5000 -14.2500 Du        
  31496 ****         2.2500 -24.5000 -14.0000 Du        
  31497 ****         2.2500 -24.2500 -15.2500 Du        
  31498 ****         2.2500 -24.2500 -15.0000 Du        
  31499 ****         2.2500 -24.2500 -14.7500 Du        
  31500 ****         2.2500 -24.2500 -14.5000 Du        
  31501 ****         2.2500 -24.2500 -14.2500 Du        
  31502 ****         2.2500 -24.0000 -15.5000 Du        
  31503 ****         2.2500 -24.0000 -15.2500 Du        
  31504 ****         2.2500 -24.0000 -15.0000 Du        
  31505 ****         2.2500 -24.0000 -14.7500 Du        
  31506 ****         2.2500 -24.0000 -14.5000 Du        
  31507 ****         2.2500 -23.7500 -15.7500 Du        
  31508 ****         2.2500 -23.7500 -15.5000 Du        
  31509 ****         2.2500 -23.7500 -15.2500 Du        
  31510 ****         2.2500 -23.7500 -15.0000 Du        
  31511 ****         2.2500 -23.7500 -14.7500 Du        
  31512 ****         2.2500 -23.5000 -16.0000 Du        
  31513 ****         2.2500 -23.5000 -15.7500 Du        
  31514 ****         2.2500 -23.5000 -15.5000 Du        
  31515 ****         2.2500 -23.5000 -15.2500 Du        
  31516 ****         2.2500 -23.5000 -15.0000 Du        
  31517 ****         2.2500 -23.2500 -16.2500 Du        
  31518 ****         2.2500 -23.2500 -16.0000 Du        
  31519 ****         2.2500 -23.2500 -15.7500 Du        
  31520 ****         2.2500 -23.2500 -15.5000 Du        
  31521 ****         2.2500 -23.2500 -15.2500 Du        
  31522 ****         2.2500 -23.2500 -15.0000 Du        
  31523 ****         2.2500 -23.0000 -16.5000 Du        
  31524 ****         2.2500 -23.0000 -16.2500 Du        
  31525 ****         2.2500 -23.0000 -16.0000 Du        
  31526 ****         2.2500 -23.0000 -15.7500 Du        
  31527 ****         2.2500 -23.0000 -15.5000 Du        
  31528 ****         2.2500 -23.0000 -15.2500 Du        
  31529 ****         2.2500 -23.0000 -15.0000 Du        
  31530 ****         2.2500 -22.7500 -16.7500 Du        
  31531 ****         2.2500 -22.7500 -16.5000 Du        
  31532 ****         2.2500 -22.7500 -16.2500 Du        
  31533 ****         2.2500 -22.7500 -16.0000 Du        
  31534 ****         2.2500 -22.7500 -15.7500 Du        
  31535 ****         2.2500 -22.7500 -15.2500 Du        
  31536 ****         2.2500 -22.7500 -15.0000 Du        
  31537 ****         2.2500 -22.5000 -16.7500 Du        
  31538 ****         2.2500 -22.5000 -16.5000 Du        
  31539 ****         2.2500 -22.5000 -16.2500 Du        
  31540 ****         2.2500 -22.5000 -16.0000 Du        
  31541 ****         2.2500 -22.2500 -17.0000 Du        
  31542 ****         2.2500 -22.2500 -16.7500 Du        
  31543 ****         2.2500 -22.2500 -16.5000 Du        
  31544 ****         2.2500 -22.2500 -16.2500 Du        
  31545 ****         2.2500 -22.2500 -16.0000 Du        
  31546 ****         2.2500 -22.0000 -17.0000 Du        
  31547 ****         2.2500 -22.0000 -16.7500 Du        
  31548 ****         2.2500 -22.0000 -16.5000 Du        
  31549 ****         2.2500 -22.0000 -16.2500 Du        
  31550 ****         2.2500 -22.0000 -16.0000 Du        
  31551 ****         2.2500 -21.7500 -17.0000 Du        
  31552 ****         2.2500 -21.7500 -16.7500 Du        
  31553 ****         2.2500 -21.7500 -16.5000 Du        
  31554 ****         2.2500 -21.7500 -16.2500 Du        
  31555 ****         2.2500 -21.7500 -16.0000 Du        
  31556 ****         2.2500 -19.7500 -29.0000 Du        
  31557 ****         2.2500 -19.7500 -28.7500 Du        
  31558 ****         2.2500 -19.7500 -15.0000 Du        
  31559 ****         2.2500 -19.7500 -14.7500 Du        
  31560 ****         2.2500 -19.7500 -14.5000 Du        
  31561 ****         2.2500 -19.5000 -29.0000 Du        
  31562 ****         2.2500 -19.5000 -28.7500 Du        
  31563 ****         2.2500 -19.5000 -28.5000 Du        
  31564 ****         2.2500 -19.5000 -28.2500 Du        
  31565 ****         2.2500 -19.5000 -15.0000 Du        
  31566 ****         2.2500 -19.5000 -14.7500 Du        
  31567 ****         2.2500 -19.5000 -14.5000 Du        
  31568 ****         2.2500 -19.5000 -14.2500 Du        
  31569 ****         2.2500 -19.2500 -29.2500 Du        
  31570 ****         2.2500 -19.2500 -29.0000 Du        
  31571 ****         2.2500 -19.2500 -28.7500 Du        
  31572 ****         2.2500 -19.2500 -28.5000 Du        
  31573 ****         2.2500 -19.2500 -28.2500 Du        
  31574 ****         2.2500 -19.2500 -28.0000 Du        
  31575 ****         2.2500 -19.2500 -15.2500 Du        
  31576 ****         2.2500 -19.2500 -15.0000 Du        
  31577 ****         2.2500 -19.2500 -14.7500 Du        
  31578 ****         2.2500 -19.2500 -14.5000 Du        
  31579 ****         2.2500 -19.2500 -14.2500 Du        
  31580 ****         2.2500 -19.2500 -14.0000 Du        
  31581 ****         2.2500 -19.0000 -29.2500 Du        
  31582 ****         2.2500 -19.0000 -29.0000 Du        
  31583 ****         2.2500 -19.0000 -28.7500 Du        
  31584 ****         2.2500 -19.0000 -28.5000 Du        
  31585 ****         2.2500 -19.0000 -28.2500 Du        
  31586 ****         2.2500 -19.0000 -28.0000 Du        
  31587 ****         2.2500 -19.0000 -27.7500 Du        
  31588 ****         2.2500 -19.0000 -15.0000 Du        
  31589 ****         2.2500 -19.0000 -14.7500 Du        
  31590 ****         2.2500 -19.0000 -14.5000 Du        
  31591 ****         2.2500 -19.0000 -14.2500 Du        
  31592 ****         2.2500 -19.0000 -14.0000 Du        
  31593 ****         2.2500 -18.7500 -29.2500 Du        
  31594 ****         2.2500 -18.7500 -29.0000 Du        
  31595 ****         2.2500 -18.7500 -28.7500 Du        
  31596 ****         2.2500 -18.7500 -28.5000 Du        
  31597 ****         2.2500 -18.7500 -28.2500 Du        
  31598 ****         2.2500 -18.7500 -28.0000 Du        
  31599 ****         2.2500 -18.7500 -27.7500 Du        
  31600 ****         2.2500 -18.7500 -27.5000 Du        
  31601 ****         2.2500 -18.7500 -19.0000 Du        
  31602 ****         2.2500 -18.7500 -18.7500 Du        
  31603 ****         2.2500 -18.5000 -29.0000 Du        
  31604 ****         2.2500 -18.5000 -28.7500 Du        
  31605 ****         2.2500 -18.5000 -28.5000 Du        
  31606 ****         2.2500 -18.5000 -28.2500 Du        
  31607 ****         2.2500 -18.5000 -28.0000 Du        
  31608 ****         2.2500 -18.5000 -27.7500 Du        
  31609 ****         2.2500 -18.2500 -29.0000 Du        
  31610 ****         2.2500 -18.2500 -28.7500 Du        
  31611 ****         2.2500 -18.2500 -28.5000 Du        
  31612 ****         2.2500 -18.2500 -28.2500 Du        
  31613 ****         2.2500 -18.2500 -28.0000 Du        
  31614 ****         2.2500 -18.2500 -27.7500 Du        
  31615 ****         2.2500 -18.0000 -29.0000 Du        
  31616 ****         2.2500 -18.0000 -28.7500 Du        
  31617 ****         2.2500 -18.0000 -28.5000 Du        
  31618 ****         2.2500 -18.0000 -28.2500 Du        
  31619 ****         2.2500 -18.0000 -28.0000 Du        
  31620 ****         2.2500 -17.7500 -29.0000 Du        
  31621 ****         2.2500 -17.7500 -28.7500 Du        
  31622 ****         2.2500 -17.7500 -28.5000 Du        
  31623 ****         2.2500 -17.7500 -28.2500 Du        
  31624 ****         2.2500 -17.5000 -29.0000 Du        
  31625 ****         2.2500 -17.5000 -28.7500 Du        
  31626 ****         2.2500 -17.5000 -28.5000 Du        
  31627 ****         2.2500 -17.2500 -29.0000 Du        
  31628 ****         2.2500 -17.2500 -28.7500 Du        
  31629 ****         2.2500 -17.0000 -28.7500 Du        
  31630 ****         2.5000 -26.0000 -14.2500 Du        
  31631 ****         2.5000 -26.0000 -14.0000 Du        
  31632 ****         2.5000 -25.7500 -14.2500 Du        
  31633 ****         2.5000 -25.7500 -14.0000 Du        
  31634 ****         2.5000 -25.7500 -13.7500 Du        
  31635 ****         2.5000 -25.5000 -14.5000 Du        
  31636 ****         2.5000 -25.5000 -14.2500 Du        
  31637 ****         2.5000 -25.5000 -14.0000 Du        
  31638 ****         2.5000 -25.5000 -13.7500 Du        
  31639 ****         2.5000 -25.5000 -13.5000 Du        
  31640 ****         2.5000 -25.2500 -14.5000 Du        
  31641 ****         2.5000 -25.2500 -14.2500 Du        
  31642 ****         2.5000 -25.2500 -14.0000 Du        
  31643 ****         2.5000 -25.2500 -13.7500 Du        
  31644 ****         2.5000 -25.2500 -13.5000 Du        
  31645 ****         2.5000 -25.0000 -14.7500 Du        
  31646 ****         2.5000 -25.0000 -14.5000 Du        
  31647 ****         2.5000 -25.0000 -14.2500 Du        
  31648 ****         2.5000 -25.0000 -14.0000 Du        
  31649 ****         2.5000 -25.0000 -13.7500 Du        
  31650 ****         2.5000 -25.0000 -13.5000 Du        
  31651 ****         2.5000 -24.7500 -15.0000 Du        
  31652 ****         2.5000 -24.7500 -14.7500 Du        
  31653 ****         2.5000 -24.7500 -14.5000 Du        
  31654 ****         2.5000 -24.7500 -14.2500 Du        
  31655 ****         2.5000 -24.7500 -14.0000 Du        
  31656 ****         2.5000 -24.7500 -13.7500 Du        
  31657 ****         2.5000 -24.5000 -15.2500 Du        
  31658 ****         2.5000 -24.5000 -15.0000 Du        
  31659 ****         2.5000 -24.5000 -14.7500 Du        
  31660 ****         2.5000 -24.5000 -14.5000 Du        
  31661 ****         2.5000 -24.5000 -14.2500 Du        
  31662 ****         2.5000 -24.5000 -14.0000 Du        
  31663 ****         2.5000 -24.2500 -15.2500 Du        
  31664 ****         2.5000 -24.2500 -15.0000 Du        
  31665 ****         2.5000 -24.2500 -14.7500 Du        
  31666 ****         2.5000 -24.2500 -14.5000 Du        
  31667 ****         2.5000 -24.2500 -14.2500 Du        
  31668 ****         2.5000 -24.0000 -15.5000 Du        
  31669 ****         2.5000 -24.0000 -15.2500 Du        
  31670 ****         2.5000 -24.0000 -15.0000 Du        
  31671 ****         2.5000 -24.0000 -14.7500 Du        
  31672 ****         2.5000 -23.7500 -15.7500 Du        
  31673 ****         2.5000 -23.7500 -15.5000 Du        
  31674 ****         2.5000 -23.7500 -15.2500 Du        
  31675 ****         2.5000 -23.7500 -15.0000 Du        
  31676 ****         2.5000 -23.7500 -14.7500 Du        
  31677 ****         2.5000 -23.5000 -16.0000 Du        
  31678 ****         2.5000 -23.5000 -15.7500 Du        
  31679 ****         2.5000 -23.5000 -15.5000 Du        
  31680 ****         2.5000 -23.5000 -15.2500 Du        
  31681 ****         2.5000 -23.5000 -15.0000 Du        
  31682 ****         2.5000 -23.2500 -16.0000 Du        
  31683 ****         2.5000 -23.2500 -15.7500 Du        
  31684 ****         2.5000 -23.2500 -15.5000 Du        
  31685 ****         2.5000 -23.2500 -15.2500 Du        
  31686 ****         2.5000 -23.2500 -15.0000 Du        
  31687 ****         2.5000 -23.0000 -16.2500 Du        
  31688 ****         2.5000 -23.0000 -16.0000 Du        
  31689 ****         2.5000 -23.0000 -15.7500 Du        
  31690 ****         2.5000 -23.0000 -15.2500 Du        
  31691 ****         2.5000 -22.7500 -16.2500 Du        
  31692 ****         2.5000 -22.7500 -16.0000 Du        
  31693 ****         2.5000 -22.7500 -15.7500 Du        
  31694 ****         2.5000 -22.5000 -16.0000 Du        
  31695 ****         2.5000 -22.5000 -15.7500 Du        
  31696 ****         2.5000 -22.2500 -15.7500 Du        
  31697 ****         2.5000 -19.7500 -14.5000 Du        
  31698 ****         2.5000 -19.5000 -28.7500 Du        
  31699 ****         2.5000 -19.5000 -15.0000 Du        
  31700 ****         2.5000 -19.5000 -14.7500 Du        
  31701 ****         2.5000 -19.5000 -14.5000 Du        
  31702 ****         2.5000 -19.5000 -14.2500 Du        
  31703 ****         2.5000 -19.2500 -29.0000 Du        
  31704 ****         2.5000 -19.2500 -28.7500 Du        
  31705 ****         2.5000 -19.2500 -28.5000 Du        
  31706 ****         2.5000 -19.2500 -28.2500 Du        
  31707 ****         2.5000 -19.2500 -15.2500 Du        
  31708 ****         2.5000 -19.2500 -15.0000 Du        
  31709 ****         2.5000 -19.2500 -14.7500 Du        
  31710 ****         2.5000 -19.2500 -14.5000 Du        
  31711 ****         2.5000 -19.2500 -14.2500 Du        
  31712 ****         2.5000 -19.0000 -29.0000 Du        
  31713 ****         2.5000 -19.0000 -28.7500 Du        
  31714 ****         2.5000 -19.0000 -28.5000 Du        
  31715 ****         2.5000 -19.0000 -28.2500 Du        
  31716 ****         2.5000 -19.0000 -28.0000 Du        
  31717 ****         2.5000 -18.7500 -29.0000 Du        
  31718 ****         2.5000 -18.7500 -28.7500 Du        
  31719 ****         2.5000 -18.7500 -28.5000 Du        
  31720 ****         2.5000 -18.7500 -28.2500 Du        
  31721 ****         2.5000 -18.7500 -28.0000 Du        
  31722 ****         2.5000 -18.7500 -27.7500 Du        
  31723 ****         2.5000 -18.5000 -29.0000 Du        
  31724 ****         2.5000 -18.5000 -28.7500 Du        
  31725 ****         2.5000 -18.5000 -28.5000 Du        
  31726 ****         2.5000 -18.5000 -28.2500 Du        
  31727 ****         2.5000 -18.5000 -28.0000 Du        
  31728 ****         2.5000 -18.5000 -27.7500 Du        
  31729 ****         2.5000 -18.2500 -29.0000 Du        
  31730 ****         2.5000 -18.2500 -28.7500 Du        
  31731 ****         2.5000 -18.2500 -28.5000 Du        
  31732 ****         2.5000 -18.2500 -28.2500 Du        
  31733 ****         2.5000 -18.2500 -28.0000 Du        
  31734 ****         2.5000 -18.2500 -19.2500 Du        
  31735 ****         2.5000 -18.2500 -19.0000 Du        
  31736 ****         2.5000 -18.0000 -29.0000 Du        
  31737 ****         2.5000 -18.0000 -28.7500 Du        
  31738 ****         2.5000 -18.0000 -28.5000 Du        
  31739 ****         2.5000 -18.0000 -28.2500 Du        
  31740 ****         2.5000 -18.0000 -28.0000 Du        
  31741 ****         2.5000 -18.0000 -19.0000 Du        
  31742 ****         2.5000 -17.7500 -28.7500 Du        
  31743 ****         2.5000 -17.7500 -28.5000 Du        
  31744 ****         2.5000 -17.7500 -28.2500 Du        
  31745 ****         2.5000 -17.5000 -28.7500 Du        
  31746 ****         2.5000 -17.5000 -28.5000 Du        
  31747 ****         2.5000 -17.2500 -28.7500 Du        
  31748 ****         2.7500 -26.0000 -14.0000 Du        
  31749 ****         2.7500 -26.0000 -13.7500 Du        
  31750 ****         2.7500 -25.7500 -14.2500 Du        
  31751 ****         2.7500 -25.7500 -14.0000 Du        
  31752 ****         2.7500 -25.7500 -13.7500 Du        
  31753 ****         2.7500 -25.5000 -14.5000 Du        
  31754 ****         2.7500 -25.5000 -14.2500 Du        
  31755 ****         2.7500 -25.5000 -14.0000 Du        
  31756 ****         2.7500 -25.5000 -13.7500 Du        
  31757 ****         2.7500 -25.5000 -13.5000 Du        
  31758 ****         2.7500 -25.2500 -14.5000 Du        
  31759 ****         2.7500 -25.2500 -14.2500 Du        
  31760 ****         2.7500 -25.2500 -14.0000 Du        
  31761 ****         2.7500 -25.2500 -13.7500 Du        
  31762 ****         2.7500 -25.2500 -13.5000 Du        
  31763 ****         2.7500 -25.0000 -14.7500 Du        
  31764 ****         2.7500 -25.0000 -14.5000 Du        
  31765 ****         2.7500 -25.0000 -14.2500 Du        
  31766 ****         2.7500 -25.0000 -14.0000 Du        
  31767 ****         2.7500 -25.0000 -13.7500 Du        
  31768 ****         2.7500 -25.0000 -13.5000 Du        
  31769 ****         2.7500 -24.7500 -15.0000 Du        
  31770 ****         2.7500 -24.7500 -14.7500 Du        
  31771 ****         2.7500 -24.7500 -14.5000 Du        
  31772 ****         2.7500 -24.7500 -14.2500 Du        
  31773 ****         2.7500 -24.7500 -14.0000 Du        
  31774 ****         2.7500 -24.7500 -13.7500 Du        
  31775 ****         2.7500 -24.5000 -15.2500 Du        
  31776 ****         2.7500 -24.5000 -15.0000 Du        
  31777 ****         2.7500 -24.5000 -14.7500 Du        
  31778 ****         2.7500 -24.5000 -14.5000 Du        
  31779 ****         2.7500 -24.5000 -14.2500 Du        
  31780 ****         2.7500 -24.5000 -14.0000 Du        
  31781 ****         2.7500 -24.2500 -15.2500 Du        
  31782 ****         2.7500 -24.2500 -15.0000 Du        
  31783 ****         2.7500 -24.2500 -14.7500 Du        
  31784 ****         2.7500 -24.2500 -14.5000 Du        
  31785 ****         2.7500 -24.2500 -14.2500 Du        
  31786 ****         2.7500 -24.0000 -15.7500 Du        
  31787 ****         2.7500 -24.0000 -15.5000 Du        
  31788 ****         2.7500 -24.0000 -15.2500 Du        
  31789 ****         2.7500 -24.0000 -15.0000 Du        
  31790 ****         2.7500 -24.0000 -14.7500 Du        
  31791 ****         2.7500 -24.0000 -14.5000 Du        
  31792 ****         2.7500 -24.0000 -14.2500 Du        
  31793 ****         2.7500 -23.7500 -15.7500 Du        
  31794 ****         2.7500 -23.7500 -15.5000 Du        
  31795 ****         2.7500 -23.7500 -15.2500 Du        
  31796 ****         2.7500 -23.7500 -15.0000 Du        
  31797 ****         2.7500 -23.7500 -14.7500 Du        
  31798 ****         2.7500 -23.5000 -15.7500 Du        
  31799 ****         2.7500 -23.5000 -15.5000 Du        
  31800 ****         2.7500 -23.5000 -15.2500 Du        
  31801 ****         2.7500 -23.5000 -15.0000 Du        
  31802 ****         2.7500 -23.2500 -15.7500 Du        
  31803 ****         2.7500 -23.2500 -15.5000 Du        
  31804 ****         2.7500 -23.2500 -15.2500 Du        
  31805 ****         2.7500 -23.2500 -15.0000 Du        
  31806 ****         2.7500 -23.0000 -15.7500 Du        
  31807 ****         2.7500 -23.0000 -15.2500 Du        
  31808 ****         2.7500 -23.0000 -15.0000 Du        
  31809 ****         2.7500 -19.7500 -14.5000 Du        
  31810 ****         2.7500 -19.5000 -15.0000 Du        
  31811 ****         2.7500 -19.5000 -14.7500 Du        
  31812 ****         2.7500 -19.5000 -14.5000 Du        
  31813 ****         2.7500 -19.5000 -14.2500 Du        
  31814 ****         2.7500 -19.2500 -28.7500 Du        
  31815 ****         2.7500 -19.2500 -28.5000 Du        
  31816 ****         2.7500 -19.2500 -15.0000 Du        
  31817 ****         2.7500 -19.2500 -14.7500 Du        
  31818 ****         2.7500 -19.2500 -14.5000 Du        
  31819 ****         2.7500 -19.2500 -14.2500 Du        
  31820 ****         2.7500 -19.0000 -29.0000 Du        
  31821 ****         2.7500 -19.0000 -28.7500 Du        
  31822 ****         2.7500 -19.0000 -28.5000 Du        
  31823 ****         2.7500 -19.0000 -28.2500 Du        
  31824 ****         2.7500 -18.7500 -29.0000 Du        
  31825 ****         2.7500 -18.7500 -28.7500 Du        
  31826 ****         2.7500 -18.7500 -28.5000 Du        
  31827 ****         2.7500 -18.7500 -28.2500 Du        
  31828 ****         2.7500 -18.7500 -28.0000 Du        
  31829 ****         2.7500 -18.5000 -29.0000 Du        
  31830 ****         2.7500 -18.5000 -28.7500 Du        
  31831 ****         2.7500 -18.5000 -28.5000 Du        
  31832 ****         2.7500 -18.5000 -28.2500 Du        
  31833 ****         2.7500 -18.5000 -28.0000 Du        
  31834 ****         2.7500 -18.2500 -29.0000 Du        
  31835 ****         2.7500 -18.2500 -28.7500 Du        
  31836 ****         2.7500 -18.2500 -28.5000 Du        
  31837 ****         2.7500 -18.2500 -28.2500 Du        
  31838 ****         2.7500 -18.2500 -28.0000 Du        
  31839 ****         2.7500 -18.2500 -19.2500 Du        
  31840 ****         2.7500 -18.2500 -19.0000 Du        
  31841 ****         2.7500 -18.2500 -18.7500 Du        
  31842 ****         2.7500 -18.0000 -28.7500 Du        
  31843 ****         2.7500 -18.0000 -28.5000 Du        
  31844 ****         2.7500 -18.0000 -28.2500 Du        
  31845 ****         2.7500 -18.0000 -19.2500 Du        
  31846 ****         2.7500 -18.0000 -19.0000 Du        
  31847 ****         2.7500 -17.7500 -28.7500 Du        
  31848 ****         2.7500 -17.7500 -28.5000 Du        
  31849 ****         2.7500 -17.7500 -28.2500 Du        
  31850 ****         2.7500 -17.5000 -28.7500 Du        
  31851 ****         2.7500 -17.5000 -28.5000 Du        
  31852 ****         3.0000 -26.0000 -14.0000 Du        
  31853 ****         3.0000 -26.0000 -13.7500 Du        
  31854 ****         3.0000 -25.7500 -14.2500 Du        
  31855 ****         3.0000 -25.7500 -14.0000 Du        
  31856 ****         3.0000 -25.7500 -13.7500 Du        
  31857 ****         3.0000 -25.7500 -13.5000 Du        
  31858 ****         3.0000 -25.5000 -14.5000 Du        
  31859 ****         3.0000 -25.5000 -14.2500 Du        
  31860 ****         3.0000 -25.5000 -14.0000 Du        
  31861 ****         3.0000 -25.5000 -13.7500 Du        
  31862 ****         3.0000 -25.5000 -13.5000 Du        
  31863 ****         3.0000 -25.2500 -14.5000 Du        
  31864 ****         3.0000 -25.2500 -14.2500 Du        
  31865 ****         3.0000 -25.2500 -14.0000 Du        
  31866 ****         3.0000 -25.2500 -13.7500 Du        
  31867 ****         3.0000 -25.2500 -13.5000 Du        
  31868 ****         3.0000 -25.2500 -13.2500 Du        
  31869 ****         3.0000 -25.0000 -14.7500 Du        
  31870 ****         3.0000 -25.0000 -14.5000 Du        
  31871 ****         3.0000 -25.0000 -14.2500 Du        
  31872 ****         3.0000 -25.0000 -14.0000 Du        
  31873 ****         3.0000 -25.0000 -13.7500 Du        
  31874 ****         3.0000 -25.0000 -13.5000 Du        
  31875 ****         3.0000 -24.7500 -15.0000 Du        
  31876 ****         3.0000 -24.7500 -14.7500 Du        
  31877 ****         3.0000 -24.7500 -14.5000 Du        
  31878 ****         3.0000 -24.7500 -14.2500 Du        
  31879 ****         3.0000 -24.7500 -14.0000 Du        
  31880 ****         3.0000 -24.7500 -13.7500 Du        
  31881 ****         3.0000 -24.7500 -13.5000 Du        
  31882 ****         3.0000 -24.5000 -15.2500 Du        
  31883 ****         3.0000 -24.5000 -15.0000 Du        
  31884 ****         3.0000 -24.5000 -14.7500 Du        
  31885 ****         3.0000 -24.5000 -14.5000 Du        
  31886 ****         3.0000 -24.5000 -14.2500 Du        
  31887 ****         3.0000 -24.5000 -14.0000 Du        
  31888 ****         3.0000 -24.5000 -13.7500 Du        
  31889 ****         3.0000 -24.2500 -15.5000 Du        
  31890 ****         3.0000 -24.2500 -15.2500 Du        
  31891 ****         3.0000 -24.2500 -15.0000 Du        
  31892 ****         3.0000 -24.2500 -14.7500 Du        
  31893 ****         3.0000 -24.2500 -14.5000 Du        
  31894 ****         3.0000 -24.2500 -14.2500 Du        
  31895 ****         3.0000 -24.2500 -14.0000 Du        
  31896 ****         3.0000 -24.0000 -15.7500 Du        
  31897 ****         3.0000 -24.0000 -15.5000 Du        
  31898 ****         3.0000 -24.0000 -15.2500 Du        
  31899 ****         3.0000 -24.0000 -15.0000 Du        
  31900 ****         3.0000 -24.0000 -14.7500 Du        
  31901 ****         3.0000 -24.0000 -14.5000 Du        
  31902 ****         3.0000 -24.0000 -14.2500 Du        
  31903 ****         3.0000 -23.7500 -15.7500 Du        
  31904 ****         3.0000 -23.7500 -15.5000 Du        
  31905 ****         3.0000 -23.7500 -15.2500 Du        
  31906 ****         3.0000 -23.7500 -15.0000 Du        
  31907 ****         3.0000 -23.7500 -14.7500 Du        
  31908 ****         3.0000 -23.7500 -14.5000 Du        
  31909 ****         3.0000 -23.5000 -15.2500 Du        
  31910 ****         3.0000 -23.5000 -15.0000 Du        
  31911 ****         3.0000 -23.5000 -14.7500 Du        
  31912 ****         3.0000 -23.2500 -15.2500 Du        
  31913 ****         3.0000 -23.2500 -15.0000 Du        
  31914 ****         3.0000 -23.0000 -15.0000 Du        
  31915 ****         3.0000 -19.5000 -15.0000 Du        
  31916 ****         3.0000 -19.5000 -14.7500 Du        
  31917 ****         3.0000 -19.5000 -14.5000 Du        
  31918 ****         3.0000 -19.2500 -14.7500 Du        
  31919 ****         3.0000 -19.0000 -28.7500 Du        
  31920 ****         3.0000 -19.0000 -28.5000 Du        
  31921 ****         3.0000 -19.0000 -28.2500 Du        
  31922 ****         3.0000 -18.7500 -28.7500 Du        
  31923 ****         3.0000 -18.7500 -28.5000 Du        
  31924 ****         3.0000 -18.7500 -28.2500 Du        
  31925 ****         3.0000 -18.5000 -28.7500 Du        
  31926 ****         3.0000 -18.5000 -28.5000 Du        
  31927 ****         3.0000 -18.5000 -28.2500 Du        
  31928 ****         3.0000 -18.2500 -28.7500 Du        
  31929 ****         3.0000 -18.2500 -28.5000 Du        
  31930 ****         3.0000 -18.2500 -28.2500 Du        
  31931 ****         3.0000 -18.2500 -19.5000 Du        
  31932 ****         3.0000 -18.2500 -19.2500 Du        
  31933 ****         3.0000 -18.2500 -19.0000 Du        
  31934 ****         3.0000 -18.2500 -18.7500 Du        
  31935 ****         3.0000 -18.0000 -28.7500 Du        
  31936 ****         3.0000 -18.0000 -28.5000 Du        
  31937 ****         3.0000 -18.0000 -28.2500 Du        
  31938 ****         3.0000 -18.0000 -19.7500 Du        
  31939 ****         3.0000 -18.0000 -19.5000 Du        
  31940 ****         3.0000 -18.0000 -19.2500 Du        
  31941 ****         3.0000 -18.0000 -19.0000 Du        
  31942 ****         3.0000 -18.0000 -18.7500 Du        
  31943 ****         3.0000 -17.7500 -28.7500 Du        
  31944 ****         3.0000 -17.7500 -28.5000 Du        
  31945 ****         3.0000 -17.7500 -28.2500 Du        
  31946 ****         3.0000 -17.7500 -19.5000 Du        
  31947 ****         3.0000 -17.7500 -19.2500 Du        
  31948 ****         3.0000 -17.7500 -19.0000 Du        
  31949 ****         3.0000 -17.5000 -28.5000 Du        
  31950 ****         3.0000 -12.2500 -18.0000 Du        
  31951 ****         3.0000 -12.0000 -18.0000 Du        
  31952 ****         3.0000 -12.0000 -17.7500 Du        
  31953 ****         3.0000 -12.0000 -17.5000 Du        
  31954 ****         3.2500 -26.0000 -14.0000 Du        
  31955 ****         3.2500 -26.0000 -13.7500 Du        
  31956 ****         3.2500 -25.7500 -14.2500 Du        
  31957 ****         3.2500 -25.7500 -14.0000 Du        
  31958 ****         3.2500 -25.7500 -13.7500 Du        
  31959 ****         3.2500 -25.5000 -14.5000 Du        
  31960 ****         3.2500 -25.5000 -14.2500 Du        
  31961 ****         3.2500 -25.5000 -14.0000 Du        
  31962 ****         3.2500 -25.5000 -13.7500 Du        
  31963 ****         3.2500 -25.5000 -13.5000 Du        
  31964 ****         3.2500 -25.2500 -14.5000 Du        
  31965 ****         3.2500 -25.2500 -14.2500 Du        
  31966 ****         3.2500 -25.2500 -14.0000 Du        
  31967 ****         3.2500 -25.2500 -13.7500 Du        
  31968 ****         3.2500 -25.2500 -13.5000 Du        
  31969 ****         3.2500 -25.2500 -13.2500 Du        
  31970 ****         3.2500 -25.0000 -14.7500 Du        
  31971 ****         3.2500 -25.0000 -14.5000 Du        
  31972 ****         3.2500 -25.0000 -14.2500 Du        
  31973 ****         3.2500 -25.0000 -14.0000 Du        
  31974 ****         3.2500 -25.0000 -13.7500 Du        
  31975 ****         3.2500 -25.0000 -13.5000 Du        
  31976 ****         3.2500 -25.0000 -13.2500 Du        
  31977 ****         3.2500 -24.7500 -15.0000 Du        
  31978 ****         3.2500 -24.7500 -14.7500 Du        
  31979 ****         3.2500 -24.7500 -14.5000 Du        
  31980 ****         3.2500 -24.7500 -14.2500 Du        
  31981 ****         3.2500 -24.7500 -14.0000 Du        
  31982 ****         3.2500 -24.7500 -13.7500 Du        
  31983 ****         3.2500 -24.7500 -13.5000 Du        
  31984 ****         3.2500 -24.5000 -15.2500 Du        
  31985 ****         3.2500 -24.5000 -15.0000 Du        
  31986 ****         3.2500 -24.5000 -14.7500 Du        
  31987 ****         3.2500 -24.5000 -14.5000 Du        
  31988 ****         3.2500 -24.5000 -14.2500 Du        
  31989 ****         3.2500 -24.5000 -14.0000 Du        
  31990 ****         3.2500 -24.5000 -13.7500 Du        
  31991 ****         3.2500 -24.2500 -15.5000 Du        
  31992 ****         3.2500 -24.2500 -15.2500 Du        
  31993 ****         3.2500 -24.2500 -15.0000 Du        
  31994 ****         3.2500 -24.2500 -14.7500 Du        
  31995 ****         3.2500 -24.2500 -14.5000 Du        
  31996 ****         3.2500 -24.2500 -14.2500 Du        
  31997 ****         3.2500 -24.2500 -14.0000 Du        
  31998 ****         3.2500 -24.0000 -15.5000 Du        
  31999 ****         3.2500 -24.0000 -15.2500 Du        
  32000 ****         3.2500 -24.0000 -15.0000 Du        
  32001 ****         3.2500 -24.0000 -14.7500 Du        
  32002 ****         3.2500 -24.0000 -14.5000 Du        
  32003 ****         3.2500 -24.0000 -14.2500 Du        
  32004 ****         3.2500 -24.0000 -14.0000 Du        
  32005 ****         3.2500 -23.7500 -15.5000 Du        
  32006 ****         3.2500 -23.7500 -15.2500 Du        
  32007 ****         3.2500 -23.7500 -15.0000 Du        
  32008 ****         3.2500 -23.7500 -14.7500 Du        
  32009 ****         3.2500 -23.7500 -14.5000 Du        
  32010 ****         3.2500 -23.7500 -14.2500 Du        
  32011 ****         3.2500 -23.5000 -15.0000 Du        
  32012 ****         3.2500 -23.5000 -14.7500 Du        
  32013 ****         3.2500 -23.0000 -15.0000 Du        
  32014 ****         3.2500 -19.7500 -15.0000 Du        
  32015 ****         3.2500 -19.5000 -15.0000 Du        
  32016 ****         3.2500 -19.5000 -14.7500 Du        
  32017 ****         3.2500 -18.7500 -28.7500 Du        
  32018 ****         3.2500 -18.7500 -28.5000 Du        
  32019 ****         3.2500 -18.7500 -28.2500 Du        
  32020 ****         3.2500 -18.5000 -28.7500 Du        
  32021 ****         3.2500 -18.5000 -28.5000 Du        
  32022 ****         3.2500 -18.5000 -28.2500 Du        
  32023 ****         3.2500 -18.2500 -28.7500 Du        
  32024 ****         3.2500 -18.2500 -28.5000 Du        
  32025 ****         3.2500 -18.2500 -28.2500 Du        
  32026 ****         3.2500 -18.2500 -19.7500 Du        
  32027 ****         3.2500 -18.0000 -28.7500 Du        
  32028 ****         3.2500 -18.0000 -28.5000 Du        
  32029 ****         3.2500 -18.0000 -28.2500 Du        
  32030 ****         3.2500 -18.0000 -20.0000 Du        
  32031 ****         3.2500 -18.0000 -19.7500 Du        
  32032 ****         3.2500 -18.0000 -19.5000 Du        
  32033 ****         3.2500 -18.0000 -19.2500 Du        
  32034 ****         3.2500 -18.0000 -19.0000 Du        
  32035 ****         3.2500 -18.0000 -18.7500 Du        
  32036 ****         3.2500 -17.7500 -28.7500 Du        
  32037 ****         3.2500 -17.7500 -28.5000 Du        
  32038 ****         3.2500 -17.7500 -20.0000 Du        
  32039 ****         3.2500 -17.7500 -19.7500 Du        
  32040 ****         3.2500 -17.7500 -19.5000 Du        
  32041 ****         3.2500 -17.7500 -19.2500 Du        
  32042 ****         3.2500 -17.7500 -19.0000 Du        
  32043 ****         3.2500 -17.5000 -19.7500 Du        
  32044 ****         3.2500 -17.5000 -19.5000 Du        
  32045 ****         3.2500 -17.5000 -19.2500 Du        
  32046 ****         3.2500 -17.5000 -19.0000 Du        
  32047 ****         3.2500 -17.2500 -19.7500 Du        
  32048 ****         3.2500 -17.2500 -19.5000 Du        
  32049 ****         3.2500 -17.2500 -19.2500 Du        
  32050 ****         3.2500 -17.2500 -19.0000 Du        
  32051 ****         3.2500 -17.0000 -20.0000 Du        
  32052 ****         3.2500 -17.0000 -19.7500 Du        
  32053 ****         3.2500 -16.7500 -19.7500 Du        
  32054 ****         3.2500 -12.2500 -18.0000 Du        
  32055 ****         3.2500 -12.0000 -18.0000 Du        
  32056 ****         3.2500 -11.0000 -30.2500 Du        
  32057 ****         3.2500 -10.7500 -30.0000 Du        
  32058 ****         3.2500  -9.0000 -32.0000 Du        
  32059 ****         3.5000 -26.0000 -14.0000 Du        
  32060 ****         3.5000 -25.7500 -14.2500 Du        
  32061 ****         3.5000 -25.7500 -14.0000 Du        
  32062 ****         3.5000 -25.7500 -13.7500 Du        
  32063 ****         3.5000 -25.5000 -14.5000 Du        
  32064 ****         3.5000 -25.5000 -14.2500 Du        
  32065 ****         3.5000 -25.5000 -14.0000 Du        
  32066 ****         3.5000 -25.5000 -13.7500 Du        
  32067 ****         3.5000 -25.5000 -13.5000 Du        
  32068 ****         3.5000 -25.2500 -14.7500 Du        
  32069 ****         3.5000 -25.2500 -14.5000 Du        
  32070 ****         3.5000 -25.2500 -14.2500 Du        
  32071 ****         3.5000 -25.2500 -14.0000 Du        
  32072 ****         3.5000 -25.2500 -13.7500 Du        
  32073 ****         3.5000 -25.2500 -13.5000 Du        
  32074 ****         3.5000 -25.2500 -13.2500 Du        
  32075 ****         3.5000 -25.0000 -14.7500 Du        
  32076 ****         3.5000 -25.0000 -14.5000 Du        
  32077 ****         3.5000 -25.0000 -14.2500 Du        
  32078 ****         3.5000 -25.0000 -14.0000 Du        
  32079 ****         3.5000 -25.0000 -13.7500 Du        
  32080 ****         3.5000 -25.0000 -13.5000 Du        
  32081 ****         3.5000 -25.0000 -13.2500 Du        
  32082 ****         3.5000 -24.7500 -15.0000 Du        
  32083 ****         3.5000 -24.7500 -14.7500 Du        
  32084 ****         3.5000 -24.7500 -14.5000 Du        
  32085 ****         3.5000 -24.7500 -14.2500 Du        
  32086 ****         3.5000 -24.7500 -14.0000 Du        
  32087 ****         3.5000 -24.7500 -13.7500 Du        
  32088 ****         3.5000 -24.7500 -13.5000 Du        
  32089 ****         3.5000 -24.7500 -13.2500 Du        
  32090 ****         3.5000 -24.5000 -15.2500 Du        
  32091 ****         3.5000 -24.5000 -15.0000 Du        
  32092 ****         3.5000 -24.5000 -14.7500 Du        
  32093 ****         3.5000 -24.5000 -14.5000 Du        
  32094 ****         3.5000 -24.5000 -14.2500 Du        
  32095 ****         3.5000 -24.5000 -14.0000 Du        
  32096 ****         3.5000 -24.5000 -13.7500 Du        
  32097 ****         3.5000 -24.5000 -13.5000 Du        
  32098 ****         3.5000 -24.2500 -15.2500 Du        
  32099 ****         3.5000 -24.2500 -15.0000 Du        
  32100 ****         3.5000 -24.2500 -14.7500 Du        
  32101 ****         3.5000 -24.2500 -14.5000 Du        
  32102 ****         3.5000 -24.2500 -14.2500 Du        
  32103 ****         3.5000 -24.2500 -14.0000 Du        
  32104 ****         3.5000 -24.2500 -13.7500 Du        
  32105 ****         3.5000 -24.0000 -15.2500 Du        
  32106 ****         3.5000 -24.0000 -15.0000 Du        
  32107 ****         3.5000 -24.0000 -14.7500 Du        
  32108 ****         3.5000 -24.0000 -14.5000 Du        
  32109 ****         3.5000 -24.0000 -14.2500 Du        
  32110 ****         3.5000 -24.0000 -14.0000 Du        
  32111 ****         3.5000 -23.7500 -15.2500 Du        
  32112 ****         3.5000 -23.7500 -15.0000 Du        
  32113 ****         3.5000 -23.7500 -14.7500 Du        
  32114 ****         3.5000 -23.7500 -14.5000 Du        
  32115 ****         3.5000 -23.7500 -14.2500 Du        
  32116 ****         3.5000 -23.7500 -14.0000 Du        
  32117 ****         3.5000 -23.5000 -15.0000 Du        
  32118 ****         3.5000 -23.5000 -14.7500 Du        
  32119 ****         3.5000 -23.5000 -14.5000 Du        
  32120 ****         3.5000 -23.2500 -15.0000 Du        
  32121 ****         3.5000 -23.2500 -14.7500 Du        
  32122 ****         3.5000 -18.7500 -28.5000 Du        
  32123 ****         3.5000 -18.5000 -28.7500 Du        
  32124 ****         3.5000 -18.5000 -28.5000 Du        
  32125 ****         3.5000 -18.2500 -28.7500 Du        
  32126 ****         3.5000 -18.2500 -28.5000 Du        
  32127 ****         3.5000 -18.0000 -28.5000 Du        
  32128 ****         3.5000 -18.0000 -20.2500 Du        
  32129 ****         3.5000 -18.0000 -20.0000 Du        
  32130 ****         3.5000 -18.0000 -19.7500 Du        
  32131 ****         3.5000 -18.0000 -19.5000 Du        
  32132 ****         3.5000 -18.0000 -19.2500 Du        
  32133 ****         3.5000 -18.0000 -19.0000 Du        
  32134 ****         3.5000 -18.0000 -18.7500 Du        
  32135 ****         3.5000 -17.7500 -28.5000 Du        
  32136 ****         3.5000 -17.7500 -20.2500 Du        
  32137 ****         3.5000 -17.7500 -20.0000 Du        
  32138 ****         3.5000 -17.7500 -19.7500 Du        
  32139 ****         3.5000 -17.7500 -19.5000 Du        
  32140 ****         3.5000 -17.7500 -19.2500 Du        
  32141 ****         3.5000 -17.7500 -19.0000 Du        
  32142 ****         3.5000 -17.7500 -18.7500 Du        
  32143 ****         3.5000 -17.5000 -20.2500 Du        
  32144 ****         3.5000 -17.5000 -20.0000 Du        
  32145 ****         3.5000 -17.5000 -19.7500 Du        
  32146 ****         3.5000 -17.5000 -19.5000 Du        
  32147 ****         3.5000 -17.5000 -19.2500 Du        
  32148 ****         3.5000 -17.5000 -19.0000 Du        
  32149 ****         3.5000 -17.5000 -18.7500 Du        
  32150 ****         3.5000 -17.2500 -20.2500 Du        
  32151 ****         3.5000 -17.2500 -20.0000 Du        
  32152 ****         3.5000 -17.2500 -19.7500 Du        
  32153 ****         3.5000 -17.2500 -19.5000 Du        
  32154 ****         3.5000 -17.2500 -19.2500 Du        
  32155 ****         3.5000 -17.2500 -19.0000 Du        
  32156 ****         3.5000 -17.0000 -20.2500 Du        
  32157 ****         3.5000 -17.0000 -20.0000 Du        
  32158 ****         3.5000 -17.0000 -19.7500 Du        
  32159 ****         3.5000 -17.0000 -19.5000 Du        
  32160 ****         3.5000 -17.0000 -19.2500 Du        
  32161 ****         3.5000 -17.0000 -19.0000 Du        
  32162 ****         3.5000 -16.7500 -20.0000 Du        
  32163 ****         3.5000 -16.7500 -19.7500 Du        
  32164 ****         3.5000 -16.7500 -19.5000 Du        
  32165 ****         3.5000 -16.7500 -19.2500 Du        
  32166 ****         3.5000 -16.5000 -20.0000 Du        
  32167 ****         3.5000 -16.5000 -19.7500 Du        
  32168 ****         3.5000 -16.2500 -20.0000 Du        
  32169 ****         3.5000 -16.2500 -19.7500 Du        
  32170 ****         3.5000 -16.0000 -19.7500 Du        
  32171 ****         3.5000 -12.2500 -18.2500 Du        
  32172 ****         3.5000 -12.2500 -18.0000 Du        
  32173 ****         3.5000 -12.0000 -18.2500 Du        
  32174 ****         3.5000 -12.0000 -18.0000 Du        
  32175 ****         3.5000 -11.0000 -30.2500 Du        
  32176 ****         3.5000 -10.7500 -30.2500 Du        
  32177 ****         3.5000 -10.0000 -30.7500 Du        
  32178 ****         3.5000  -9.5000 -30.2500 Du        
  32179 ****         3.5000  -9.5000 -30.0000 Du        
  32180 ****         3.5000  -9.5000 -29.7500 Du        
  32181 ****         3.5000  -9.5000 -29.5000 Du        
  32182 ****         3.5000  -9.2500 -31.0000 Du        
  32183 ****         3.5000  -9.2500 -30.5000 Du        
  32184 ****         3.5000  -9.2500 -30.2500 Du        
  32185 ****         3.5000  -9.2500 -30.0000 Du        
  32186 ****         3.5000  -9.2500 -29.7500 Du        
  32187 ****         3.5000  -9.2500 -29.5000 Du        
  32188 ****         3.5000  -9.2500 -29.2500 Du        
  32189 ****         3.5000  -9.0000 -31.0000 Du        
  32190 ****         3.5000  -9.0000 -30.7500 Du        
  32191 ****         3.5000  -9.0000 -30.5000 Du        
  32192 ****         3.5000  -9.0000 -30.2500 Du        
  32193 ****         3.5000  -9.0000 -30.0000 Du        
  32194 ****         3.5000  -9.0000 -29.7500 Du        
  32195 ****         3.5000  -9.0000 -29.5000 Du        
  32196 ****         3.5000  -9.0000 -29.2500 Du        
  32197 ****         3.7500 -25.7500 -14.2500 Du        
  32198 ****         3.7500 -25.7500 -14.0000 Du        
  32199 ****         3.7500 -25.7500 -13.7500 Du        
  32200 ****         3.7500 -25.5000 -14.2500 Du        
  32201 ****         3.7500 -25.5000 -14.0000 Du        
  32202 ****         3.7500 -25.5000 -13.7500 Du        
  32203 ****         3.7500 -25.2500 -14.5000 Du        
  32204 ****         3.7500 -25.2500 -14.2500 Du        
  32205 ****         3.7500 -25.2500 -14.0000 Du        
  32206 ****         3.7500 -25.2500 -13.7500 Du        
  32207 ****         3.7500 -25.2500 -13.5000 Du        
  32208 ****         3.7500 -25.0000 -14.7500 Du        
  32209 ****         3.7500 -25.0000 -14.5000 Du        
  32210 ****         3.7500 -25.0000 -14.2500 Du        
  32211 ****         3.7500 -25.0000 -14.0000 Du        
  32212 ****         3.7500 -25.0000 -13.7500 Du        
  32213 ****         3.7500 -25.0000 -13.5000 Du        
  32214 ****         3.7500 -25.0000 -13.2500 Du        
  32215 ****         3.7500 -24.7500 -15.0000 Du        
  32216 ****         3.7500 -24.7500 -14.7500 Du        
  32217 ****         3.7500 -24.7500 -14.5000 Du        
  32218 ****         3.7500 -24.7500 -14.2500 Du        
  32219 ****         3.7500 -24.7500 -14.0000 Du        
  32220 ****         3.7500 -24.7500 -13.7500 Du        
  32221 ****         3.7500 -24.7500 -13.5000 Du        
  32222 ****         3.7500 -24.7500 -13.2500 Du        
  32223 ****         3.7500 -24.5000 -15.2500 Du        
  32224 ****         3.7500 -24.5000 -15.0000 Du        
  32225 ****         3.7500 -24.5000 -14.7500 Du        
  32226 ****         3.7500 -24.5000 -14.5000 Du        
  32227 ****         3.7500 -24.5000 -14.2500 Du        
  32228 ****         3.7500 -24.5000 -14.0000 Du        
  32229 ****         3.7500 -24.5000 -13.7500 Du        
  32230 ****         3.7500 -24.5000 -13.5000 Du        
  32231 ****         3.7500 -24.2500 -15.2500 Du        
  32232 ****         3.7500 -24.2500 -15.0000 Du        
  32233 ****         3.7500 -24.2500 -14.7500 Du        
  32234 ****         3.7500 -24.2500 -14.5000 Du        
  32235 ****         3.7500 -24.2500 -14.2500 Du        
  32236 ****         3.7500 -24.2500 -14.0000 Du        
  32237 ****         3.7500 -24.2500 -13.7500 Du        
  32238 ****         3.7500 -24.2500 -13.5000 Du        
  32239 ****         3.7500 -24.0000 -15.2500 Du        
  32240 ****         3.7500 -24.0000 -15.0000 Du        
  32241 ****         3.7500 -24.0000 -14.7500 Du        
  32242 ****         3.7500 -24.0000 -14.5000 Du        
  32243 ****         3.7500 -24.0000 -14.2500 Du        
  32244 ****         3.7500 -24.0000 -14.0000 Du        
  32245 ****         3.7500 -24.0000 -13.7500 Du        
  32246 ****         3.7500 -23.7500 -15.2500 Du        
  32247 ****         3.7500 -23.7500 -15.0000 Du        
  32248 ****         3.7500 -23.7500 -14.7500 Du        
  32249 ****         3.7500 -23.7500 -14.5000 Du        
  32250 ****         3.7500 -23.7500 -14.2500 Du        
  32251 ****         3.7500 -23.7500 -14.0000 Du        
  32252 ****         3.7500 -23.5000 -15.0000 Du        
  32253 ****         3.7500 -23.5000 -14.7500 Du        
  32254 ****         3.7500 -23.5000 -14.5000 Du        
  32255 ****         3.7500 -23.5000 -14.2500 Du        
  32256 ****         3.7500 -23.2500 -14.7500 Du        
  32257 ****         3.7500 -23.2500 -14.5000 Du        
  32258 ****         3.7500 -23.2500 -14.2500 Du        
  32259 ****         3.7500 -19.7500 -15.0000 Du        
  32260 ****         3.7500 -19.5000 -15.0000 Du        
  32261 ****         3.7500 -18.5000 -28.5000 Du        
  32262 ****         3.7500 -18.2500 -28.5000 Du        
  32263 ****         3.7500 -18.0000 -20.5000 Du        
  32264 ****         3.7500 -18.0000 -20.2500 Du        
  32265 ****         3.7500 -18.0000 -20.0000 Du        
  32266 ****         3.7500 -18.0000 -19.7500 Du        
  32267 ****         3.7500 -18.0000 -19.5000 Du        
  32268 ****         3.7500 -18.0000 -19.2500 Du        
  32269 ****         3.7500 -18.0000 -19.0000 Du        
  32270 ****         3.7500 -18.0000 -18.7500 Du        
  32271 ****         3.7500 -17.7500 -20.5000 Du        
  32272 ****         3.7500 -17.7500 -20.2500 Du        
  32273 ****         3.7500 -17.7500 -20.0000 Du        
  32274 ****         3.7500 -17.7500 -19.7500 Du        
  32275 ****         3.7500 -17.7500 -19.5000 Du        
  32276 ****         3.7500 -17.7500 -19.2500 Du        
  32277 ****         3.7500 -17.7500 -19.0000 Du        
  32278 ****         3.7500 -17.7500 -18.7500 Du        
  32279 ****         3.7500 -17.5000 -20.5000 Du        
  32280 ****         3.7500 -17.5000 -20.2500 Du        
  32281 ****         3.7500 -17.5000 -20.0000 Du        
  32282 ****         3.7500 -17.5000 -19.7500 Du        
  32283 ****         3.7500 -17.5000 -19.5000 Du        
  32284 ****         3.7500 -17.5000 -19.2500 Du        
  32285 ****         3.7500 -17.5000 -19.0000 Du        
  32286 ****         3.7500 -17.5000 -18.7500 Du        
  32287 ****         3.7500 -17.2500 -20.5000 Du        
  32288 ****         3.7500 -17.2500 -20.2500 Du        
  32289 ****         3.7500 -17.2500 -20.0000 Du        
  32290 ****         3.7500 -17.2500 -19.7500 Du        
  32291 ****         3.7500 -17.2500 -19.5000 Du        
  32292 ****         3.7500 -17.2500 -19.2500 Du        
  32293 ****         3.7500 -17.2500 -19.0000 Du        
  32294 ****         3.7500 -17.2500 -18.7500 Du        
  32295 ****         3.7500 -17.0000 -20.5000 Du        
  32296 ****         3.7500 -17.0000 -20.2500 Du        
  32297 ****         3.7500 -17.0000 -20.0000 Du        
  32298 ****         3.7500 -17.0000 -19.7500 Du        
  32299 ****         3.7500 -17.0000 -19.5000 Du        
  32300 ****         3.7500 -17.0000 -19.2500 Du        
  32301 ****         3.7500 -17.0000 -19.0000 Du        
  32302 ****         3.7500 -16.7500 -20.2500 Du        
  32303 ****         3.7500 -16.7500 -20.0000 Du        
  32304 ****         3.7500 -16.7500 -19.7500 Du        
  32305 ****         3.7500 -16.7500 -19.5000 Du        
  32306 ****         3.7500 -16.7500 -19.2500 Du        
  32307 ****         3.7500 -16.5000 -20.0000 Du        
  32308 ****         3.7500 -16.5000 -19.7500 Du        
  32309 ****         3.7500 -16.2500 -20.0000 Du        
  32310 ****         3.7500 -16.2500 -19.7500 Du        
  32311 ****         3.7500 -16.0000 -20.0000 Du        
  32312 ****         3.7500 -16.0000 -19.7500 Du        
  32313 ****         3.7500 -15.7500 -20.0000 Du        
  32314 ****         3.7500 -15.7500 -19.7500 Du        
  32315 ****         3.7500 -12.5000 -18.5000 Du        
  32316 ****         3.7500 -12.2500 -18.5000 Du        
  32317 ****         3.7500 -12.2500 -18.2500 Du        
  32318 ****         3.7500 -12.2500 -18.0000 Du        
  32319 ****         3.7500 -12.0000 -18.2500 Du        
  32320 ****         3.7500 -12.0000 -18.0000 Du        
  32321 ****         3.7500 -10.2500 -30.0000 Du        
  32322 ****         3.7500 -10.0000 -30.7500 Du        
  32323 ****         3.7500 -10.0000 -30.0000 Du        
  32324 ****         3.7500 -10.0000 -29.7500 Du        
  32325 ****         3.7500  -9.7500 -30.7500 Du        
  32326 ****         3.7500  -9.5000 -31.2500 Du        
  32327 ****         3.7500  -9.5000 -30.5000 Du        
  32328 ****         3.7500  -9.5000 -30.2500 Du        
  32329 ****         3.7500  -9.5000 -30.0000 Du        
  32330 ****         3.7500  -9.5000 -29.7500 Du        
  32331 ****         3.7500  -9.5000 -29.5000 Du        
  32332 ****         3.7500  -9.2500 -31.2500 Du        
  32333 ****         3.7500  -9.2500 -31.0000 Du        
  32334 ****         3.7500  -9.2500 -30.7500 Du        
  32335 ****         3.7500  -9.2500 -30.5000 Du        
  32336 ****         3.7500  -9.2500 -30.2500 Du        
  32337 ****         3.7500  -9.2500 -30.0000 Du        
  32338 ****         3.7500  -9.2500 -29.7500 Du        
  32339 ****         3.7500  -9.2500 -29.5000 Du        
  32340 ****         3.7500  -9.2500 -29.2500 Du        
  32341 ****         3.7500  -9.0000 -31.7500 Du        
  32342 ****         3.7500  -9.0000 -31.2500 Du        
  32343 ****         3.7500  -9.0000 -31.0000 Du        
  32344 ****         3.7500  -9.0000 -30.7500 Du        
  32345 ****         3.7500  -9.0000 -30.5000 Du        
  32346 ****         3.7500  -9.0000 -30.2500 Du        
  32347 ****         3.7500  -9.0000 -30.0000 Du        
  32348 ****         3.7500  -9.0000 -29.7500 Du        
  32349 ****         3.7500  -9.0000 -29.5000 Du        
  32350 ****         3.7500  -9.0000 -29.2500 Du        
  32351 ****         3.7500  -9.0000 -29.0000 Du        
  32352 ****         3.7500  -8.7500 -31.7500 Du        
  32353 ****         3.7500  -8.7500 -30.7500 Du        
  32354 ****         3.7500  -8.7500 -30.2500 Du        
  32355 ****         3.7500  -8.7500 -30.0000 Du        
  32356 ****         3.7500  -8.7500 -29.7500 Du        
  32357 ****         3.7500  -8.7500 -29.5000 Du        
  32358 ****         3.7500  -8.7500 -29.2500 Du        
  32359 ****         3.7500  -8.7500 -29.0000 Du        
  32360 ****         4.0000 -25.5000 -14.2500 Du        
  32361 ****         4.0000 -25.5000 -14.0000 Du        
  32362 ****         4.0000 -25.5000 -13.7500 Du        
  32363 ****         4.0000 -25.2500 -14.5000 Du        
  32364 ****         4.0000 -25.2500 -14.2500 Du        
  32365 ****         4.0000 -25.2500 -14.0000 Du        
  32366 ****         4.0000 -25.2500 -13.7500 Du        
  32367 ****         4.0000 -25.2500 -13.5000 Du        
  32368 ****         4.0000 -25.0000 -14.7500 Du        
  32369 ****         4.0000 -25.0000 -14.5000 Du        
  32370 ****         4.0000 -25.0000 -14.2500 Du        
  32371 ****         4.0000 -25.0000 -14.0000 Du        
  32372 ****         4.0000 -25.0000 -13.7500 Du        
  32373 ****         4.0000 -25.0000 -13.5000 Du        
  32374 ****         4.0000 -25.0000 -13.2500 Du        
  32375 ****         4.0000 -24.7500 -15.0000 Du        
  32376 ****         4.0000 -24.7500 -14.7500 Du        
  32377 ****         4.0000 -24.7500 -14.5000 Du        
  32378 ****         4.0000 -24.7500 -14.2500 Du        
  32379 ****         4.0000 -24.7500 -14.0000 Du        
  32380 ****         4.0000 -24.7500 -13.7500 Du        
  32381 ****         4.0000 -24.7500 -13.5000 Du        
  32382 ****         4.0000 -24.7500 -13.2500 Du        
  32383 ****         4.0000 -24.5000 -15.0000 Du        
  32384 ****         4.0000 -24.5000 -14.7500 Du        
  32385 ****         4.0000 -24.5000 -14.5000 Du        
  32386 ****         4.0000 -24.5000 -14.2500 Du        
  32387 ****         4.0000 -24.5000 -14.0000 Du        
  32388 ****         4.0000 -24.5000 -13.7500 Du        
  32389 ****         4.0000 -24.5000 -13.5000 Du        
  32390 ****         4.0000 -24.5000 -13.2500 Du        
  32391 ****         4.0000 -24.2500 -15.0000 Du        
  32392 ****         4.0000 -24.2500 -14.7500 Du        
  32393 ****         4.0000 -24.2500 -14.5000 Du        
  32394 ****         4.0000 -24.2500 -14.2500 Du        
  32395 ****         4.0000 -24.2500 -14.0000 Du        
  32396 ****         4.0000 -24.2500 -13.7500 Du        
  32397 ****         4.0000 -24.2500 -13.5000 Du        
  32398 ****         4.0000 -24.2500 -13.2500 Du        
  32399 ****         4.0000 -24.0000 -15.0000 Du        
  32400 ****         4.0000 -24.0000 -14.7500 Du        
  32401 ****         4.0000 -24.0000 -14.5000 Du        
  32402 ****         4.0000 -24.0000 -14.2500 Du        
  32403 ****         4.0000 -24.0000 -14.0000 Du        
  32404 ****         4.0000 -24.0000 -13.7500 Du        
  32405 ****         4.0000 -24.0000 -13.5000 Du        
  32406 ****         4.0000 -23.7500 -15.0000 Du        
  32407 ****         4.0000 -23.7500 -14.7500 Du        
  32408 ****         4.0000 -23.7500 -14.5000 Du        
  32409 ****         4.0000 -23.7500 -14.2500 Du        
  32410 ****         4.0000 -23.7500 -14.0000 Du        
  32411 ****         4.0000 -23.7500 -13.7500 Du        
  32412 ****         4.0000 -23.5000 -15.0000 Du        
  32413 ****         4.0000 -23.5000 -14.7500 Du        
  32414 ****         4.0000 -23.5000 -14.5000 Du        
  32415 ****         4.0000 -23.5000 -14.2500 Du        
  32416 ****         4.0000 -23.5000 -14.0000 Du        
  32417 ****         4.0000 -23.2500 -15.0000 Du        
  32418 ****         4.0000 -23.2500 -14.7500 Du        
  32419 ****         4.0000 -23.2500 -14.5000 Du        
  32420 ****         4.0000 -23.2500 -14.2500 Du        
  32421 ****         4.0000 -23.2500 -14.0000 Du        
  32422 ****         4.0000 -23.0000 -14.5000 Du        
  32423 ****         4.0000 -23.0000 -14.2500 Du        
  32424 ****         4.0000 -22.7500 -14.5000 Du        
  32425 ****         4.0000 -20.2500 -15.0000 Du        
  32426 ****         4.0000 -19.7500 -15.2500 Du        
  32427 ****         4.0000 -19.7500 -15.0000 Du        
  32428 ****         4.0000 -18.0000 -20.7500 Du        
  32429 ****         4.0000 -18.0000 -20.5000 Du        
  32430 ****         4.0000 -18.0000 -20.2500 Du        
  32431 ****         4.0000 -18.0000 -20.0000 Du        
  32432 ****         4.0000 -18.0000 -19.7500 Du        
  32433 ****         4.0000 -18.0000 -19.5000 Du        
  32434 ****         4.0000 -18.0000 -19.2500 Du        
  32435 ****         4.0000 -18.0000 -19.0000 Du        
  32436 ****         4.0000 -18.0000 -18.7500 Du        
  32437 ****         4.0000 -17.7500 -20.7500 Du        
  32438 ****         4.0000 -17.7500 -20.5000 Du        
  32439 ****         4.0000 -17.7500 -20.2500 Du        
  32440 ****         4.0000 -17.7500 -20.0000 Du        
  32441 ****         4.0000 -17.7500 -19.7500 Du        
  32442 ****         4.0000 -17.7500 -19.5000 Du        
  32443 ****         4.0000 -17.7500 -19.2500 Du        
  32444 ****         4.0000 -17.7500 -19.0000 Du        
  32445 ****         4.0000 -17.7500 -18.7500 Du        
  32446 ****         4.0000 -17.5000 -20.7500 Du        
  32447 ****         4.0000 -17.5000 -20.5000 Du        
  32448 ****         4.0000 -17.5000 -20.2500 Du        
  32449 ****         4.0000 -17.5000 -20.0000 Du        
  32450 ****         4.0000 -17.5000 -19.7500 Du        
  32451 ****         4.0000 -17.5000 -19.5000 Du        
  32452 ****         4.0000 -17.5000 -19.2500 Du        
  32453 ****         4.0000 -17.5000 -19.0000 Du        
  32454 ****         4.0000 -17.5000 -18.7500 Du        
  32455 ****         4.0000 -17.2500 -20.7500 Du        
  32456 ****         4.0000 -17.2500 -20.5000 Du        
  32457 ****         4.0000 -17.2500 -20.2500 Du        
  32458 ****         4.0000 -17.2500 -20.0000 Du        
  32459 ****         4.0000 -17.2500 -19.7500 Du        
  32460 ****         4.0000 -17.2500 -19.5000 Du        
  32461 ****         4.0000 -17.2500 -19.2500 Du        
  32462 ****         4.0000 -17.2500 -19.0000 Du        
  32463 ****         4.0000 -17.2500 -18.7500 Du        
  32464 ****         4.0000 -17.0000 -20.5000 Du        
  32465 ****         4.0000 -17.0000 -20.2500 Du        
  32466 ****         4.0000 -17.0000 -20.0000 Du        
  32467 ****         4.0000 -17.0000 -19.7500 Du        
  32468 ****         4.0000 -17.0000 -19.5000 Du        
  32469 ****         4.0000 -17.0000 -19.2500 Du        
  32470 ****         4.0000 -17.0000 -19.0000 Du        
  32471 ****         4.0000 -17.0000 -18.7500 Du        
  32472 ****         4.0000 -16.7500 -20.5000 Du        
  32473 ****         4.0000 -16.7500 -20.2500 Du        
  32474 ****         4.0000 -16.7500 -20.0000 Du        
  32475 ****         4.0000 -16.7500 -19.7500 Du        
  32476 ****         4.0000 -16.7500 -19.5000 Du        
  32477 ****         4.0000 -16.7500 -19.2500 Du        
  32478 ****         4.0000 -16.7500 -19.0000 Du        
  32479 ****         4.0000 -16.5000 -20.2500 Du        
  32480 ****         4.0000 -16.5000 -20.0000 Du        
  32481 ****         4.0000 -16.5000 -19.7500 Du        
  32482 ****         4.0000 -16.5000 -19.5000 Du        
  32483 ****         4.0000 -16.2500 -20.2500 Du        
  32484 ****         4.0000 -16.2500 -20.0000 Du        
  32485 ****         4.0000 -16.2500 -19.7500 Du        
  32486 ****         4.0000 -16.2500 -19.5000 Du        
  32487 ****         4.0000 -16.0000 -20.2500 Du        
  32488 ****         4.0000 -16.0000 -20.0000 Du        
  32489 ****         4.0000 -16.0000 -19.7500 Du        
  32490 ****         4.0000 -15.7500 -20.2500 Du        
  32491 ****         4.0000 -15.7500 -20.0000 Du        
  32492 ****         4.0000 -15.7500 -19.7500 Du        
  32493 ****         4.0000 -15.5000 -19.7500 Du        
  32494 ****         4.0000 -15.2500 -20.0000 Du        
  32495 ****         4.0000 -12.5000 -18.5000 Du        
  32496 ****         4.0000 -12.5000 -18.2500 Du        
  32497 ****         4.0000 -12.2500 -18.5000 Du        
  32498 ****         4.0000 -12.2500 -18.2500 Du        
  32499 ****         4.0000 -12.2500 -18.0000 Du        
  32500 ****         4.0000 -12.0000 -18.5000 Du        
  32501 ****         4.0000 -12.0000 -18.2500 Du        
  32502 ****         4.0000  -9.5000 -30.0000 Du        
  32503 ****         4.0000  -9.5000 -29.7500 Du        
  32504 ****         4.0000  -9.2500 -31.5000 Du        
  32505 ****         4.0000  -9.2500 -31.2500 Du        
  32506 ****         4.0000  -9.2500 -31.0000 Du        
  32507 ****         4.0000  -9.2500 -30.5000 Du        
  32508 ****         4.0000  -9.2500 -30.2500 Du        
  32509 ****         4.0000  -9.2500 -30.0000 Du        
  32510 ****         4.0000  -9.2500 -29.7500 Du        
  32511 ****         4.0000  -9.2500 -29.5000 Du        
  32512 ****         4.0000  -9.2500 -29.2500 Du        
  32513 ****         4.0000  -9.0000 -31.2500 Du        
  32514 ****         4.0000  -9.0000 -31.0000 Du        
  32515 ****         4.0000  -9.0000 -30.7500 Du        
  32516 ****         4.0000  -9.0000 -30.5000 Du        
  32517 ****         4.0000  -9.0000 -30.2500 Du        
  32518 ****         4.0000  -9.0000 -30.0000 Du        
  32519 ****         4.0000  -9.0000 -29.7500 Du        
  32520 ****         4.0000  -9.0000 -29.5000 Du        
  32521 ****         4.0000  -9.0000 -29.2500 Du        
  32522 ****         4.0000  -9.0000 -29.0000 Du        
  32523 ****         4.0000  -8.7500 -31.2500 Du        
  32524 ****         4.0000  -8.7500 -31.0000 Du        
  32525 ****         4.0000  -8.7500 -30.7500 Du        
  32526 ****         4.0000  -8.7500 -30.5000 Du        
  32527 ****         4.0000  -8.7500 -30.2500 Du        
  32528 ****         4.0000  -8.7500 -30.0000 Du        
  32529 ****         4.0000  -8.7500 -29.7500 Du        
  32530 ****         4.0000  -8.7500 -29.5000 Du        
  32531 ****         4.0000  -8.7500 -29.2500 Du        
  32532 ****         4.0000  -8.7500 -29.0000 Du        
  32533 ****         4.0000  -8.7500 -28.7500 Du        
  32534 ****         4.2500 -25.2500 -14.2500 Du        
  32535 ****         4.2500 -25.2500 -14.0000 Du        
  32536 ****         4.2500 -25.2500 -13.7500 Du        
  32537 ****         4.2500 -25.2500 -13.5000 Du        
  32538 ****         4.2500 -25.0000 -14.2500 Du        
  32539 ****         4.2500 -25.0000 -14.0000 Du        
  32540 ****         4.2500 -25.0000 -13.7500 Du        
  32541 ****         4.2500 -25.0000 -13.5000 Du        
  32542 ****         4.2500 -25.0000 -13.2500 Du        
  32543 ****         4.2500 -24.7500 -14.5000 Du        
  32544 ****         4.2500 -24.7500 -14.2500 Du        
  32545 ****         4.2500 -24.7500 -14.0000 Du        
  32546 ****         4.2500 -24.7500 -13.7500 Du        
  32547 ****         4.2500 -24.7500 -13.5000 Du        
  32548 ****         4.2500 -24.7500 -13.2500 Du        
  32549 ****         4.2500 -24.7500 -13.0000 Du        
  32550 ****         4.2500 -24.5000 -14.7500 Du        
  32551 ****         4.2500 -24.5000 -14.5000 Du        
  32552 ****         4.2500 -24.5000 -14.2500 Du        
  32553 ****         4.2500 -24.5000 -14.0000 Du        
  32554 ****         4.2500 -24.5000 -13.7500 Du        
  32555 ****         4.2500 -24.5000 -13.5000 Du        
  32556 ****         4.2500 -24.5000 -13.2500 Du        
  32557 ****         4.2500 -24.5000 -13.0000 Du        
  32558 ****         4.2500 -24.2500 -15.0000 Du        
  32559 ****         4.2500 -24.2500 -14.7500 Du        
  32560 ****         4.2500 -24.2500 -14.5000 Du        
  32561 ****         4.2500 -24.2500 -14.2500 Du        
  32562 ****         4.2500 -24.2500 -14.0000 Du        
  32563 ****         4.2500 -24.2500 -13.7500 Du        
  32564 ****         4.2500 -24.2500 -13.5000 Du        
  32565 ****         4.2500 -24.2500 -13.2500 Du        
  32566 ****         4.2500 -24.2500 -13.0000 Du        
  32567 ****         4.2500 -24.0000 -15.0000 Du        
  32568 ****         4.2500 -24.0000 -14.7500 Du        
  32569 ****         4.2500 -24.0000 -14.5000 Du        
  32570 ****         4.2500 -24.0000 -14.2500 Du        
  32571 ****         4.2500 -24.0000 -14.0000 Du        
  32572 ****         4.2500 -24.0000 -13.7500 Du        
  32573 ****         4.2500 -24.0000 -13.5000 Du        
  32574 ****         4.2500 -24.0000 -13.2500 Du        
  32575 ****         4.2500 -23.7500 -15.0000 Du        
  32576 ****         4.2500 -23.7500 -14.7500 Du        
  32577 ****         4.2500 -23.7500 -14.5000 Du        
  32578 ****         4.2500 -23.7500 -14.2500 Du        
  32579 ****         4.2500 -23.7500 -14.0000 Du        
  32580 ****         4.2500 -23.7500 -13.7500 Du        
  32581 ****         4.2500 -23.7500 -13.5000 Du        
  32582 ****         4.2500 -23.5000 -14.7500 Du        
  32583 ****         4.2500 -23.5000 -14.5000 Du        
  32584 ****         4.2500 -23.5000 -14.2500 Du        
  32585 ****         4.2500 -23.5000 -14.0000 Du        
  32586 ****         4.2500 -23.5000 -13.7500 Du        
  32587 ****         4.2500 -23.2500 -14.7500 Du        
  32588 ****         4.2500 -23.2500 -14.5000 Du        
  32589 ****         4.2500 -23.2500 -14.2500 Du        
  32590 ****         4.2500 -23.2500 -14.0000 Du        
  32591 ****         4.2500 -23.0000 -14.7500 Du        
  32592 ****         4.2500 -23.0000 -14.5000 Du        
  32593 ****         4.2500 -23.0000 -14.2500 Du        
  32594 ****         4.2500 -23.0000 -14.0000 Du        
  32595 ****         4.2500 -22.7500 -14.5000 Du        
  32596 ****         4.2500 -22.7500 -14.2500 Du        
  32597 ****         4.2500 -20.2500 -15.2500 Du        
  32598 ****         4.2500 -20.2500 -15.0000 Du        
  32599 ****         4.2500 -20.2500 -14.7500 Du        
  32600 ****         4.2500 -20.0000 -15.2500 Du        
  32601 ****         4.2500 -20.0000 -15.0000 Du        
  32602 ****         4.2500 -20.0000 -14.7500 Du        
  32603 ****         4.2500 -19.7500 -15.2500 Du        
  32604 ****         4.2500 -19.7500 -15.0000 Du        
  32605 ****         4.2500 -19.7500 -14.7500 Du        
  32606 ****         4.2500 -19.5000 -15.2500 Du        
  32607 ****         4.2500 -18.0000 -20.7500 Du        
  32608 ****         4.2500 -18.0000 -20.5000 Du        
  32609 ****         4.2500 -18.0000 -20.2500 Du        
  32610 ****         4.2500 -18.0000 -20.0000 Du        
  32611 ****         4.2500 -18.0000 -19.7500 Du        
  32612 ****         4.2500 -18.0000 -19.0000 Du        
  32613 ****         4.2500 -17.7500 -21.0000 Du        
  32614 ****         4.2500 -17.7500 -20.7500 Du        
  32615 ****         4.2500 -17.7500 -20.5000 Du        
  32616 ****         4.2500 -17.7500 -20.2500 Du        
  32617 ****         4.2500 -17.7500 -20.0000 Du        
  32618 ****         4.2500 -17.7500 -19.7500 Du        
  32619 ****         4.2500 -17.7500 -19.5000 Du        
  32620 ****         4.2500 -17.7500 -19.2500 Du        
  32621 ****         4.2500 -17.7500 -19.0000 Du        
  32622 ****         4.2500 -17.7500 -18.7500 Du        
  32623 ****         4.2500 -17.5000 -20.7500 Du        
  32624 ****         4.2500 -17.5000 -20.5000 Du        
  32625 ****         4.2500 -17.5000 -20.2500 Du        
  32626 ****         4.2500 -17.5000 -20.0000 Du        
  32627 ****         4.2500 -17.5000 -19.7500 Du        
  32628 ****         4.2500 -17.5000 -19.5000 Du        
  32629 ****         4.2500 -17.5000 -19.2500 Du        
  32630 ****         4.2500 -17.5000 -19.0000 Du        
  32631 ****         4.2500 -17.5000 -18.7500 Du        
  32632 ****         4.2500 -17.2500 -20.7500 Du        
  32633 ****         4.2500 -17.2500 -20.5000 Du        
  32634 ****         4.2500 -17.2500 -20.2500 Du        
  32635 ****         4.2500 -17.2500 -20.0000 Du        
  32636 ****         4.2500 -17.2500 -19.7500 Du        
  32637 ****         4.2500 -17.2500 -19.5000 Du        
  32638 ****         4.2500 -17.2500 -19.2500 Du        
  32639 ****         4.2500 -17.2500 -19.0000 Du        
  32640 ****         4.2500 -17.2500 -18.7500 Du        
  32641 ****         4.2500 -17.0000 -20.7500 Du        
  32642 ****         4.2500 -17.0000 -20.5000 Du        
  32643 ****         4.2500 -17.0000 -20.2500 Du        
  32644 ****         4.2500 -17.0000 -20.0000 Du        
  32645 ****         4.2500 -17.0000 -19.7500 Du        
  32646 ****         4.2500 -17.0000 -19.5000 Du        
  32647 ****         4.2500 -17.0000 -19.2500 Du        
  32648 ****         4.2500 -17.0000 -19.0000 Du        
  32649 ****         4.2500 -17.0000 -18.7500 Du        
  32650 ****         4.2500 -16.7500 -20.5000 Du        
  32651 ****         4.2500 -16.7500 -20.2500 Du        
  32652 ****         4.2500 -16.7500 -20.0000 Du        
  32653 ****         4.2500 -16.7500 -19.7500 Du        
  32654 ****         4.2500 -16.7500 -19.5000 Du        
  32655 ****         4.2500 -16.7500 -19.2500 Du        
  32656 ****         4.2500 -16.7500 -19.0000 Du        
  32657 ****         4.2500 -16.5000 -20.2500 Du        
  32658 ****         4.2500 -16.5000 -20.0000 Du        
  32659 ****         4.2500 -16.5000 -19.7500 Du        
  32660 ****         4.2500 -16.5000 -19.5000 Du        
  32661 ****         4.2500 -16.5000 -19.2500 Du        
  32662 ****         4.2500 -16.2500 -20.2500 Du        
  32663 ****         4.2500 -16.2500 -20.0000 Du        
  32664 ****         4.2500 -16.2500 -19.7500 Du        
  32665 ****         4.2500 -16.2500 -19.5000 Du        
  32666 ****         4.2500 -16.2500 -19.2500 Du        
  32667 ****         4.2500 -16.0000 -20.2500 Du        
  32668 ****         4.2500 -16.0000 -20.0000 Du        
  32669 ****         4.2500 -16.0000 -19.7500 Du        
  32670 ****         4.2500 -16.0000 -19.5000 Du        
  32671 ****         4.2500 -16.0000 -19.2500 Du        
  32672 ****         4.2500 -15.7500 -20.2500 Du        
  32673 ****         4.2500 -15.7500 -20.0000 Du        
  32674 ****         4.2500 -15.7500 -19.7500 Du        
  32675 ****         4.2500 -15.7500 -19.5000 Du        
  32676 ****         4.2500 -15.5000 -20.0000 Du        
  32677 ****         4.2500 -15.5000 -19.7500 Du        
  32678 ****         4.2500 -12.5000 -18.5000 Du        
  32679 ****         4.2500 -12.2500 -18.5000 Du        
  32680 ****         4.2500 -12.2500 -18.2500 Du        
  32681 ****         4.2500 -12.0000 -18.5000 Du        
  32682 ****         4.2500 -12.0000 -18.2500 Du        
  32683 ****         4.2500  -9.0000 -31.2500 Du        
  32684 ****         4.2500  -9.0000 -31.0000 Du        
  32685 ****         4.2500  -9.0000 -30.7500 Du        
  32686 ****         4.2500  -9.0000 -30.5000 Du        
  32687 ****         4.2500  -9.0000 -30.2500 Du        
  32688 ****         4.2500  -9.0000 -30.0000 Du        
  32689 ****         4.2500  -9.0000 -29.7500 Du        
  32690 ****         4.2500  -9.0000 -29.5000 Du        
  32691 ****         4.2500  -9.0000 -29.2500 Du        
  32692 ****         4.2500  -8.7500 -31.2500 Du        
  32693 ****         4.2500  -8.7500 -31.0000 Du        
  32694 ****         4.2500  -8.7500 -30.7500 Du        
  32695 ****         4.2500  -8.7500 -30.5000 Du        
  32696 ****         4.2500  -8.7500 -30.2500 Du        
  32697 ****         4.2500  -8.7500 -30.0000 Du        
  32698 ****         4.2500  -8.7500 -29.7500 Du        
  32699 ****         4.2500  -8.7500 -29.5000 Du        
  32700 ****         4.2500  -8.7500 -29.2500 Du        
  32701 ****         4.2500  -8.7500 -29.0000 Du        
  32702 ****         4.2500  -8.5000 -29.5000 Du        
  32703 ****         4.2500  -8.5000 -29.2500 Du        
  32704 ****         4.2500  -8.5000 -29.0000 Du        
  32705 ****         4.2500  -8.5000 -28.7500 Du        
  32706 ****         4.5000 -25.2500 -13.7500 Du        
  32707 ****         4.5000 -25.0000 -14.0000 Du        
  32708 ****         4.5000 -25.0000 -13.7500 Du        
  32709 ****         4.5000 -25.0000 -13.5000 Du        
  32710 ****         4.5000 -25.0000 -13.2500 Du        
  32711 ****         4.5000 -24.7500 -14.2500 Du        
  32712 ****         4.5000 -24.7500 -14.0000 Du        
  32713 ****         4.5000 -24.7500 -13.7500 Du        
  32714 ****         4.5000 -24.7500 -13.5000 Du        
  32715 ****         4.5000 -24.7500 -13.2500 Du        
  32716 ****         4.5000 -24.7500 -13.0000 Du        
  32717 ****         4.5000 -24.5000 -14.2500 Du        
  32718 ****         4.5000 -24.5000 -14.0000 Du        
  32719 ****         4.5000 -24.5000 -13.7500 Du        
  32720 ****         4.5000 -24.5000 -13.5000 Du        
  32721 ****         4.5000 -24.5000 -13.2500 Du        
  32722 ****         4.5000 -24.5000 -13.0000 Du        
  32723 ****         4.5000 -24.5000 -12.7500 Du        
  32724 ****         4.5000 -24.2500 -14.5000 Du        
  32725 ****         4.5000 -24.2500 -14.2500 Du        
  32726 ****         4.5000 -24.2500 -14.0000 Du        
  32727 ****         4.5000 -24.2500 -13.7500 Du        
  32728 ****         4.5000 -24.2500 -13.5000 Du        
  32729 ****         4.5000 -24.2500 -13.2500 Du        
  32730 ****         4.5000 -24.2500 -13.0000 Du        
  32731 ****         4.5000 -24.2500 -12.7500 Du        
  32732 ****         4.5000 -24.0000 -14.7500 Du        
  32733 ****         4.5000 -24.0000 -14.5000 Du        
  32734 ****         4.5000 -24.0000 -14.2500 Du        
  32735 ****         4.5000 -24.0000 -14.0000 Du        
  32736 ****         4.5000 -24.0000 -13.7500 Du        
  32737 ****         4.5000 -24.0000 -13.5000 Du        
  32738 ****         4.5000 -24.0000 -13.2500 Du        
  32739 ****         4.5000 -24.0000 -13.0000 Du        
  32740 ****         4.5000 -23.7500 -14.7500 Du        
  32741 ****         4.5000 -23.7500 -14.5000 Du        
  32742 ****         4.5000 -23.7500 -14.2500 Du        
  32743 ****         4.5000 -23.7500 -14.0000 Du        
  32744 ****         4.5000 -23.7500 -13.7500 Du        
  32745 ****         4.5000 -23.7500 -13.5000 Du        
  32746 ****         4.5000 -23.7500 -13.2500 Du        
  32747 ****         4.5000 -23.7500 -13.0000 Du        
  32748 ****         4.5000 -23.5000 -14.7500 Du        
  32749 ****         4.5000 -23.5000 -14.5000 Du        
  32750 ****         4.5000 -23.5000 -14.2500 Du        
  32751 ****         4.5000 -23.5000 -14.0000 Du        
  32752 ****         4.5000 -23.5000 -13.7500 Du        
  32753 ****         4.5000 -23.5000 -13.5000 Du        
  32754 ****         4.5000 -23.5000 -13.2500 Du        
  32755 ****         4.5000 -23.2500 -14.7500 Du        
  32756 ****         4.5000 -23.2500 -14.5000 Du        
  32757 ****         4.5000 -23.2500 -14.2500 Du        
  32758 ****         4.5000 -23.2500 -14.0000 Du        
  32759 ****         4.5000 -23.2500 -13.7500 Du        
  32760 ****         4.5000 -23.2500 -13.5000 Du        
  32761 ****         4.5000 -23.0000 -14.7500 Du        
  32762 ****         4.5000 -23.0000 -14.5000 Du        
  32763 ****         4.5000 -23.0000 -14.2500 Du        
  32764 ****         4.5000 -23.0000 -14.0000 Du        
  32765 ****         4.5000 -23.0000 -13.7500 Du        
  32766 ****         4.5000 -23.0000 -13.5000 Du        
  32767 ****         4.5000 -22.7500 -14.7500 Du        
  32768 ****         4.5000 -22.7500 -14.5000 Du        
  32769 ****         4.5000 -22.7500 -14.2500 Du        
  32770 ****         4.5000 -22.7500 -14.0000 Du        
  32771 ****         4.5000 -22.7500 -13.7500 Du        
  32772 ****         4.5000 -22.5000 -14.7500 Du        
  32773 ****         4.5000 -22.5000 -14.5000 Du        
  32774 ****         4.5000 -22.5000 -14.2500 Du        
  32775 ****         4.5000 -22.5000 -14.0000 Du        
  32776 ****         4.5000 -22.2500 -14.7500 Du        
  32777 ****         4.5000 -22.2500 -14.5000 Du        
  32778 ****         4.5000 -22.2500 -14.2500 Du        
  32779 ****         4.5000 -22.0000 -14.7500 Du        
  32780 ****         4.5000 -22.0000 -14.5000 Du        
  32781 ****         4.5000 -22.0000 -14.2500 Du        
  32782 ****         4.5000 -21.7500 -14.5000 Du        
  32783 ****         4.5000 -21.7500 -14.2500 Du        
  32784 ****         4.5000 -21.5000 -14.7500 Du        
  32785 ****         4.5000 -21.5000 -14.5000 Du        
  32786 ****         4.5000 -21.5000 -14.2500 Du        
  32787 ****         4.5000 -21.2500 -15.0000 Du        
  32788 ****         4.5000 -21.2500 -14.7500 Du        
  32789 ****         4.5000 -21.2500 -14.5000 Du        
  32790 ****         4.5000 -21.2500 -14.2500 Du        
  32791 ****         4.5000 -21.0000 -15.2500 Du        
  32792 ****         4.5000 -21.0000 -15.0000 Du        
  32793 ****         4.5000 -21.0000 -14.7500 Du        
  32794 ****         4.5000 -21.0000 -14.5000 Du        
  32795 ****         4.5000 -20.7500 -15.2500 Du        
  32796 ****         4.5000 -20.7500 -15.0000 Du        
  32797 ****         4.5000 -20.7500 -14.7500 Du        
  32798 ****         4.5000 -20.7500 -14.5000 Du        
  32799 ****         4.5000 -20.5000 -15.2500 Du        
  32800 ****         4.5000 -20.5000 -15.0000 Du        
  32801 ****         4.5000 -20.5000 -14.7500 Du        
  32802 ****         4.5000 -20.2500 -15.2500 Du        
  32803 ****         4.5000 -20.2500 -15.0000 Du        
  32804 ****         4.5000 -20.2500 -14.7500 Du        
  32805 ****         4.5000 -20.0000 -15.5000 Du        
  32806 ****         4.5000 -20.0000 -15.2500 Du        
  32807 ****         4.5000 -20.0000 -15.0000 Du        
  32808 ****         4.5000 -20.0000 -14.7500 Du        
  32809 ****         4.5000 -19.7500 -15.5000 Du        
  32810 ****         4.5000 -19.7500 -15.2500 Du        
  32811 ****         4.5000 -19.7500 -15.0000 Du        
  32812 ****         4.5000 -19.7500 -14.7500 Du        
  32813 ****         4.5000 -19.5000 -15.7500 Du        
  32814 ****         4.5000 -19.5000 -15.5000 Du        
  32815 ****         4.5000 -19.5000 -15.2500 Du        
  32816 ****         4.5000 -19.5000 -15.0000 Du        
  32817 ****         4.5000 -19.2500 -15.7500 Du        
  32818 ****         4.5000 -19.2500 -15.5000 Du        
  32819 ****         4.5000 -19.2500 -15.2500 Du        
  32820 ****         4.5000 -18.0000 -20.7500 Du        
  32821 ****         4.5000 -18.0000 -20.5000 Du        
  32822 ****         4.5000 -18.0000 -20.2500 Du        
  32823 ****         4.5000 -18.0000 -20.0000 Du        
  32824 ****         4.5000 -18.0000 -19.7500 Du        
  32825 ****         4.5000 -17.7500 -20.7500 Du        
  32826 ****         4.5000 -17.7500 -20.5000 Du        
  32827 ****         4.5000 -17.7500 -20.2500 Du        
  32828 ****         4.5000 -17.7500 -20.0000 Du        
  32829 ****         4.5000 -17.7500 -19.7500 Du        
  32830 ****         4.5000 -17.7500 -19.5000 Du        
  32831 ****         4.5000 -17.7500 -19.2500 Du        
  32832 ****         4.5000 -17.7500 -19.0000 Du        
  32833 ****         4.5000 -17.7500 -18.7500 Du        
  32834 ****         4.5000 -17.5000 -20.7500 Du        
  32835 ****         4.5000 -17.5000 -20.5000 Du        
  32836 ****         4.5000 -17.5000 -20.2500 Du        
  32837 ****         4.5000 -17.5000 -20.0000 Du        
  32838 ****         4.5000 -17.5000 -19.7500 Du        
  32839 ****         4.5000 -17.5000 -19.5000 Du        
  32840 ****         4.5000 -17.5000 -19.2500 Du        
  32841 ****         4.5000 -17.5000 -19.0000 Du        
  32842 ****         4.5000 -17.5000 -18.7500 Du        
  32843 ****         4.5000 -17.5000 -18.2500 Du        
  32844 ****         4.5000 -17.2500 -20.7500 Du        
  32845 ****         4.5000 -17.2500 -20.5000 Du        
  32846 ****         4.5000 -17.2500 -20.2500 Du        
  32847 ****         4.5000 -17.2500 -20.0000 Du        
  32848 ****         4.5000 -17.2500 -19.7500 Du        
  32849 ****         4.5000 -17.2500 -19.5000 Du        
  32850 ****         4.5000 -17.2500 -19.2500 Du        
  32851 ****         4.5000 -17.2500 -19.0000 Du        
  32852 ****         4.5000 -17.2500 -18.7500 Du        
  32853 ****         4.5000 -17.2500 -18.5000 Du        
  32854 ****         4.5000 -17.0000 -20.5000 Du        
  32855 ****         4.5000 -17.0000 -20.2500 Du        
  32856 ****         4.5000 -17.0000 -20.0000 Du        
  32857 ****         4.5000 -17.0000 -19.7500 Du        
  32858 ****         4.5000 -17.0000 -19.5000 Du        
  32859 ****         4.5000 -17.0000 -19.2500 Du        
  32860 ****         4.5000 -17.0000 -19.0000 Du        
  32861 ****         4.5000 -17.0000 -18.7500 Du        
  32862 ****         4.5000 -16.7500 -20.2500 Du        
  32863 ****         4.5000 -16.7500 -20.0000 Du        
  32864 ****         4.5000 -16.7500 -19.7500 Du        
  32865 ****         4.5000 -16.7500 -19.5000 Du        
  32866 ****         4.5000 -16.7500 -19.2500 Du        
  32867 ****         4.5000 -16.7500 -19.0000 Du        
  32868 ****         4.5000 -16.7500 -18.7500 Du        
  32869 ****         4.5000 -16.5000 -20.0000 Du        
  32870 ****         4.5000 -16.5000 -19.7500 Du        
  32871 ****         4.5000 -16.5000 -19.5000 Du        
  32872 ****         4.5000 -16.5000 -19.2500 Du        
  32873 ****         4.5000 -16.5000 -19.0000 Du        
  32874 ****         4.5000 -16.2500 -20.0000 Du        
  32875 ****         4.5000 -16.2500 -19.7500 Du        
  32876 ****         4.5000 -16.2500 -19.5000 Du        
  32877 ****         4.5000 -16.2500 -19.2500 Du        
  32878 ****         4.5000 -16.2500 -19.0000 Du        
  32879 ****         4.5000 -16.0000 -19.7500 Du        
  32880 ****         4.5000 -16.0000 -19.5000 Du        
  32881 ****         4.5000 -16.0000 -19.2500 Du        
  32882 ****         4.5000 -15.7500 -19.7500 Du        
  32883 ****         4.5000 -15.7500 -19.5000 Du        
  32884 ****         4.5000 -15.5000 -19.7500 Du        
  32885 ****         4.5000 -15.2500 -20.0000 Du        
  32886 ****         4.5000 -15.2500 -19.7500 Du        
  32887 ****         4.5000 -15.0000 -20.0000 Du        
  32888 ****         4.5000 -15.0000 -19.7500 Du        
  32889 ****         4.5000 -12.5000 -18.5000 Du        
  32890 ****         4.5000 -12.2500 -18.7500 Du        
  32891 ****         4.5000 -12.2500 -18.5000 Du        
  32892 ****         4.5000 -12.0000 -18.5000 Du        
  32893 ****         4.5000  -8.7500 -31.2500 Du        
  32894 ****         4.5000  -8.7500 -31.0000 Du        
  32895 ****         4.5000  -8.7500 -30.7500 Du        
  32896 ****         4.5000  -8.5000 -31.2500 Du        
  32897 ****         4.5000  -8.2500 -29.2500 Du        
  32898 ****         4.5000  -8.2500 -29.0000 Du        
  32899 ****         4.5000  -8.2500 -28.7500 Du        
  32900 ****         4.7500 -25.0000 -13.7500 Du        
  32901 ****         4.7500 -25.0000 -13.5000 Du        
  32902 ****         4.7500 -25.0000 -13.2500 Du        
  32903 ****         4.7500 -24.7500 -14.0000 Du        
  32904 ****         4.7500 -24.7500 -13.7500 Du        
  32905 ****         4.7500 -24.7500 -13.5000 Du        
  32906 ****         4.7500 -24.7500 -13.2500 Du        
  32907 ****         4.7500 -24.7500 -13.0000 Du        
  32908 ****         4.7500 -24.7500 -12.7500 Du        
  32909 ****         4.7500 -24.5000 -14.0000 Du        
  32910 ****         4.7500 -24.5000 -13.7500 Du        
  32911 ****         4.7500 -24.5000 -13.5000 Du        
  32912 ****         4.7500 -24.5000 -13.2500 Du        
  32913 ****         4.7500 -24.5000 -13.0000 Du        
  32914 ****         4.7500 -24.5000 -12.7500 Du        
  32915 ****         4.7500 -24.2500 -14.2500 Du        
  32916 ****         4.7500 -24.2500 -14.0000 Du        
  32917 ****         4.7500 -24.2500 -13.7500 Du        
  32918 ****         4.7500 -24.2500 -13.5000 Du        
  32919 ****         4.7500 -24.2500 -13.2500 Du        
  32920 ****         4.7500 -24.2500 -13.0000 Du        
  32921 ****         4.7500 -24.2500 -12.7500 Du        
  32922 ****         4.7500 -24.2500 -12.5000 Du        
  32923 ****         4.7500 -24.0000 -14.5000 Du        
  32924 ****         4.7500 -24.0000 -14.2500 Du        
  32925 ****         4.7500 -24.0000 -14.0000 Du        
  32926 ****         4.7500 -24.0000 -13.7500 Du        
  32927 ****         4.7500 -24.0000 -13.5000 Du        
  32928 ****         4.7500 -24.0000 -13.2500 Du        
  32929 ****         4.7500 -24.0000 -13.0000 Du        
  32930 ****         4.7500 -24.0000 -12.7500 Du        
  32931 ****         4.7500 -24.0000 -12.5000 Du        
  32932 ****         4.7500 -23.7500 -14.7500 Du        
  32933 ****         4.7500 -23.7500 -14.5000 Du        
  32934 ****         4.7500 -23.7500 -14.2500 Du        
  32935 ****         4.7500 -23.7500 -14.0000 Du        
  32936 ****         4.7500 -23.7500 -13.7500 Du        
  32937 ****         4.7500 -23.7500 -13.5000 Du        
  32938 ****         4.7500 -23.7500 -13.2500 Du        
  32939 ****         4.7500 -23.7500 -13.0000 Du        
  32940 ****         4.7500 -23.7500 -12.7500 Du        
  32941 ****         4.7500 -23.5000 -14.7500 Du        
  32942 ****         4.7500 -23.5000 -14.5000 Du        
  32943 ****         4.7500 -23.5000 -14.2500 Du        
  32944 ****         4.7500 -23.5000 -14.0000 Du        
  32945 ****         4.7500 -23.5000 -13.7500 Du        
  32946 ****         4.7500 -23.5000 -13.5000 Du        
  32947 ****         4.7500 -23.5000 -13.2500 Du        
  32948 ****         4.7500 -23.5000 -13.0000 Du        
  32949 ****         4.7500 -23.2500 -14.7500 Du        
  32950 ****         4.7500 -23.2500 -14.5000 Du        
  32951 ****         4.7500 -23.2500 -14.2500 Du        
  32952 ****         4.7500 -23.2500 -14.0000 Du        
  32953 ****         4.7500 -23.2500 -13.7500 Du        
  32954 ****         4.7500 -23.2500 -13.5000 Du        
  32955 ****         4.7500 -23.2500 -13.2500 Du        
  32956 ****         4.7500 -23.2500 -13.0000 Du        
  32957 ****         4.7500 -23.0000 -14.7500 Du        
  32958 ****         4.7500 -23.0000 -14.5000 Du        
  32959 ****         4.7500 -23.0000 -14.2500 Du        
  32960 ****         4.7500 -23.0000 -14.0000 Du        
  32961 ****         4.7500 -23.0000 -13.7500 Du        
  32962 ****         4.7500 -23.0000 -13.5000 Du        
  32963 ****         4.7500 -23.0000 -13.2500 Du        
  32964 ****         4.7500 -22.7500 -14.7500 Du        
  32965 ****         4.7500 -22.7500 -14.5000 Du        
  32966 ****         4.7500 -22.7500 -14.2500 Du        
  32967 ****         4.7500 -22.7500 -14.0000 Du        
  32968 ****         4.7500 -22.7500 -13.7500 Du        
  32969 ****         4.7500 -22.7500 -13.5000 Du        
  32970 ****         4.7500 -22.5000 -14.7500 Du        
  32971 ****         4.7500 -22.5000 -14.5000 Du        
  32972 ****         4.7500 -22.5000 -14.2500 Du        
  32973 ****         4.7500 -22.5000 -14.0000 Du        
  32974 ****         4.7500 -22.5000 -13.7500 Du        
  32975 ****         4.7500 -22.2500 -15.0000 Du        
  32976 ****         4.7500 -22.2500 -14.7500 Du        
  32977 ****         4.7500 -22.2500 -14.5000 Du        
  32978 ****         4.7500 -22.2500 -14.2500 Du        
  32979 ****         4.7500 -22.2500 -14.0000 Du        
  32980 ****         4.7500 -22.2500 -13.7500 Du        
  32981 ****         4.7500 -22.0000 -15.0000 Du        
  32982 ****         4.7500 -22.0000 -14.7500 Du        
  32983 ****         4.7500 -22.0000 -14.5000 Du        
  32984 ****         4.7500 -22.0000 -14.2500 Du        
  32985 ****         4.7500 -22.0000 -14.0000 Du        
  32986 ****         4.7500 -22.0000 -13.7500 Du        
  32987 ****         4.7500 -21.7500 -15.0000 Du        
  32988 ****         4.7500 -21.7500 -14.7500 Du        
  32989 ****         4.7500 -21.7500 -14.5000 Du        
  32990 ****         4.7500 -21.7500 -14.2500 Du        
  32991 ****         4.7500 -21.7500 -14.0000 Du        
  32992 ****         4.7500 -21.5000 -15.0000 Du        
  32993 ****         4.7500 -21.5000 -14.7500 Du        
  32994 ****         4.7500 -21.5000 -14.5000 Du        
  32995 ****         4.7500 -21.5000 -14.2500 Du        
  32996 ****         4.7500 -21.5000 -14.0000 Du        
  32997 ****         4.7500 -21.2500 -15.0000 Du        
  32998 ****         4.7500 -21.2500 -14.7500 Du        
  32999 ****         4.7500 -21.2500 -14.5000 Du        
  33000 ****         4.7500 -21.2500 -14.2500 Du        
  33001 ****         4.7500 -21.2500 -14.0000 Du        
  33002 ****         4.7500 -21.0000 -15.2500 Du        
  33003 ****         4.7500 -21.0000 -15.0000 Du        
  33004 ****         4.7500 -21.0000 -14.7500 Du        
  33005 ****         4.7500 -21.0000 -14.5000 Du        
  33006 ****         4.7500 -21.0000 -14.2500 Du        
  33007 ****         4.7500 -20.7500 -15.2500 Du        
  33008 ****         4.7500 -20.7500 -15.0000 Du        
  33009 ****         4.7500 -20.7500 -14.7500 Du        
  33010 ****         4.7500 -20.7500 -14.5000 Du        
  33011 ****         4.7500 -20.7500 -14.2500 Du        
  33012 ****         4.7500 -20.5000 -15.5000 Du        
  33013 ****         4.7500 -20.5000 -15.2500 Du        
  33014 ****         4.7500 -20.5000 -15.0000 Du        
  33015 ****         4.7500 -20.5000 -14.7500 Du        
  33016 ****         4.7500 -20.5000 -14.5000 Du        
  33017 ****         4.7500 -20.2500 -15.7500 Du        
  33018 ****         4.7500 -20.2500 -15.5000 Du        
  33019 ****         4.7500 -20.2500 -15.2500 Du        
  33020 ****         4.7500 -20.2500 -15.0000 Du        
  33021 ****         4.7500 -20.2500 -14.7500 Du        
  33022 ****         4.7500 -20.2500 -14.5000 Du        
  33023 ****         4.7500 -20.0000 -15.7500 Du        
  33024 ****         4.7500 -20.0000 -15.5000 Du        
  33025 ****         4.7500 -20.0000 -15.2500 Du        
  33026 ****         4.7500 -20.0000 -15.0000 Du        
  33027 ****         4.7500 -20.0000 -14.7500 Du        
  33028 ****         4.7500 -20.0000 -14.5000 Du        
  33029 ****         4.7500 -19.7500 -15.7500 Du        
  33030 ****         4.7500 -19.7500 -15.5000 Du        
  33031 ****         4.7500 -19.7500 -15.2500 Du        
  33032 ****         4.7500 -19.7500 -15.0000 Du        
  33033 ****         4.7500 -19.7500 -14.7500 Du        
  33034 ****         4.7500 -19.5000 -16.0000 Du        
  33035 ****         4.7500 -19.5000 -15.7500 Du        
  33036 ****         4.7500 -19.5000 -15.5000 Du        
  33037 ****         4.7500 -19.5000 -15.2500 Du        
  33038 ****         4.7500 -19.5000 -15.0000 Du        
  33039 ****         4.7500 -19.2500 -16.2500 Du        
  33040 ****         4.7500 -19.2500 -16.0000 Du        
  33041 ****         4.7500 -19.2500 -15.7500 Du        
  33042 ****         4.7500 -19.2500 -15.5000 Du        
  33043 ****         4.7500 -19.2500 -15.2500 Du        
  33044 ****         4.7500 -19.2500 -15.0000 Du        
  33045 ****         4.7500 -19.0000 -16.2500 Du        
  33046 ****         4.7500 -19.0000 -16.0000 Du        
  33047 ****         4.7500 -19.0000 -15.7500 Du        
  33048 ****         4.7500 -19.0000 -15.5000 Du        
  33049 ****         4.7500 -18.7500 -16.5000 Du        
  33050 ****         4.7500 -18.7500 -16.2500 Du        
  33051 ****         4.7500 -18.7500 -16.0000 Du        
  33052 ****         4.7500 -18.5000 -16.7500 Du        
  33053 ****         4.7500 -18.5000 -16.5000 Du        
  33054 ****         4.7500 -18.5000 -16.2500 Du        
  33055 ****         4.7500 -17.7500 -20.5000 Du        
  33056 ****         4.7500 -17.7500 -20.2500 Du        
  33057 ****         4.7500 -17.7500 -20.0000 Du        
  33058 ****         4.7500 -17.7500 -19.7500 Du        
  33059 ****         4.7500 -17.7500 -19.5000 Du        
  33060 ****         4.7500 -17.7500 -19.2500 Du        
  33061 ****         4.7500 -17.7500 -19.0000 Du        
  33062 ****         4.7500 -17.7500 -18.7500 Du        
  33063 ****         4.7500 -17.7500 -18.5000 Du        
  33064 ****         4.7500 -17.7500 -18.2500 Du        
  33065 ****         4.7500 -17.7500 -18.0000 Du        
  33066 ****         4.7500 -17.7500 -17.7500 Du        
  33067 ****         4.7500 -17.5000 -20.2500 Du        
  33068 ****         4.7500 -17.5000 -20.0000 Du        
  33069 ****         4.7500 -17.5000 -19.7500 Du        
  33070 ****         4.7500 -17.5000 -19.2500 Du        
  33071 ****         4.7500 -17.5000 -19.0000 Du        
  33072 ****         4.7500 -17.5000 -18.7500 Du        
  33073 ****         4.7500 -17.5000 -18.5000 Du        
  33074 ****         4.7500 -17.5000 -18.2500 Du        
  33075 ****         4.7500 -17.2500 -20.0000 Du        
  33076 ****         4.7500 -17.2500 -19.7500 Du        
  33077 ****         4.7500 -17.2500 -19.2500 Du        
  33078 ****         4.7500 -17.2500 -19.0000 Du        
  33079 ****         4.7500 -17.2500 -18.7500 Du        
  33080 ****         4.7500 -17.2500 -18.5000 Du        
  33081 ****         4.7500 -17.2500 -18.2500 Du        
  33082 ****         4.7500 -17.0000 -19.7500 Du        
  33083 ****         4.7500 -17.0000 -19.2500 Du        
  33084 ****         4.7500 -17.0000 -19.0000 Du        
  33085 ****         4.7500 -17.0000 -18.7500 Du        
  33086 ****         4.7500 -17.0000 -18.5000 Du        
  33087 ****         4.7500 -16.7500 -19.2500 Du        
  33088 ****         4.7500 -16.7500 -19.0000 Du        
  33089 ****         4.7500 -16.7500 -18.7500 Du        
  33090 ****         4.7500 -16.5000 -19.2500 Du        
  33091 ****         4.7500 -16.5000 -19.0000 Du        
  33092 ****         4.7500 -16.5000 -18.7500 Du        
  33093 ****         4.7500 -16.2500 -19.0000 Du        
  33094 ****         4.7500 -16.0000 -19.0000 Du        
  33095 ****         4.7500 -15.7500 -19.2500 Du        
  33096 ****         4.7500 -15.0000 -19.7500 Du        
  33097 ****         4.7500 -15.0000 -19.5000 Du        
  33098 ****         4.7500 -15.0000 -19.2500 Du        
  33099 ****         4.7500 -14.7500 -19.7500 Du        
  33100 ****         4.7500 -14.7500 -19.5000 Du        
  33101 ****         4.7500 -14.5000 -19.7500 Du        
  33102 ****         4.7500 -13.2500 -19.0000 Du        
  33103 ****         4.7500 -13.0000 -19.0000 Du        
  33104 ****         4.7500 -12.7500 -19.0000 Du        
  33105 ****         4.7500 -12.0000 -19.0000 Du        
  33106 ****         5.0000 -25.0000 -13.5000 Du        
  33107 ****         5.0000 -25.0000 -13.2500 Du        
  33108 ****         5.0000 -24.7500 -13.7500 Du        
  33109 ****         5.0000 -24.7500 -13.5000 Du        
  33110 ****         5.0000 -24.7500 -13.2500 Du        
  33111 ****         5.0000 -24.7500 -13.0000 Du        
  33112 ****         5.0000 -24.7500 -12.7500 Du        
  33113 ****         5.0000 -24.5000 -13.7500 Du        
  33114 ****         5.0000 -24.5000 -13.5000 Du        
  33115 ****         5.0000 -24.5000 -13.2500 Du        
  33116 ****         5.0000 -24.5000 -13.0000 Du        
  33117 ****         5.0000 -24.5000 -12.7500 Du        
  33118 ****         5.0000 -24.5000 -12.5000 Du        
  33119 ****         5.0000 -24.2500 -14.0000 Du        
  33120 ****         5.0000 -24.2500 -13.7500 Du        
  33121 ****         5.0000 -24.2500 -13.5000 Du        
  33122 ****         5.0000 -24.2500 -13.2500 Du        
  33123 ****         5.0000 -24.2500 -13.0000 Du        
  33124 ****         5.0000 -24.2500 -12.7500 Du        
  33125 ****         5.0000 -24.2500 -12.5000 Du        
  33126 ****         5.0000 -24.2500 -12.2500 Du        
  33127 ****         5.0000 -24.0000 -14.2500 Du        
  33128 ****         5.0000 -24.0000 -14.0000 Du        
  33129 ****         5.0000 -24.0000 -13.7500 Du        
  33130 ****         5.0000 -24.0000 -13.5000 Du        
  33131 ****         5.0000 -24.0000 -13.2500 Du        
  33132 ****         5.0000 -24.0000 -13.0000 Du        
  33133 ****         5.0000 -24.0000 -12.7500 Du        
  33134 ****         5.0000 -24.0000 -12.5000 Du        
  33135 ****         5.0000 -24.0000 -12.2500 Du        
  33136 ****         5.0000 -23.7500 -14.5000 Du        
  33137 ****         5.0000 -23.7500 -14.2500 Du        
  33138 ****         5.0000 -23.7500 -14.0000 Du        
  33139 ****         5.0000 -23.7500 -13.7500 Du        
  33140 ****         5.0000 -23.7500 -13.5000 Du        
  33141 ****         5.0000 -23.7500 -13.2500 Du        
  33142 ****         5.0000 -23.7500 -13.0000 Du        
  33143 ****         5.0000 -23.7500 -12.7500 Du        
  33144 ****         5.0000 -23.7500 -12.5000 Du        
  33145 ****         5.0000 -23.7500 -12.2500 Du        
  33146 ****         5.0000 -23.5000 -14.5000 Du        
  33147 ****         5.0000 -23.5000 -14.2500 Du        
  33148 ****         5.0000 -23.5000 -14.0000 Du        
  33149 ****         5.0000 -23.5000 -13.7500 Du        
  33150 ****         5.0000 -23.5000 -13.5000 Du        
  33151 ****         5.0000 -23.5000 -13.2500 Du        
  33152 ****         5.0000 -23.5000 -13.0000 Du        
  33153 ****         5.0000 -23.5000 -12.7500 Du        
  33154 ****         5.0000 -23.5000 -12.5000 Du        
  33155 ****         5.0000 -23.2500 -14.7500 Du        
  33156 ****         5.0000 -23.2500 -14.5000 Du        
  33157 ****         5.0000 -23.2500 -14.2500 Du        
  33158 ****         5.0000 -23.2500 -14.0000 Du        
  33159 ****         5.0000 -23.2500 -13.7500 Du        
  33160 ****         5.0000 -23.2500 -13.5000 Du        
  33161 ****         5.0000 -23.2500 -13.2500 Du        
  33162 ****         5.0000 -23.2500 -13.0000 Du        
  33163 ****         5.0000 -23.2500 -12.7500 Du        
  33164 ****         5.0000 -23.0000 -14.7500 Du        
  33165 ****         5.0000 -23.0000 -14.5000 Du        
  33166 ****         5.0000 -23.0000 -14.2500 Du        
  33167 ****         5.0000 -23.0000 -14.0000 Du        
  33168 ****         5.0000 -23.0000 -13.7500 Du        
  33169 ****         5.0000 -23.0000 -13.5000 Du        
  33170 ****         5.0000 -23.0000 -13.2500 Du        
  33171 ****         5.0000 -23.0000 -13.0000 Du        
  33172 ****         5.0000 -22.7500 -14.7500 Du        
  33173 ****         5.0000 -22.7500 -14.5000 Du        
  33174 ****         5.0000 -22.7500 -14.2500 Du        
  33175 ****         5.0000 -22.7500 -14.0000 Du        
  33176 ****         5.0000 -22.7500 -13.7500 Du        
  33177 ****         5.0000 -22.7500 -13.5000 Du        
  33178 ****         5.0000 -22.7500 -13.2500 Du        
  33179 ****         5.0000 -22.7500 -13.0000 Du        
  33180 ****         5.0000 -22.5000 -15.0000 Du        
  33181 ****         5.0000 -22.5000 -14.7500 Du        
  33182 ****         5.0000 -22.5000 -14.5000 Du        
  33183 ****         5.0000 -22.5000 -14.2500 Du        
  33184 ****         5.0000 -22.5000 -14.0000 Du        
  33185 ****         5.0000 -22.5000 -13.7500 Du        
  33186 ****         5.0000 -22.5000 -13.5000 Du        
  33187 ****         5.0000 -22.5000 -13.2500 Du        
  33188 ****         5.0000 -22.2500 -15.0000 Du        
  33189 ****         5.0000 -22.2500 -14.7500 Du        
  33190 ****         5.0000 -22.2500 -14.5000 Du        
  33191 ****         5.0000 -22.2500 -14.2500 Du        
  33192 ****         5.0000 -22.2500 -14.0000 Du        
  33193 ****         5.0000 -22.2500 -13.7500 Du        
  33194 ****         5.0000 -22.2500 -13.5000 Du        
  33195 ****         5.0000 -22.2500 -13.2500 Du        
  33196 ****         5.0000 -22.0000 -15.0000 Du        
  33197 ****         5.0000 -22.0000 -14.7500 Du        
  33198 ****         5.0000 -22.0000 -14.5000 Du        
  33199 ****         5.0000 -22.0000 -14.2500 Du        
  33200 ****         5.0000 -22.0000 -14.0000 Du        
  33201 ****         5.0000 -22.0000 -13.7500 Du        
  33202 ****         5.0000 -22.0000 -13.5000 Du        
  33203 ****         5.0000 -21.7500 -15.2500 Du        
  33204 ****         5.0000 -21.7500 -15.0000 Du        
  33205 ****         5.0000 -21.7500 -14.7500 Du        
  33206 ****         5.0000 -21.7500 -14.5000 Du        
  33207 ****         5.0000 -21.7500 -14.2500 Du        
  33208 ****         5.0000 -21.7500 -14.0000 Du        
  33209 ****         5.0000 -21.7500 -13.7500 Du        
  33210 ****         5.0000 -21.7500 -13.5000 Du        
  33211 ****         5.0000 -21.5000 -15.0000 Du        
  33212 ****         5.0000 -21.5000 -14.7500 Du        
  33213 ****         5.0000 -21.5000 -14.5000 Du        
  33214 ****         5.0000 -21.5000 -14.2500 Du        
  33215 ****         5.0000 -21.5000 -14.0000 Du        
  33216 ****         5.0000 -21.5000 -13.7500 Du        
  33217 ****         5.0000 -21.2500 -15.2500 Du        
  33218 ****         5.0000 -21.2500 -15.0000 Du        
  33219 ****         5.0000 -21.2500 -14.7500 Du        
  33220 ****         5.0000 -21.2500 -14.5000 Du        
  33221 ****         5.0000 -21.2500 -14.2500 Du        
  33222 ****         5.0000 -21.2500 -14.0000 Du        
  33223 ****         5.0000 -21.2500 -13.7500 Du        
  33224 ****         5.0000 -21.0000 -15.5000 Du        
  33225 ****         5.0000 -21.0000 -15.2500 Du        
  33226 ****         5.0000 -21.0000 -15.0000 Du        
  33227 ****         5.0000 -21.0000 -14.7500 Du        
  33228 ****         5.0000 -21.0000 -14.5000 Du        
  33229 ****         5.0000 -21.0000 -14.2500 Du        
  33230 ****         5.0000 -21.0000 -14.0000 Du        
  33231 ****         5.0000 -20.7500 -15.5000 Du        
  33232 ****         5.0000 -20.7500 -15.2500 Du        
  33233 ****         5.0000 -20.7500 -15.0000 Du        
  33234 ****         5.0000 -20.7500 -14.7500 Du        
  33235 ****         5.0000 -20.7500 -14.5000 Du        
  33236 ****         5.0000 -20.7500 -14.2500 Du        
  33237 ****         5.0000 -20.5000 -15.5000 Du        
  33238 ****         5.0000 -20.5000 -15.2500 Du        
  33239 ****         5.0000 -20.5000 -15.0000 Du        
  33240 ****         5.0000 -20.5000 -14.7500 Du        
  33241 ****         5.0000 -20.5000 -14.5000 Du        
  33242 ****         5.0000 -20.5000 -14.2500 Du        
  33243 ****         5.0000 -20.2500 -15.7500 Du        
  33244 ****         5.0000 -20.2500 -15.5000 Du        
  33245 ****         5.0000 -20.2500 -15.2500 Du        
  33246 ****         5.0000 -20.2500 -15.0000 Du        
  33247 ****         5.0000 -20.2500 -14.7500 Du        
  33248 ****         5.0000 -20.2500 -14.5000 Du        
  33249 ****         5.0000 -20.0000 -15.7500 Du        
  33250 ****         5.0000 -20.0000 -15.5000 Du        
  33251 ****         5.0000 -20.0000 -15.2500 Du        
  33252 ****         5.0000 -20.0000 -15.0000 Du        
  33253 ****         5.0000 -20.0000 -14.7500 Du        
  33254 ****         5.0000 -20.0000 -14.5000 Du        
  33255 ****         5.0000 -19.7500 -16.0000 Du        
  33256 ****         5.0000 -19.7500 -15.7500 Du        
  33257 ****         5.0000 -19.7500 -15.5000 Du        
  33258 ****         5.0000 -19.7500 -15.2500 Du        
  33259 ****         5.0000 -19.7500 -15.0000 Du        
  33260 ****         5.0000 -19.7500 -14.7500 Du        
  33261 ****         5.0000 -19.7500 -14.5000 Du        
  33262 ****         5.0000 -19.5000 -16.0000 Du        
  33263 ****         5.0000 -19.5000 -15.7500 Du        
  33264 ****         5.0000 -19.5000 -15.5000 Du        
  33265 ****         5.0000 -19.5000 -15.2500 Du        
  33266 ****         5.0000 -19.5000 -15.0000 Du        
  33267 ****         5.0000 -19.5000 -14.7500 Du        
  33268 ****         5.0000 -19.2500 -16.2500 Du        
  33269 ****         5.0000 -19.2500 -16.0000 Du        
  33270 ****         5.0000 -19.2500 -15.7500 Du        
  33271 ****         5.0000 -19.2500 -15.5000 Du        
  33272 ****         5.0000 -19.2500 -15.2500 Du        
  33273 ****         5.0000 -19.2500 -15.0000 Du        
  33274 ****         5.0000 -19.0000 -16.5000 Du        
  33275 ****         5.0000 -19.0000 -16.2500 Du        
  33276 ****         5.0000 -19.0000 -16.0000 Du        
  33277 ****         5.0000 -19.0000 -15.7500 Du        
  33278 ****         5.0000 -19.0000 -15.5000 Du        
  33279 ****         5.0000 -19.0000 -15.2500 Du        
  33280 ****         5.0000 -18.7500 -16.7500 Du        
  33281 ****         5.0000 -18.7500 -16.5000 Du        
  33282 ****         5.0000 -18.7500 -16.2500 Du        
  33283 ****         5.0000 -18.7500 -16.0000 Du        
  33284 ****         5.0000 -18.7500 -15.7500 Du        
  33285 ****         5.0000 -18.5000 -16.7500 Du        
  33286 ****         5.0000 -18.5000 -16.5000 Du        
  33287 ****         5.0000 -18.5000 -16.2500 Du        
  33288 ****         5.0000 -18.5000 -16.0000 Du        
  33289 ****         5.0000 -18.2500 -17.0000 Du        
  33290 ****         5.0000 -18.2500 -16.7500 Du        
  33291 ****         5.0000 -18.2500 -16.5000 Du        
  33292 ****         5.0000 -18.0000 -18.0000 Du        
  33293 ****         5.0000 -18.0000 -17.7500 Du        
  33294 ****         5.0000 -18.0000 -17.2500 Du        
  33295 ****         5.0000 -18.0000 -17.0000 Du        
  33296 ****         5.0000 -17.7500 -19.0000 Du        
  33297 ****         5.0000 -17.7500 -18.7500 Du        
  33298 ****         5.0000 -17.7500 -18.2500 Du        
  33299 ****         5.0000 -17.7500 -18.0000 Du        
  33300 ****         5.0000 -17.7500 -17.7500 Du        
  33301 ****         5.0000 -17.5000 -18.2500 Du        
  33302 ****         5.0000 -17.5000 -18.0000 Du        
  33303 ****         5.0000 -17.2500 -18.7500 Du        
  33304 ****         5.0000 -17.2500 -18.5000 Du        
  33305 ****         5.0000 -17.2500 -18.2500 Du        
  33306 ****         5.0000 -17.2500 -18.0000 Du        
  33307 ****         5.0000 -17.0000 -18.7500 Du        
  33308 ****         5.0000 -17.0000 -18.5000 Du        
  33309 ****         5.0000 -17.0000 -18.2500 Du        
  33310 ****         5.0000 -16.5000 -18.7500 Du        
  33311 ****         5.0000 -13.2500 -19.0000 Du        
  33312 ****         5.0000 -13.0000 -19.2500 Du        
  33313 ****         5.0000 -13.0000 -19.0000 Du        
  33314 ****         5.0000 -12.7500 -19.5000 Du        
  33315 ****         5.0000 -12.7500 -19.2500 Du        
  33316 ****         5.0000 -12.7500 -19.0000 Du        
  33317 ****         5.2500 -24.7500 -13.5000 Du        
  33318 ****         5.2500 -24.7500 -13.2500 Du        
  33319 ****         5.2500 -24.7500 -13.0000 Du        
  33320 ****         5.2500 -24.7500 -12.7500 Du        
  33321 ****         5.2500 -24.5000 -13.5000 Du        
  33322 ****         5.2500 -24.5000 -13.2500 Du        
  33323 ****         5.2500 -24.5000 -13.0000 Du        
  33324 ****         5.2500 -24.5000 -12.7500 Du        
  33325 ****         5.2500 -24.5000 -12.5000 Du        
  33326 ****         5.2500 -24.2500 -13.7500 Du        
  33327 ****         5.2500 -24.2500 -13.5000 Du        
  33328 ****         5.2500 -24.2500 -13.2500 Du        
  33329 ****         5.2500 -24.2500 -13.0000 Du        
  33330 ****         5.2500 -24.2500 -12.7500 Du        
  33331 ****         5.2500 -24.2500 -12.5000 Du        
  33332 ****         5.2500 -24.2500 -12.2500 Du        
  33333 ****         5.2500 -24.2500 -12.0000 Du        
  33334 ****         5.2500 -24.0000 -14.0000 Du        
  33335 ****         5.2500 -24.0000 -13.7500 Du        
  33336 ****         5.2500 -24.0000 -13.5000 Du        
  33337 ****         5.2500 -24.0000 -13.2500 Du        
  33338 ****         5.2500 -24.0000 -13.0000 Du        
  33339 ****         5.2500 -24.0000 -12.7500 Du        
  33340 ****         5.2500 -24.0000 -12.5000 Du        
  33341 ****         5.2500 -24.0000 -12.2500 Du        
  33342 ****         5.2500 -24.0000 -12.0000 Du        
  33343 ****         5.2500 -23.7500 -14.2500 Du        
  33344 ****         5.2500 -23.7500 -14.0000 Du        
  33345 ****         5.2500 -23.7500 -13.7500 Du        
  33346 ****         5.2500 -23.7500 -13.5000 Du        
  33347 ****         5.2500 -23.7500 -13.2500 Du        
  33348 ****         5.2500 -23.7500 -13.0000 Du        
  33349 ****         5.2500 -23.7500 -12.7500 Du        
  33350 ****         5.2500 -23.7500 -12.5000 Du        
  33351 ****         5.2500 -23.7500 -12.2500 Du        
  33352 ****         5.2500 -23.7500 -12.0000 Du        
  33353 ****         5.2500 -23.5000 -14.5000 Du        
  33354 ****         5.2500 -23.5000 -14.2500 Du        
  33355 ****         5.2500 -23.5000 -14.0000 Du        
  33356 ****         5.2500 -23.5000 -13.7500 Du        
  33357 ****         5.2500 -23.5000 -13.5000 Du        
  33358 ****         5.2500 -23.5000 -13.2500 Du        
  33359 ****         5.2500 -23.5000 -13.0000 Du        
  33360 ****         5.2500 -23.5000 -12.7500 Du        
  33361 ****         5.2500 -23.5000 -12.5000 Du        
  33362 ****         5.2500 -23.5000 -12.2500 Du        
  33363 ****         5.2500 -23.5000 -12.0000 Du        
  33364 ****         5.2500 -23.2500 -14.7500 Du        
  33365 ****         5.2500 -23.2500 -14.5000 Du        
  33366 ****         5.2500 -23.2500 -14.2500 Du        
  33367 ****         5.2500 -23.2500 -14.0000 Du        
  33368 ****         5.2500 -23.2500 -13.7500 Du        
  33369 ****         5.2500 -23.2500 -13.5000 Du        
  33370 ****         5.2500 -23.2500 -13.2500 Du        
  33371 ****         5.2500 -23.2500 -13.0000 Du        
  33372 ****         5.2500 -23.2500 -12.7500 Du        
  33373 ****         5.2500 -23.2500 -12.5000 Du        
  33374 ****         5.2500 -23.2500 -12.2500 Du        
  33375 ****         5.2500 -23.0000 -14.7500 Du        
  33376 ****         5.2500 -23.0000 -14.5000 Du        
  33377 ****         5.2500 -23.0000 -14.2500 Du        
  33378 ****         5.2500 -23.0000 -14.0000 Du        
  33379 ****         5.2500 -23.0000 -13.7500 Du        
  33380 ****         5.2500 -23.0000 -13.5000 Du        
  33381 ****         5.2500 -23.0000 -13.2500 Du        
  33382 ****         5.2500 -23.0000 -13.0000 Du        
  33383 ****         5.2500 -23.0000 -12.7500 Du        
  33384 ****         5.2500 -23.0000 -12.5000 Du        
  33385 ****         5.2500 -22.7500 -14.7500 Du        
  33386 ****         5.2500 -22.7500 -14.5000 Du        
  33387 ****         5.2500 -22.7500 -14.2500 Du        
  33388 ****         5.2500 -22.7500 -14.0000 Du        
  33389 ****         5.2500 -22.7500 -13.7500 Du        
  33390 ****         5.2500 -22.7500 -13.5000 Du        
  33391 ****         5.2500 -22.7500 -13.2500 Du        
  33392 ****         5.2500 -22.7500 -13.0000 Du        
  33393 ****         5.2500 -22.7500 -12.7500 Du        
  33394 ****         5.2500 -22.5000 -15.0000 Du        
  33395 ****         5.2500 -22.5000 -14.7500 Du        
  33396 ****         5.2500 -22.5000 -14.5000 Du        
  33397 ****         5.2500 -22.5000 -14.2500 Du        
  33398 ****         5.2500 -22.5000 -14.0000 Du        
  33399 ****         5.2500 -22.5000 -13.7500 Du        
  33400 ****         5.2500 -22.5000 -13.5000 Du        
  33401 ****         5.2500 -22.5000 -13.2500 Du        
  33402 ****         5.2500 -22.5000 -13.0000 Du        
  33403 ****         5.2500 -22.2500 -15.0000 Du        
  33404 ****         5.2500 -22.2500 -14.7500 Du        
  33405 ****         5.2500 -22.2500 -14.5000 Du        
  33406 ****         5.2500 -22.2500 -14.2500 Du        
  33407 ****         5.2500 -22.2500 -14.0000 Du        
  33408 ****         5.2500 -22.2500 -13.7500 Du        
  33409 ****         5.2500 -22.2500 -13.5000 Du        
  33410 ****         5.2500 -22.2500 -13.2500 Du        
  33411 ****         5.2500 -22.2500 -13.0000 Du        
  33412 ****         5.2500 -22.0000 -15.0000 Du        
  33413 ****         5.2500 -22.0000 -14.7500 Du        
  33414 ****         5.2500 -22.0000 -14.5000 Du        
  33415 ****         5.2500 -22.0000 -14.2500 Du        
  33416 ****         5.2500 -22.0000 -14.0000 Du        
  33417 ****         5.2500 -22.0000 -13.7500 Du        
  33418 ****         5.2500 -22.0000 -13.5000 Du        
  33419 ****         5.2500 -22.0000 -13.2500 Du        
  33420 ****         5.2500 -21.7500 -15.0000 Du        
  33421 ****         5.2500 -21.7500 -14.7500 Du        
  33422 ****         5.2500 -21.7500 -14.5000 Du        
  33423 ****         5.2500 -21.7500 -14.2500 Du        
  33424 ****         5.2500 -21.7500 -14.0000 Du        
  33425 ****         5.2500 -21.7500 -13.7500 Du        
  33426 ****         5.2500 -21.7500 -13.5000 Du        
  33427 ****         5.2500 -21.7500 -13.2500 Du        
  33428 ****         5.2500 -21.5000 -15.2500 Du        
  33429 ****         5.2500 -21.5000 -15.0000 Du        
  33430 ****         5.2500 -21.5000 -14.7500 Du        
  33431 ****         5.2500 -21.5000 -14.5000 Du        
  33432 ****         5.2500 -21.5000 -14.2500 Du        
  33433 ****         5.2500 -21.5000 -14.0000 Du        
  33434 ****         5.2500 -21.5000 -13.7500 Du        
  33435 ****         5.2500 -21.5000 -13.5000 Du        
  33436 ****         5.2500 -21.2500 -15.2500 Du        
  33437 ****         5.2500 -21.2500 -15.0000 Du        
  33438 ****         5.2500 -21.2500 -14.7500 Du        
  33439 ****         5.2500 -21.2500 -14.5000 Du        
  33440 ****         5.2500 -21.2500 -14.2500 Du        
  33441 ****         5.2500 -21.2500 -14.0000 Du        
  33442 ****         5.2500 -21.2500 -13.7500 Du        
  33443 ****         5.2500 -21.0000 -15.5000 Du        
  33444 ****         5.2500 -21.0000 -15.2500 Du        
  33445 ****         5.2500 -21.0000 -15.0000 Du        
  33446 ****         5.2500 -21.0000 -14.7500 Du        
  33447 ****         5.2500 -21.0000 -14.5000 Du        
  33448 ****         5.2500 -21.0000 -14.2500 Du        
  33449 ****         5.2500 -21.0000 -14.0000 Du        
  33450 ****         5.2500 -20.7500 -15.5000 Du        
  33451 ****         5.2500 -20.7500 -15.2500 Du        
  33452 ****         5.2500 -20.7500 -15.0000 Du        
  33453 ****         5.2500 -20.7500 -14.7500 Du        
  33454 ****         5.2500 -20.7500 -14.5000 Du        
  33455 ****         5.2500 -20.7500 -14.2500 Du        
  33456 ****         5.2500 -20.7500 -14.0000 Du        
  33457 ****         5.2500 -20.5000 -15.7500 Du        
  33458 ****         5.2500 -20.5000 -15.5000 Du        
  33459 ****         5.2500 -20.5000 -15.2500 Du        
  33460 ****         5.2500 -20.5000 -15.0000 Du        
  33461 ****         5.2500 -20.5000 -14.7500 Du        
  33462 ****         5.2500 -20.5000 -14.5000 Du        
  33463 ****         5.2500 -20.5000 -14.2500 Du        
  33464 ****         5.2500 -20.2500 -15.7500 Du        
  33465 ****         5.2500 -20.2500 -15.5000 Du        
  33466 ****         5.2500 -20.2500 -15.2500 Du        
  33467 ****         5.2500 -20.2500 -15.0000 Du        
  33468 ****         5.2500 -20.2500 -14.7500 Du        
  33469 ****         5.2500 -20.2500 -14.5000 Du        
  33470 ****         5.2500 -20.2500 -14.2500 Du        
  33471 ****         5.2500 -20.0000 -16.0000 Du        
  33472 ****         5.2500 -20.0000 -15.7500 Du        
  33473 ****         5.2500 -20.0000 -15.5000 Du        
  33474 ****         5.2500 -20.0000 -15.2500 Du        
  33475 ****         5.2500 -20.0000 -15.0000 Du        
  33476 ****         5.2500 -20.0000 -14.7500 Du        
  33477 ****         5.2500 -20.0000 -14.5000 Du        
  33478 ****         5.2500 -19.7500 -16.0000 Du        
  33479 ****         5.2500 -19.7500 -15.7500 Du        
  33480 ****         5.2500 -19.7500 -15.5000 Du        
  33481 ****         5.2500 -19.7500 -15.2500 Du        
  33482 ****         5.2500 -19.7500 -15.0000 Du        
  33483 ****         5.2500 -19.7500 -14.7500 Du        
  33484 ****         5.2500 -19.7500 -14.5000 Du        
  33485 ****         5.2500 -19.5000 -16.2500 Du        
  33486 ****         5.2500 -19.5000 -16.0000 Du        
  33487 ****         5.2500 -19.5000 -15.7500 Du        
  33488 ****         5.2500 -19.5000 -15.5000 Du        
  33489 ****         5.2500 -19.5000 -15.2500 Du        
  33490 ****         5.2500 -19.5000 -15.0000 Du        
  33491 ****         5.2500 -19.5000 -14.7500 Du        
  33492 ****         5.2500 -19.2500 -16.2500 Du        
  33493 ****         5.2500 -19.2500 -16.0000 Du        
  33494 ****         5.2500 -19.2500 -15.7500 Du        
  33495 ****         5.2500 -19.2500 -15.5000 Du        
  33496 ****         5.2500 -19.2500 -15.2500 Du        
  33497 ****         5.2500 -19.2500 -15.0000 Du        
  33498 ****         5.2500 -19.0000 -16.7500 Du        
  33499 ****         5.2500 -19.0000 -16.5000 Du        
  33500 ****         5.2500 -19.0000 -16.2500 Du        
  33501 ****         5.2500 -19.0000 -16.0000 Du        
  33502 ****         5.2500 -19.0000 -15.7500 Du        
  33503 ****         5.2500 -19.0000 -15.5000 Du        
  33504 ****         5.2500 -19.0000 -15.2500 Du        
  33505 ****         5.2500 -18.7500 -16.7500 Du        
  33506 ****         5.2500 -18.7500 -16.5000 Du        
  33507 ****         5.2500 -18.7500 -16.2500 Du        
  33508 ****         5.2500 -18.7500 -16.0000 Du        
  33509 ****         5.2500 -18.7500 -15.7500 Du        
  33510 ****         5.2500 -18.7500 -15.5000 Du        
  33511 ****         5.2500 -18.5000 -17.0000 Du        
  33512 ****         5.2500 -18.5000 -16.7500 Du        
  33513 ****         5.2500 -18.5000 -16.5000 Du        
  33514 ****         5.2500 -18.5000 -16.2500 Du        
  33515 ****         5.2500 -18.5000 -16.0000 Du        
  33516 ****         5.2500 -18.2500 -17.2500 Du        
  33517 ****         5.2500 -18.2500 -17.0000 Du        
  33518 ****         5.2500 -18.2500 -16.7500 Du        
  33519 ****         5.2500 -18.2500 -16.5000 Du        
  33520 ****         5.2500 -18.2500 -16.2500 Du        
  33521 ****         5.2500 -18.0000 -17.7500 Du        
  33522 ****         5.2500 -18.0000 -17.5000 Du        
  33523 ****         5.2500 -18.0000 -17.2500 Du        
  33524 ****         5.2500 -18.0000 -17.0000 Du        
  33525 ****         5.2500 -18.0000 -16.7500 Du        
  33526 ****         5.2500 -17.7500 -18.0000 Du        
  33527 ****         5.2500 -17.7500 -17.7500 Du        
  33528 ****         5.2500 -17.7500 -17.5000 Du        
  33529 ****         5.2500 -17.7500 -17.2500 Du        
  33530 ****         5.2500 -17.5000 -17.7500 Du        
  33531 ****         5.2500 -17.2500 -18.2500 Du        
  33532 ****         5.2500 -17.2500 -17.7500 Du        
  33533 ****         5.2500 -17.0000 -18.2500 Du        
  33534 ****         5.2500 -12.7500 -20.0000 Du        
  33535 ****         5.5000 -24.7500 -13.2500 Du        
  33536 ****         5.5000 -24.7500 -13.0000 Du        
  33537 ****         5.5000 -24.7500 -12.7500 Du        
  33538 ****         5.5000 -24.5000 -13.5000 Du        
  33539 ****         5.5000 -24.5000 -13.2500 Du        
  33540 ****         5.5000 -24.5000 -13.0000 Du        
  33541 ****         5.5000 -24.5000 -12.7500 Du        
  33542 ****         5.5000 -24.5000 -12.5000 Du        
  33543 ****         5.5000 -24.5000 -12.2500 Du        
  33544 ****         5.5000 -24.2500 -13.5000 Du        
  33545 ****         5.5000 -24.2500 -13.2500 Du        
  33546 ****         5.5000 -24.2500 -13.0000 Du        
  33547 ****         5.5000 -24.2500 -12.7500 Du        
  33548 ****         5.5000 -24.2500 -12.5000 Du        
  33549 ****         5.5000 -24.2500 -12.2500 Du        
  33550 ****         5.5000 -24.2500 -12.0000 Du        
  33551 ****         5.5000 -24.0000 -13.7500 Du        
  33552 ****         5.5000 -24.0000 -13.5000 Du        
  33553 ****         5.5000 -24.0000 -13.2500 Du        
  33554 ****         5.5000 -24.0000 -13.0000 Du        
  33555 ****         5.5000 -24.0000 -12.7500 Du        
  33556 ****         5.5000 -24.0000 -12.5000 Du        
  33557 ****         5.5000 -24.0000 -12.2500 Du        
  33558 ****         5.5000 -24.0000 -12.0000 Du        
  33559 ****         5.5000 -24.0000 -11.7500 Du        
  33560 ****         5.5000 -23.7500 -14.2500 Du        
  33561 ****         5.5000 -23.7500 -14.0000 Du        
  33562 ****         5.5000 -23.7500 -13.7500 Du        
  33563 ****         5.5000 -23.7500 -13.5000 Du        
  33564 ****         5.5000 -23.7500 -13.2500 Du        
  33565 ****         5.5000 -23.7500 -13.0000 Du        
  33566 ****         5.5000 -23.7500 -12.7500 Du        
  33567 ****         5.5000 -23.7500 -12.5000 Du        
  33568 ****         5.5000 -23.7500 -12.2500 Du        
  33569 ****         5.5000 -23.7500 -12.0000 Du        
  33570 ****         5.5000 -23.7500 -11.7500 Du        
  33571 ****         5.5000 -23.5000 -14.2500 Du        
  33572 ****         5.5000 -23.5000 -14.0000 Du        
  33573 ****         5.5000 -23.5000 -13.7500 Du        
  33574 ****         5.5000 -23.5000 -13.5000 Du        
  33575 ****         5.5000 -23.5000 -13.2500 Du        
  33576 ****         5.5000 -23.5000 -13.0000 Du        
  33577 ****         5.5000 -23.5000 -12.7500 Du        
  33578 ****         5.5000 -23.5000 -12.5000 Du        
  33579 ****         5.5000 -23.5000 -12.2500 Du        
  33580 ****         5.5000 -23.5000 -12.0000 Du        
  33581 ****         5.5000 -23.2500 -14.5000 Du        
  33582 ****         5.5000 -23.2500 -14.2500 Du        
  33583 ****         5.5000 -23.2500 -14.0000 Du        
  33584 ****         5.5000 -23.2500 -13.7500 Du        
  33585 ****         5.5000 -23.2500 -13.5000 Du        
  33586 ****         5.5000 -23.2500 -13.2500 Du        
  33587 ****         5.5000 -23.2500 -13.0000 Du        
  33588 ****         5.5000 -23.2500 -12.7500 Du        
  33589 ****         5.5000 -23.2500 -12.5000 Du        
  33590 ****         5.5000 -23.2500 -12.2500 Du        
  33591 ****         5.5000 -23.2500 -12.0000 Du        
  33592 ****         5.5000 -23.0000 -14.7500 Du        
  33593 ****         5.5000 -23.0000 -14.5000 Du        
  33594 ****         5.5000 -23.0000 -14.2500 Du        
  33595 ****         5.5000 -23.0000 -14.0000 Du        
  33596 ****         5.5000 -23.0000 -13.7500 Du        
  33597 ****         5.5000 -23.0000 -13.5000 Du        
  33598 ****         5.5000 -23.0000 -13.2500 Du        
  33599 ****         5.5000 -23.0000 -13.0000 Du        
  33600 ****         5.5000 -23.0000 -12.7500 Du        
  33601 ****         5.5000 -23.0000 -12.5000 Du        
  33602 ****         5.5000 -23.0000 -12.2500 Du        
  33603 ****         5.5000 -22.7500 -15.0000 Du        
  33604 ****         5.5000 -22.7500 -14.7500 Du        
  33605 ****         5.5000 -22.7500 -14.5000 Du        
  33606 ****         5.5000 -22.7500 -14.2500 Du        
  33607 ****         5.5000 -22.7500 -14.0000 Du        
  33608 ****         5.5000 -22.7500 -13.7500 Du        
  33609 ****         5.5000 -22.7500 -13.5000 Du        
  33610 ****         5.5000 -22.7500 -13.2500 Du        
  33611 ****         5.5000 -22.7500 -13.0000 Du        
  33612 ****         5.5000 -22.7500 -12.7500 Du        
  33613 ****         5.5000 -22.7500 -12.5000 Du        
  33614 ****         5.5000 -22.5000 -15.0000 Du        
  33615 ****         5.5000 -22.5000 -14.7500 Du        
  33616 ****         5.5000 -22.5000 -14.5000 Du        
  33617 ****         5.5000 -22.5000 -14.2500 Du        
  33618 ****         5.5000 -22.5000 -14.0000 Du        
  33619 ****         5.5000 -22.5000 -13.7500 Du        
  33620 ****         5.5000 -22.5000 -13.5000 Du        
  33621 ****         5.5000 -22.5000 -13.2500 Du        
  33622 ****         5.5000 -22.5000 -13.0000 Du        
  33623 ****         5.5000 -22.5000 -12.7500 Du        
  33624 ****         5.5000 -22.2500 -15.0000 Du        
  33625 ****         5.5000 -22.2500 -14.7500 Du        
  33626 ****         5.5000 -22.2500 -14.5000 Du        
  33627 ****         5.5000 -22.2500 -14.2500 Du        
  33628 ****         5.5000 -22.2500 -14.0000 Du        
  33629 ****         5.5000 -22.2500 -13.7500 Du        
  33630 ****         5.5000 -22.2500 -13.5000 Du        
  33631 ****         5.5000 -22.2500 -13.2500 Du        
  33632 ****         5.5000 -22.2500 -13.0000 Du        
  33633 ****         5.5000 -22.2500 -12.7500 Du        
  33634 ****         5.5000 -22.0000 -15.0000 Du        
  33635 ****         5.5000 -22.0000 -14.7500 Du        
  33636 ****         5.5000 -22.0000 -14.5000 Du        
  33637 ****         5.5000 -22.0000 -14.2500 Du        
  33638 ****         5.5000 -22.0000 -14.0000 Du        
  33639 ****         5.5000 -22.0000 -13.7500 Du        
  33640 ****         5.5000 -22.0000 -13.5000 Du        
  33641 ****         5.5000 -22.0000 -13.2500 Du        
  33642 ****         5.5000 -22.0000 -13.0000 Du        
  33643 ****         5.5000 -21.7500 -15.2500 Du        
  33644 ****         5.5000 -21.7500 -15.0000 Du        
  33645 ****         5.5000 -21.7500 -14.7500 Du        
  33646 ****         5.5000 -21.7500 -14.5000 Du        
  33647 ****         5.5000 -21.7500 -14.2500 Du        
  33648 ****         5.5000 -21.7500 -14.0000 Du        
  33649 ****         5.5000 -21.7500 -13.7500 Du        
  33650 ****         5.5000 -21.7500 -13.5000 Du        
  33651 ****         5.5000 -21.7500 -13.2500 Du        
  33652 ****         5.5000 -21.7500 -13.0000 Du        
  33653 ****         5.5000 -21.5000 -15.2500 Du        
  33654 ****         5.5000 -21.5000 -15.0000 Du        
  33655 ****         5.5000 -21.5000 -14.7500 Du        
  33656 ****         5.5000 -21.5000 -14.5000 Du        
  33657 ****         5.5000 -21.5000 -14.2500 Du        
  33658 ****         5.5000 -21.5000 -14.0000 Du        
  33659 ****         5.5000 -21.5000 -13.7500 Du        
  33660 ****         5.5000 -21.5000 -13.5000 Du        
  33661 ****         5.5000 -21.5000 -13.2500 Du        
  33662 ****         5.5000 -21.2500 -15.5000 Du        
  33663 ****         5.5000 -21.2500 -15.2500 Du        
  33664 ****         5.5000 -21.2500 -15.0000 Du        
  33665 ****         5.5000 -21.2500 -14.7500 Du        
  33666 ****         5.5000 -21.2500 -14.5000 Du        
  33667 ****         5.5000 -21.2500 -14.2500 Du        
  33668 ****         5.5000 -21.2500 -14.0000 Du        
  33669 ****         5.5000 -21.2500 -13.7500 Du        
  33670 ****         5.5000 -21.2500 -13.5000 Du        
  33671 ****         5.5000 -21.0000 -15.7500 Du        
  33672 ****         5.5000 -21.0000 -15.5000 Du        
  33673 ****         5.5000 -21.0000 -15.2500 Du        
  33674 ****         5.5000 -21.0000 -15.0000 Du        
  33675 ****         5.5000 -21.0000 -14.7500 Du        
  33676 ****         5.5000 -21.0000 -14.5000 Du        
  33677 ****         5.5000 -21.0000 -14.2500 Du        
  33678 ****         5.5000 -21.0000 -14.0000 Du        
  33679 ****         5.5000 -21.0000 -13.7500 Du        
  33680 ****         5.5000 -20.7500 -15.7500 Du        
  33681 ****         5.5000 -20.7500 -15.5000 Du        
  33682 ****         5.5000 -20.7500 -15.2500 Du        
  33683 ****         5.5000 -20.7500 -15.0000 Du        
  33684 ****         5.5000 -20.7500 -14.7500 Du        
  33685 ****         5.5000 -20.7500 -14.5000 Du        
  33686 ****         5.5000 -20.7500 -14.2500 Du        
  33687 ****         5.5000 -20.7500 -14.0000 Du        
  33688 ****         5.5000 -20.5000 -16.0000 Du        
  33689 ****         5.5000 -20.5000 -15.7500 Du        
  33690 ****         5.5000 -20.5000 -15.5000 Du        
  33691 ****         5.5000 -20.5000 -15.2500 Du        
  33692 ****         5.5000 -20.5000 -15.0000 Du        
  33693 ****         5.5000 -20.5000 -14.7500 Du        
  33694 ****         5.5000 -20.5000 -14.5000 Du        
  33695 ****         5.5000 -20.5000 -14.2500 Du        
  33696 ****         5.5000 -20.5000 -14.0000 Du        
  33697 ****         5.5000 -20.2500 -16.0000 Du        
  33698 ****         5.5000 -20.2500 -15.7500 Du        
  33699 ****         5.5000 -20.2500 -15.5000 Du        
  33700 ****         5.5000 -20.2500 -15.2500 Du        
  33701 ****         5.5000 -20.2500 -15.0000 Du        
  33702 ****         5.5000 -20.2500 -14.7500 Du        
  33703 ****         5.5000 -20.2500 -14.5000 Du        
  33704 ****         5.5000 -20.2500 -14.2500 Du        
  33705 ****         5.5000 -20.0000 -16.2500 Du        
  33706 ****         5.5000 -20.0000 -16.0000 Du        
  33707 ****         5.5000 -20.0000 -15.7500 Du        
  33708 ****         5.5000 -20.0000 -15.5000 Du        
  33709 ****         5.5000 -20.0000 -15.2500 Du        
  33710 ****         5.5000 -20.0000 -15.0000 Du        
  33711 ****         5.5000 -20.0000 -14.7500 Du        
  33712 ****         5.5000 -20.0000 -14.5000 Du        
  33713 ****         5.5000 -20.0000 -14.2500 Du        
  33714 ****         5.5000 -19.7500 -16.2500 Du        
  33715 ****         5.5000 -19.7500 -16.0000 Du        
  33716 ****         5.5000 -19.7500 -15.7500 Du        
  33717 ****         5.5000 -19.7500 -15.5000 Du        
  33718 ****         5.5000 -19.7500 -15.2500 Du        
  33719 ****         5.5000 -19.7500 -15.0000 Du        
  33720 ****         5.5000 -19.7500 -14.7500 Du        
  33721 ****         5.5000 -19.7500 -14.5000 Du        
  33722 ****         5.5000 -19.5000 -16.2500 Du        
  33723 ****         5.5000 -19.5000 -16.0000 Du        
  33724 ****         5.5000 -19.5000 -15.7500 Du        
  33725 ****         5.5000 -19.5000 -15.5000 Du        
  33726 ****         5.5000 -19.5000 -15.2500 Du        
  33727 ****         5.5000 -19.5000 -15.0000 Du        
  33728 ****         5.5000 -19.5000 -14.7500 Du        
  33729 ****         5.5000 -19.2500 -16.5000 Du        
  33730 ****         5.5000 -19.2500 -16.2500 Du        
  33731 ****         5.5000 -19.2500 -16.0000 Du        
  33732 ****         5.5000 -19.2500 -15.7500 Du        
  33733 ****         5.5000 -19.2500 -15.5000 Du        
  33734 ****         5.5000 -19.2500 -15.2500 Du        
  33735 ****         5.5000 -19.2500 -15.0000 Du        
  33736 ****         5.5000 -19.2500 -14.7500 Du        
  33737 ****         5.5000 -19.0000 -16.7500 Du        
  33738 ****         5.5000 -19.0000 -16.5000 Du        
  33739 ****         5.5000 -19.0000 -16.2500 Du        
  33740 ****         5.5000 -19.0000 -16.0000 Du        
  33741 ****         5.5000 -19.0000 -15.7500 Du        
  33742 ****         5.5000 -19.0000 -15.5000 Du        
  33743 ****         5.5000 -19.0000 -15.2500 Du        
  33744 ****         5.5000 -19.0000 -15.0000 Du        
  33745 ****         5.5000 -18.7500 -17.0000 Du        
  33746 ****         5.5000 -18.7500 -16.7500 Du        
  33747 ****         5.5000 -18.7500 -16.5000 Du        
  33748 ****         5.5000 -18.7500 -16.2500 Du        
  33749 ****         5.5000 -18.7500 -16.0000 Du        
  33750 ****         5.5000 -18.7500 -15.7500 Du        
  33751 ****         5.5000 -18.7500 -15.5000 Du        
  33752 ****         5.5000 -18.7500 -15.2500 Du        
  33753 ****         5.5000 -18.5000 -17.2500 Du        
  33754 ****         5.5000 -18.5000 -17.0000 Du        
  33755 ****         5.5000 -18.5000 -16.7500 Du        
  33756 ****         5.5000 -18.5000 -16.5000 Du        
  33757 ****         5.5000 -18.5000 -16.2500 Du        
  33758 ****         5.5000 -18.5000 -16.0000 Du        
  33759 ****         5.5000 -18.5000 -15.7500 Du        
  33760 ****         5.5000 -18.2500 -17.5000 Du        
  33761 ****         5.5000 -18.2500 -17.2500 Du        
  33762 ****         5.5000 -18.2500 -17.0000 Du        
  33763 ****         5.5000 -18.2500 -16.7500 Du        
  33764 ****         5.5000 -18.2500 -16.5000 Du        
  33765 ****         5.5000 -18.2500 -16.2500 Du        
  33766 ****         5.5000 -18.2500 -16.0000 Du        
  33767 ****         5.5000 -18.0000 -17.7500 Du        
  33768 ****         5.5000 -18.0000 -17.5000 Du        
  33769 ****         5.5000 -18.0000 -17.2500 Du        
  33770 ****         5.5000 -18.0000 -17.0000 Du        
  33771 ****         5.5000 -18.0000 -16.7500 Du        
  33772 ****         5.5000 -18.0000 -16.5000 Du        
  33773 ****         5.5000 -17.7500 -17.7500 Du        
  33774 ****         5.5000 -17.7500 -17.5000 Du        
  33775 ****         5.5000 -17.7500 -17.2500 Du        
  33776 ****         5.5000 -17.7500 -17.0000 Du        
  33777 ****         5.5000 -17.7500 -16.7500 Du        
  33778 ****         5.5000 -17.5000 -17.7500 Du        
  33779 ****         5.5000 -17.5000 -17.5000 Du        
  33780 ****         5.5000 -17.5000 -17.2500 Du        
  33781 ****         5.5000 -17.2500 -17.7500 Du        
  33782 ****         5.7500 -24.5000 -13.2500 Du        
  33783 ****         5.7500 -24.5000 -13.0000 Du        
  33784 ****         5.7500 -24.5000 -12.7500 Du        
  33785 ****         5.7500 -24.5000 -12.5000 Du        
  33786 ****         5.7500 -24.2500 -13.5000 Du        
  33787 ****         5.7500 -24.2500 -13.2500 Du        
  33788 ****         5.7500 -24.2500 -13.0000 Du        
  33789 ****         5.7500 -24.2500 -12.7500 Du        
  33790 ****         5.7500 -24.2500 -12.5000 Du        
  33791 ****         5.7500 -24.2500 -12.2500 Du        
  33792 ****         5.7500 -24.2500 -12.0000 Du        
  33793 ****         5.7500 -24.0000 -13.5000 Du        
  33794 ****         5.7500 -24.0000 -13.2500 Du        
  33795 ****         5.7500 -24.0000 -13.0000 Du        
  33796 ****         5.7500 -24.0000 -12.7500 Du        
  33797 ****         5.7500 -24.0000 -12.5000 Du        
  33798 ****         5.7500 -24.0000 -12.2500 Du        
  33799 ****         5.7500 -24.0000 -12.0000 Du        
  33800 ****         5.7500 -24.0000 -11.7500 Du        
  33801 ****         5.7500 -23.7500 -14.0000 Du        
  33802 ****         5.7500 -23.7500 -13.7500 Du        
  33803 ****         5.7500 -23.7500 -13.5000 Du        
  33804 ****         5.7500 -23.7500 -13.2500 Du        
  33805 ****         5.7500 -23.7500 -13.0000 Du        
  33806 ****         5.7500 -23.7500 -12.7500 Du        
  33807 ****         5.7500 -23.7500 -12.5000 Du        
  33808 ****         5.7500 -23.7500 -12.2500 Du        
  33809 ****         5.7500 -23.7500 -12.0000 Du        
  33810 ****         5.7500 -23.7500 -11.7500 Du        
  33811 ****         5.7500 -23.5000 -14.2500 Du        
  33812 ****         5.7500 -23.5000 -14.0000 Du        
  33813 ****         5.7500 -23.5000 -13.7500 Du        
  33814 ****         5.7500 -23.5000 -13.5000 Du        
  33815 ****         5.7500 -23.5000 -13.2500 Du        
  33816 ****         5.7500 -23.5000 -13.0000 Du        
  33817 ****         5.7500 -23.5000 -12.7500 Du        
  33818 ****         5.7500 -23.5000 -12.5000 Du        
  33819 ****         5.7500 -23.5000 -12.2500 Du        
  33820 ****         5.7500 -23.5000 -12.0000 Du        
  33821 ****         5.7500 -23.2500 -14.5000 Du        
  33822 ****         5.7500 -23.2500 -14.2500 Du        
  33823 ****         5.7500 -23.2500 -14.0000 Du        
  33824 ****         5.7500 -23.2500 -13.7500 Du        
  33825 ****         5.7500 -23.2500 -13.5000 Du        
  33826 ****         5.7500 -23.2500 -13.2500 Du        
  33827 ****         5.7500 -23.2500 -13.0000 Du        
  33828 ****         5.7500 -23.2500 -12.7500 Du        
  33829 ****         5.7500 -23.2500 -12.5000 Du        
  33830 ****         5.7500 -23.2500 -12.2500 Du        
  33831 ****         5.7500 -23.2500 -12.0000 Du        
  33832 ****         5.7500 -23.0000 -14.7500 Du        
  33833 ****         5.7500 -23.0000 -14.5000 Du        
  33834 ****         5.7500 -23.0000 -14.2500 Du        
  33835 ****         5.7500 -23.0000 -14.0000 Du        
  33836 ****         5.7500 -23.0000 -13.7500 Du        
  33837 ****         5.7500 -23.0000 -13.5000 Du        
  33838 ****         5.7500 -23.0000 -13.2500 Du        
  33839 ****         5.7500 -23.0000 -13.0000 Du        
  33840 ****         5.7500 -23.0000 -12.7500 Du        
  33841 ****         5.7500 -23.0000 -12.5000 Du        
  33842 ****         5.7500 -23.0000 -12.2500 Du        
  33843 ****         5.7500 -22.7500 -15.0000 Du        
  33844 ****         5.7500 -22.7500 -14.7500 Du        
  33845 ****         5.7500 -22.7500 -14.5000 Du        
  33846 ****         5.7500 -22.7500 -14.2500 Du        
  33847 ****         5.7500 -22.7500 -14.0000 Du        
  33848 ****         5.7500 -22.7500 -13.7500 Du        
  33849 ****         5.7500 -22.7500 -13.5000 Du        
  33850 ****         5.7500 -22.7500 -13.2500 Du        
  33851 ****         5.7500 -22.7500 -13.0000 Du        
  33852 ****         5.7500 -22.7500 -12.7500 Du        
  33853 ****         5.7500 -22.7500 -12.5000 Du        
  33854 ****         5.7500 -22.5000 -15.0000 Du        
  33855 ****         5.7500 -22.5000 -14.7500 Du        
  33856 ****         5.7500 -22.5000 -14.5000 Du        
  33857 ****         5.7500 -22.5000 -14.2500 Du        
  33858 ****         5.7500 -22.5000 -14.0000 Du        
  33859 ****         5.7500 -22.5000 -13.7500 Du        
  33860 ****         5.7500 -22.5000 -13.5000 Du        
  33861 ****         5.7500 -22.5000 -13.2500 Du        
  33862 ****         5.7500 -22.5000 -13.0000 Du        
  33863 ****         5.7500 -22.5000 -12.7500 Du        
  33864 ****         5.7500 -22.2500 -15.2500 Du        
  33865 ****         5.7500 -22.2500 -15.0000 Du        
  33866 ****         5.7500 -22.2500 -14.7500 Du        
  33867 ****         5.7500 -22.2500 -14.5000 Du        
  33868 ****         5.7500 -22.2500 -14.2500 Du        
  33869 ****         5.7500 -22.2500 -14.0000 Du        
  33870 ****         5.7500 -22.2500 -13.7500 Du        
  33871 ****         5.7500 -22.2500 -13.5000 Du        
  33872 ****         5.7500 -22.2500 -13.2500 Du        
  33873 ****         5.7500 -22.2500 -13.0000 Du        
  33874 ****         5.7500 -22.0000 -15.2500 Du        
  33875 ****         5.7500 -22.0000 -15.0000 Du        
  33876 ****         5.7500 -22.0000 -14.7500 Du        
  33877 ****         5.7500 -22.0000 -14.5000 Du        
  33878 ****         5.7500 -22.0000 -14.2500 Du        
  33879 ****         5.7500 -22.0000 -14.0000 Du        
  33880 ****         5.7500 -22.0000 -13.7500 Du        
  33881 ****         5.7500 -22.0000 -13.5000 Du        
  33882 ****         5.7500 -22.0000 -13.2500 Du        
  33883 ****         5.7500 -22.0000 -13.0000 Du        
  33884 ****         5.7500 -21.7500 -15.2500 Du        
  33885 ****         5.7500 -21.7500 -15.0000 Du        
  33886 ****         5.7500 -21.7500 -14.7500 Du        
  33887 ****         5.7500 -21.7500 -14.5000 Du        
  33888 ****         5.7500 -21.7500 -14.2500 Du        
  33889 ****         5.7500 -21.7500 -14.0000 Du        
  33890 ****         5.7500 -21.7500 -13.7500 Du        
  33891 ****         5.7500 -21.7500 -13.5000 Du        
  33892 ****         5.7500 -21.7500 -13.2500 Du        
  33893 ****         5.7500 -21.7500 -13.0000 Du        
  33894 ****         5.7500 -21.5000 -15.5000 Du        
  33895 ****         5.7500 -21.5000 -15.2500 Du        
  33896 ****         5.7500 -21.5000 -15.0000 Du        
  33897 ****         5.7500 -21.5000 -14.7500 Du        
  33898 ****         5.7500 -21.5000 -14.5000 Du        
  33899 ****         5.7500 -21.5000 -14.2500 Du        
  33900 ****         5.7500 -21.5000 -14.0000 Du        
  33901 ****         5.7500 -21.5000 -13.7500 Du        
  33902 ****         5.7500 -21.5000 -13.5000 Du        
  33903 ****         5.7500 -21.5000 -13.2500 Du        
  33904 ****         5.7500 -21.2500 -15.7500 Du        
  33905 ****         5.7500 -21.2500 -15.5000 Du        
  33906 ****         5.7500 -21.2500 -15.2500 Du        
  33907 ****         5.7500 -21.2500 -15.0000 Du        
  33908 ****         5.7500 -21.2500 -14.7500 Du        
  33909 ****         5.7500 -21.2500 -14.5000 Du        
  33910 ****         5.7500 -21.2500 -14.2500 Du        
  33911 ****         5.7500 -21.2500 -14.0000 Du        
  33912 ****         5.7500 -21.2500 -13.7500 Du        
  33913 ****         5.7500 -21.2500 -13.5000 Du        
  33914 ****         5.7500 -21.2500 -13.2500 Du        
  33915 ****         5.7500 -21.0000 -16.0000 Du        
  33916 ****         5.7500 -21.0000 -15.7500 Du        
  33917 ****         5.7500 -21.0000 -15.5000 Du        
  33918 ****         5.7500 -21.0000 -15.2500 Du        
  33919 ****         5.7500 -21.0000 -15.0000 Du        
  33920 ****         5.7500 -21.0000 -14.7500 Du        
  33921 ****         5.7500 -21.0000 -14.5000 Du        
  33922 ****         5.7500 -21.0000 -14.2500 Du        
  33923 ****         5.7500 -21.0000 -14.0000 Du        
  33924 ****         5.7500 -21.0000 -13.7500 Du        
  33925 ****         5.7500 -20.7500 -16.0000 Du        
  33926 ****         5.7500 -20.7500 -15.7500 Du        
  33927 ****         5.7500 -20.7500 -15.5000 Du        
  33928 ****         5.7500 -20.7500 -15.2500 Du        
  33929 ****         5.7500 -20.7500 -15.0000 Du        
  33930 ****         5.7500 -20.7500 -14.7500 Du        
  33931 ****         5.7500 -20.7500 -14.5000 Du        
  33932 ****         5.7500 -20.7500 -14.2500 Du        
  33933 ****         5.7500 -20.7500 -14.0000 Du        
  33934 ****         5.7500 -20.7500 -13.7500 Du        
  33935 ****         5.7500 -20.5000 -16.0000 Du        
  33936 ****         5.7500 -20.5000 -15.7500 Du        
  33937 ****         5.7500 -20.5000 -15.5000 Du        
  33938 ****         5.7500 -20.5000 -15.2500 Du        
  33939 ****         5.7500 -20.5000 -15.0000 Du        
  33940 ****         5.7500 -20.5000 -14.7500 Du        
  33941 ****         5.7500 -20.5000 -14.5000 Du        
  33942 ****         5.7500 -20.5000 -14.2500 Du        
  33943 ****         5.7500 -20.5000 -14.0000 Du        
  33944 ****         5.7500 -20.2500 -16.2500 Du        
  33945 ****         5.7500 -20.2500 -16.0000 Du        
  33946 ****         5.7500 -20.2500 -15.7500 Du        
  33947 ****         5.7500 -20.2500 -15.5000 Du        
  33948 ****         5.7500 -20.2500 -15.2500 Du        
  33949 ****         5.7500 -20.2500 -15.0000 Du        
  33950 ****         5.7500 -20.2500 -14.7500 Du        
  33951 ****         5.7500 -20.2500 -14.5000 Du        
  33952 ****         5.7500 -20.2500 -14.2500 Du        
  33953 ****         5.7500 -20.0000 -16.2500 Du        
  33954 ****         5.7500 -20.0000 -16.0000 Du        
  33955 ****         5.7500 -20.0000 -15.7500 Du        
  33956 ****         5.7500 -20.0000 -15.5000 Du        
  33957 ****         5.7500 -20.0000 -15.2500 Du        
  33958 ****         5.7500 -20.0000 -15.0000 Du        
  33959 ****         5.7500 -20.0000 -14.7500 Du        
  33960 ****         5.7500 -20.0000 -14.5000 Du        
  33961 ****         5.7500 -20.0000 -14.2500 Du        
  33962 ****         5.7500 -19.7500 -16.5000 Du        
  33963 ****         5.7500 -19.7500 -16.2500 Du        
  33964 ****         5.7500 -19.7500 -16.0000 Du        
  33965 ****         5.7500 -19.7500 -15.7500 Du        
  33966 ****         5.7500 -19.7500 -15.5000 Du        
  33967 ****         5.7500 -19.7500 -15.2500 Du        
  33968 ****         5.7500 -19.7500 -15.0000 Du        
  33969 ****         5.7500 -19.7500 -14.7500 Du        
  33970 ****         5.7500 -19.7500 -14.5000 Du        
  33971 ****         5.7500 -19.5000 -16.5000 Du        
  33972 ****         5.7500 -19.5000 -16.2500 Du        
  33973 ****         5.7500 -19.5000 -16.0000 Du        
  33974 ****         5.7500 -19.5000 -15.7500 Du        
  33975 ****         5.7500 -19.5000 -15.5000 Du        
  33976 ****         5.7500 -19.5000 -15.2500 Du        
  33977 ****         5.7500 -19.5000 -15.0000 Du        
  33978 ****         5.7500 -19.5000 -14.7500 Du        
  33979 ****         5.7500 -19.5000 -14.5000 Du        
  33980 ****         5.7500 -19.2500 -28.7500 Du        
  33981 ****         5.7500 -19.2500 -16.7500 Du        
  33982 ****         5.7500 -19.2500 -16.5000 Du        
  33983 ****         5.7500 -19.2500 -16.2500 Du        
  33984 ****         5.7500 -19.2500 -16.0000 Du        
  33985 ****         5.7500 -19.2500 -15.7500 Du        
  33986 ****         5.7500 -19.2500 -15.5000 Du        
  33987 ****         5.7500 -19.2500 -15.2500 Du        
  33988 ****         5.7500 -19.2500 -15.0000 Du        
  33989 ****         5.7500 -19.2500 -14.7500 Du        
  33990 ****         5.7500 -19.0000 -17.0000 Du        
  33991 ****         5.7500 -19.0000 -16.7500 Du        
  33992 ****         5.7500 -19.0000 -16.5000 Du        
  33993 ****         5.7500 -19.0000 -16.2500 Du        
  33994 ****         5.7500 -19.0000 -16.0000 Du        
  33995 ****         5.7500 -19.0000 -15.7500 Du        
  33996 ****         5.7500 -19.0000 -15.5000 Du        
  33997 ****         5.7500 -19.0000 -15.2500 Du        
  33998 ****         5.7500 -19.0000 -15.0000 Du        
  33999 ****         5.7500 -18.7500 -17.0000 Du        
  34000 ****         5.7500 -18.7500 -16.7500 Du        
  34001 ****         5.7500 -18.7500 -16.5000 Du        
  34002 ****         5.7500 -18.7500 -16.2500 Du        
  34003 ****         5.7500 -18.7500 -16.0000 Du        
  34004 ****         5.7500 -18.7500 -15.7500 Du        
  34005 ****         5.7500 -18.7500 -15.5000 Du        
  34006 ****         5.7500 -18.7500 -15.2500 Du        
  34007 ****         5.7500 -18.5000 -17.2500 Du        
  34008 ****         5.7500 -18.5000 -17.0000 Du        
  34009 ****         5.7500 -18.5000 -16.7500 Du        
  34010 ****         5.7500 -18.5000 -16.5000 Du        
  34011 ****         5.7500 -18.5000 -16.2500 Du        
  34012 ****         5.7500 -18.5000 -16.0000 Du        
  34013 ****         5.7500 -18.5000 -15.7500 Du        
  34014 ****         5.7500 -18.2500 -17.2500 Du        
  34015 ****         5.7500 -18.2500 -17.0000 Du        
  34016 ****         5.7500 -18.2500 -16.7500 Du        
  34017 ****         5.7500 -18.2500 -16.5000 Du        
  34018 ****         5.7500 -18.2500 -16.2500 Du        
  34019 ****         5.7500 -18.2500 -16.0000 Du        
  34020 ****         5.7500 -18.0000 -17.5000 Du        
  34021 ****         5.7500 -18.0000 -17.2500 Du        
  34022 ****         5.7500 -18.0000 -17.0000 Du        
  34023 ****         5.7500 -18.0000 -16.7500 Du        
  34024 ****         5.7500 -18.0000 -16.5000 Du        
  34025 ****         5.7500 -18.0000 -16.2500 Du        
  34026 ****         5.7500 -17.7500 -17.5000 Du        
  34027 ****         5.7500 -17.7500 -17.2500 Du        
  34028 ****         5.7500 -17.7500 -17.0000 Du        
  34029 ****         5.7500 -17.7500 -16.7500 Du        
  34030 ****         5.7500 -17.7500 -16.5000 Du        
  34031 ****         5.7500 -17.5000 -17.2500 Du        
  34032 ****         5.7500 -17.5000 -17.0000 Du        
  34033 ****         5.7500  -2.2500 -19.5000 Du        
  34034 ****         5.7500  -2.0000 -19.7500 Du        
  34035 ****         5.7500  -2.0000 -19.5000 Du        
  34036 ****         5.7500  -2.0000 -19.2500 Du        
  34037 ****         5.7500  -1.7500 -19.5000 Du        
  34038 ****         5.7500  -1.7500 -19.2500 Du        
  34039 ****         5.7500  -1.7500 -19.0000 Du        
  34040 ****         5.7500  -1.5000 -19.5000 Du        
  34041 ****         5.7500  -1.5000 -19.2500 Du        
  34042 ****         6.0000 -24.2500 -13.2500 Du        
  34043 ****         6.0000 -24.2500 -13.0000 Du        
  34044 ****         6.0000 -24.2500 -12.7500 Du        
  34045 ****         6.0000 -24.2500 -12.5000 Du        
  34046 ****         6.0000 -24.2500 -12.2500 Du        
  34047 ****         6.0000 -24.0000 -13.5000 Du        
  34048 ****         6.0000 -24.0000 -13.2500 Du        
  34049 ****         6.0000 -24.0000 -13.0000 Du        
  34050 ****         6.0000 -24.0000 -12.7500 Du        
  34051 ****         6.0000 -24.0000 -12.5000 Du        
  34052 ****         6.0000 -24.0000 -12.2500 Du        
  34053 ****         6.0000 -24.0000 -12.0000 Du        
  34054 ****         6.0000 -24.0000 -11.7500 Du        
  34055 ****         6.0000 -23.7500 -13.7500 Du        
  34056 ****         6.0000 -23.7500 -13.5000 Du        
  34057 ****         6.0000 -23.7500 -13.2500 Du        
  34058 ****         6.0000 -23.7500 -13.0000 Du        
  34059 ****         6.0000 -23.7500 -12.7500 Du        
  34060 ****         6.0000 -23.7500 -12.5000 Du        
  34061 ****         6.0000 -23.7500 -12.2500 Du        
  34062 ****         6.0000 -23.7500 -12.0000 Du        
  34063 ****         6.0000 -23.7500 -11.7500 Du        
  34064 ****         6.0000 -23.5000 -14.0000 Du        
  34065 ****         6.0000 -23.5000 -13.7500 Du        
  34066 ****         6.0000 -23.5000 -13.5000 Du        
  34067 ****         6.0000 -23.5000 -13.2500 Du        
  34068 ****         6.0000 -23.5000 -13.0000 Du        
  34069 ****         6.0000 -23.5000 -12.7500 Du        
  34070 ****         6.0000 -23.5000 -12.5000 Du        
  34071 ****         6.0000 -23.5000 -12.2500 Du        
  34072 ****         6.0000 -23.5000 -12.0000 Du        
  34073 ****         6.0000 -23.2500 -14.5000 Du        
  34074 ****         6.0000 -23.2500 -14.2500 Du        
  34075 ****         6.0000 -23.2500 -14.0000 Du        
  34076 ****         6.0000 -23.2500 -13.7500 Du        
  34077 ****         6.0000 -23.2500 -13.5000 Du        
  34078 ****         6.0000 -23.2500 -13.2500 Du        
  34079 ****         6.0000 -23.2500 -13.0000 Du        
  34080 ****         6.0000 -23.2500 -12.7500 Du        
  34081 ****         6.0000 -23.2500 -12.5000 Du        
  34082 ****         6.0000 -23.2500 -12.2500 Du        
  34083 ****         6.0000 -23.0000 -14.7500 Du        
  34084 ****         6.0000 -23.0000 -14.5000 Du        
  34085 ****         6.0000 -23.0000 -14.2500 Du        
  34086 ****         6.0000 -23.0000 -14.0000 Du        
  34087 ****         6.0000 -23.0000 -13.7500 Du        
  34088 ****         6.0000 -23.0000 -13.5000 Du        
  34089 ****         6.0000 -23.0000 -13.2500 Du        
  34090 ****         6.0000 -23.0000 -13.0000 Du        
  34091 ****         6.0000 -23.0000 -12.7500 Du        
  34092 ****         6.0000 -23.0000 -12.5000 Du        
  34093 ****         6.0000 -22.7500 -15.0000 Du        
  34094 ****         6.0000 -22.7500 -14.7500 Du        
  34095 ****         6.0000 -22.7500 -14.5000 Du        
  34096 ****         6.0000 -22.7500 -14.2500 Du        
  34097 ****         6.0000 -22.7500 -14.0000 Du        
  34098 ****         6.0000 -22.7500 -13.7500 Du        
  34099 ****         6.0000 -22.7500 -13.5000 Du        
  34100 ****         6.0000 -22.7500 -13.2500 Du        
  34101 ****         6.0000 -22.7500 -13.0000 Du        
  34102 ****         6.0000 -22.7500 -12.7500 Du        
  34103 ****         6.0000 -22.5000 -15.2500 Du        
  34104 ****         6.0000 -22.5000 -15.0000 Du        
  34105 ****         6.0000 -22.5000 -14.7500 Du        
  34106 ****         6.0000 -22.5000 -14.5000 Du        
  34107 ****         6.0000 -22.5000 -14.2500 Du        
  34108 ****         6.0000 -22.5000 -14.0000 Du        
  34109 ****         6.0000 -22.5000 -13.7500 Du        
  34110 ****         6.0000 -22.5000 -13.5000 Du        
  34111 ****         6.0000 -22.5000 -13.2500 Du        
  34112 ****         6.0000 -22.5000 -13.0000 Du        
  34113 ****         6.0000 -22.2500 -15.2500 Du        
  34114 ****         6.0000 -22.2500 -15.0000 Du        
  34115 ****         6.0000 -22.2500 -14.7500 Du        
  34116 ****         6.0000 -22.2500 -14.5000 Du        
  34117 ****         6.0000 -22.2500 -14.2500 Du        
  34118 ****         6.0000 -22.2500 -14.0000 Du        
  34119 ****         6.0000 -22.2500 -13.7500 Du        
  34120 ****         6.0000 -22.2500 -13.5000 Du        
  34121 ****         6.0000 -22.2500 -13.2500 Du        
  34122 ****         6.0000 -22.2500 -13.0000 Du        
  34123 ****         6.0000 -22.0000 -15.5000 Du        
  34124 ****         6.0000 -22.0000 -15.2500 Du        
  34125 ****         6.0000 -22.0000 -15.0000 Du        
  34126 ****         6.0000 -22.0000 -14.7500 Du        
  34127 ****         6.0000 -22.0000 -14.5000 Du        
  34128 ****         6.0000 -22.0000 -14.2500 Du        
  34129 ****         6.0000 -22.0000 -14.0000 Du        
  34130 ****         6.0000 -22.0000 -13.7500 Du        
  34131 ****         6.0000 -22.0000 -13.5000 Du        
  34132 ****         6.0000 -22.0000 -13.2500 Du        
  34133 ****         6.0000 -21.7500 -15.5000 Du        
  34134 ****         6.0000 -21.7500 -15.2500 Du        
  34135 ****         6.0000 -21.7500 -15.0000 Du        
  34136 ****         6.0000 -21.7500 -14.7500 Du        
  34137 ****         6.0000 -21.7500 -14.5000 Du        
  34138 ****         6.0000 -21.7500 -14.2500 Du        
  34139 ****         6.0000 -21.7500 -14.0000 Du        
  34140 ****         6.0000 -21.7500 -13.7500 Du        
  34141 ****         6.0000 -21.7500 -13.5000 Du        
  34142 ****         6.0000 -21.7500 -13.2500 Du        
  34143 ****         6.0000 -21.5000 -15.7500 Du        
  34144 ****         6.0000 -21.5000 -15.5000 Du        
  34145 ****         6.0000 -21.5000 -15.2500 Du        
  34146 ****         6.0000 -21.5000 -15.0000 Du        
  34147 ****         6.0000 -21.5000 -14.7500 Du        
  34148 ****         6.0000 -21.5000 -14.5000 Du        
  34149 ****         6.0000 -21.5000 -14.2500 Du        
  34150 ****         6.0000 -21.5000 -14.0000 Du        
  34151 ****         6.0000 -21.5000 -13.7500 Du        
  34152 ****         6.0000 -21.5000 -13.5000 Du        
  34153 ****         6.0000 -21.5000 -13.2500 Du        
  34154 ****         6.0000 -21.2500 -16.0000 Du        
  34155 ****         6.0000 -21.2500 -15.7500 Du        
  34156 ****         6.0000 -21.2500 -15.5000 Du        
  34157 ****         6.0000 -21.2500 -15.2500 Du        
  34158 ****         6.0000 -21.2500 -15.0000 Du        
  34159 ****         6.0000 -21.2500 -14.7500 Du        
  34160 ****         6.0000 -21.2500 -14.5000 Du        
  34161 ****         6.0000 -21.2500 -14.2500 Du        
  34162 ****         6.0000 -21.2500 -14.0000 Du        
  34163 ****         6.0000 -21.2500 -13.7500 Du        
  34164 ****         6.0000 -21.2500 -13.5000 Du        
  34165 ****         6.0000 -21.2500 -13.2500 Du        
  34166 ****         6.0000 -21.0000 -16.0000 Du        
  34167 ****         6.0000 -21.0000 -15.7500 Du        
  34168 ****         6.0000 -21.0000 -15.5000 Du        
  34169 ****         6.0000 -21.0000 -15.2500 Du        
  34170 ****         6.0000 -21.0000 -15.0000 Du        
  34171 ****         6.0000 -21.0000 -14.7500 Du        
  34172 ****         6.0000 -21.0000 -14.5000 Du        
  34173 ****         6.0000 -21.0000 -14.2500 Du        
  34174 ****         6.0000 -21.0000 -14.0000 Du        
  34175 ****         6.0000 -21.0000 -13.7500 Du        
  34176 ****         6.0000 -21.0000 -13.5000 Du        
  34177 ****         6.0000 -20.7500 -16.2500 Du        
  34178 ****         6.0000 -20.7500 -16.0000 Du        
  34179 ****         6.0000 -20.7500 -15.7500 Du        
  34180 ****         6.0000 -20.7500 -15.5000 Du        
  34181 ****         6.0000 -20.7500 -15.2500 Du        
  34182 ****         6.0000 -20.7500 -15.0000 Du        
  34183 ****         6.0000 -20.7500 -14.7500 Du        
  34184 ****         6.0000 -20.7500 -14.5000 Du        
  34185 ****         6.0000 -20.7500 -14.2500 Du        
  34186 ****         6.0000 -20.7500 -14.0000 Du        
  34187 ****         6.0000 -20.7500 -13.7500 Du        
  34188 ****         6.0000 -20.5000 -16.2500 Du        
  34189 ****         6.0000 -20.5000 -16.0000 Du        
  34190 ****         6.0000 -20.5000 -15.7500 Du        
  34191 ****         6.0000 -20.5000 -15.5000 Du        
  34192 ****         6.0000 -20.5000 -15.2500 Du        
  34193 ****         6.0000 -20.5000 -15.0000 Du        
  34194 ****         6.0000 -20.5000 -14.7500 Du        
  34195 ****         6.0000 -20.5000 -14.5000 Du        
  34196 ****         6.0000 -20.5000 -14.2500 Du        
  34197 ****         6.0000 -20.5000 -14.0000 Du        
  34198 ****         6.0000 -20.5000 -13.7500 Du        
  34199 ****         6.0000 -20.2500 -16.2500 Du        
  34200 ****         6.0000 -20.2500 -16.0000 Du        
  34201 ****         6.0000 -20.2500 -15.7500 Du        
  34202 ****         6.0000 -20.2500 -15.5000 Du        
  34203 ****         6.0000 -20.2500 -15.2500 Du        
  34204 ****         6.0000 -20.2500 -15.0000 Du        
  34205 ****         6.0000 -20.2500 -14.7500 Du        
  34206 ****         6.0000 -20.2500 -14.5000 Du        
  34207 ****         6.0000 -20.2500 -14.2500 Du        
  34208 ****         6.0000 -20.2500 -14.0000 Du        
  34209 ****         6.0000 -20.0000 -16.5000 Du        
  34210 ****         6.0000 -20.0000 -16.2500 Du        
  34211 ****         6.0000 -20.0000 -16.0000 Du        
  34212 ****         6.0000 -20.0000 -15.7500 Du        
  34213 ****         6.0000 -20.0000 -15.5000 Du        
  34214 ****         6.0000 -20.0000 -15.2500 Du        
  34215 ****         6.0000 -20.0000 -15.0000 Du        
  34216 ****         6.0000 -20.0000 -14.7500 Du        
  34217 ****         6.0000 -20.0000 -14.5000 Du        
  34218 ****         6.0000 -20.0000 -14.2500 Du        
  34219 ****         6.0000 -20.0000 -14.0000 Du        
  34220 ****         6.0000 -19.7500 -16.5000 Du        
  34221 ****         6.0000 -19.7500 -16.2500 Du        
  34222 ****         6.0000 -19.7500 -16.0000 Du        
  34223 ****         6.0000 -19.7500 -15.7500 Du        
  34224 ****         6.0000 -19.7500 -15.5000 Du        
  34225 ****         6.0000 -19.7500 -15.2500 Du        
  34226 ****         6.0000 -19.7500 -15.0000 Du        
  34227 ****         6.0000 -19.7500 -14.7500 Du        
  34228 ****         6.0000 -19.7500 -14.5000 Du        
  34229 ****         6.0000 -19.7500 -14.2500 Du        
  34230 ****         6.0000 -19.5000 -16.7500 Du        
  34231 ****         6.0000 -19.5000 -16.5000 Du        
  34232 ****         6.0000 -19.5000 -16.2500 Du        
  34233 ****         6.0000 -19.5000 -16.0000 Du        
  34234 ****         6.0000 -19.5000 -15.7500 Du        
  34235 ****         6.0000 -19.5000 -15.5000 Du        
  34236 ****         6.0000 -19.5000 -15.2500 Du        
  34237 ****         6.0000 -19.5000 -15.0000 Du        
  34238 ****         6.0000 -19.5000 -14.7500 Du        
  34239 ****         6.0000 -19.5000 -14.5000 Du        
  34240 ****         6.0000 -19.2500 -16.7500 Du        
  34241 ****         6.0000 -19.2500 -16.5000 Du        
  34242 ****         6.0000 -19.2500 -16.2500 Du        
  34243 ****         6.0000 -19.2500 -16.0000 Du        
  34244 ****         6.0000 -19.2500 -15.7500 Du        
  34245 ****         6.0000 -19.2500 -15.5000 Du        
  34246 ****         6.0000 -19.2500 -15.2500 Du        
  34247 ****         6.0000 -19.2500 -15.0000 Du        
  34248 ****         6.0000 -19.2500 -14.7500 Du        
  34249 ****         6.0000 -19.0000 -17.0000 Du        
  34250 ****         6.0000 -19.0000 -16.7500 Du        
  34251 ****         6.0000 -19.0000 -16.5000 Du        
  34252 ****         6.0000 -19.0000 -16.2500 Du        
  34253 ****         6.0000 -19.0000 -16.0000 Du        
  34254 ****         6.0000 -19.0000 -15.7500 Du        
  34255 ****         6.0000 -19.0000 -15.5000 Du        
  34256 ****         6.0000 -19.0000 -15.2500 Du        
  34257 ****         6.0000 -19.0000 -15.0000 Du        
  34258 ****         6.0000 -18.7500 -17.2500 Du        
  34259 ****         6.0000 -18.7500 -17.0000 Du        
  34260 ****         6.0000 -18.7500 -16.7500 Du        
  34261 ****         6.0000 -18.7500 -16.5000 Du        
  34262 ****         6.0000 -18.7500 -16.2500 Du        
  34263 ****         6.0000 -18.7500 -16.0000 Du        
  34264 ****         6.0000 -18.7500 -15.7500 Du        
  34265 ****         6.0000 -18.7500 -15.5000 Du        
  34266 ****         6.0000 -18.7500 -15.2500 Du        
  34267 ****         6.0000 -18.5000 -17.2500 Du        
  34268 ****         6.0000 -18.5000 -17.0000 Du        
  34269 ****         6.0000 -18.5000 -16.7500 Du        
  34270 ****         6.0000 -18.5000 -16.5000 Du        
  34271 ****         6.0000 -18.5000 -16.2500 Du        
  34272 ****         6.0000 -18.5000 -16.0000 Du        
  34273 ****         6.0000 -18.5000 -15.7500 Du        
  34274 ****         6.0000 -18.2500 -17.2500 Du        
  34275 ****         6.0000 -18.2500 -17.0000 Du        
  34276 ****         6.0000 -18.2500 -16.7500 Du        
  34277 ****         6.0000 -18.2500 -16.5000 Du        
  34278 ****         6.0000 -18.2500 -16.2500 Du        
  34279 ****         6.0000 -18.2500 -16.0000 Du        
  34280 ****         6.0000 -18.0000 -17.2500 Du        
  34281 ****         6.0000 -18.0000 -17.0000 Du        
  34282 ****         6.0000 -18.0000 -16.7500 Du        
  34283 ****         6.0000 -18.0000 -16.5000 Du        
  34284 ****         6.0000 -18.0000 -16.2500 Du        
  34285 ****         6.0000 -17.7500 -17.2500 Du        
  34286 ****         6.0000 -17.7500 -17.0000 Du        
  34287 ****         6.0000 -17.7500 -16.7500 Du        
  34288 ****         6.0000 -17.7500 -16.5000 Du        
  34289 ****         6.0000 -17.5000 -17.2500 Du        
  34290 ****         6.0000 -17.5000 -17.0000 Du        
  34291 ****         6.0000 -17.5000 -16.7500 Du        
  34292 ****         6.0000 -13.7500 -22.5000 Du        
  34293 ****         6.0000  -4.5000 -19.2500 Du        
  34294 ****         6.0000  -4.2500 -19.5000 Du        
  34295 ****         6.0000  -4.0000 -19.2500 Du        
  34296 ****         6.0000  -3.7500 -19.5000 Du        
  34297 ****         6.0000  -3.7500 -19.2500 Du        
  34298 ****         6.0000  -2.2500 -19.7500 Du        
  34299 ****         6.0000  -2.2500 -19.5000 Du        
  34300 ****         6.0000  -2.2500 -19.2500 Du        
  34301 ****         6.0000  -2.2500 -19.0000 Du        
  34302 ****         6.0000  -2.0000 -19.7500 Du        
  34303 ****         6.0000  -2.0000 -19.5000 Du        
  34304 ****         6.0000  -2.0000 -19.2500 Du        
  34305 ****         6.0000  -2.0000 -19.0000 Du        
  34306 ****         6.0000  -1.7500 -19.7500 Du        
  34307 ****         6.0000  -1.7500 -19.5000 Du        
  34308 ****         6.0000  -1.7500 -19.2500 Du        
  34309 ****         6.0000  -1.7500 -19.0000 Du        
  34310 ****         6.0000  -1.7500 -18.7500 Du        
  34311 ****         6.0000  -1.5000 -19.5000 Du        
  34312 ****         6.0000  -1.5000 -19.2500 Du        
  34313 ****         6.0000  -1.5000 -19.0000 Du        
  34314 ****         6.2500 -24.0000 -13.2500 Du        
  34315 ****         6.2500 -24.0000 -13.0000 Du        
  34316 ****         6.2500 -24.0000 -12.7500 Du        
  34317 ****         6.2500 -24.0000 -12.5000 Du        
  34318 ****         6.2500 -24.0000 -12.2500 Du        
  34319 ****         6.2500 -23.7500 -13.5000 Du        
  34320 ****         6.2500 -23.7500 -13.2500 Du        
  34321 ****         6.2500 -23.7500 -13.0000 Du        
  34322 ****         6.2500 -23.7500 -12.7500 Du        
  34323 ****         6.2500 -23.7500 -12.5000 Du        
  34324 ****         6.2500 -23.7500 -12.2500 Du        
  34325 ****         6.2500 -23.5000 -13.7500 Du        
  34326 ****         6.2500 -23.5000 -13.5000 Du        
  34327 ****         6.2500 -23.5000 -13.2500 Du        
  34328 ****         6.2500 -23.5000 -13.0000 Du        
  34329 ****         6.2500 -23.5000 -12.7500 Du        
  34330 ****         6.2500 -23.5000 -12.5000 Du        
  34331 ****         6.2500 -23.5000 -12.2500 Du        
  34332 ****         6.2500 -23.2500 -14.2500 Du        
  34333 ****         6.2500 -23.2500 -14.0000 Du        
  34334 ****         6.2500 -23.2500 -13.7500 Du        
  34335 ****         6.2500 -23.2500 -13.5000 Du        
  34336 ****         6.2500 -23.2500 -13.2500 Du        
  34337 ****         6.2500 -23.2500 -13.0000 Du        
  34338 ****         6.2500 -23.2500 -12.7500 Du        
  34339 ****         6.2500 -23.0000 -14.7500 Du        
  34340 ****         6.2500 -23.0000 -14.5000 Du        
  34341 ****         6.2500 -23.0000 -14.2500 Du        
  34342 ****         6.2500 -23.0000 -14.0000 Du        
  34343 ****         6.2500 -23.0000 -13.7500 Du        
  34344 ****         6.2500 -23.0000 -13.5000 Du        
  34345 ****         6.2500 -23.0000 -13.2500 Du        
  34346 ****         6.2500 -23.0000 -13.0000 Du        
  34347 ****         6.2500 -23.0000 -12.7500 Du        
  34348 ****         6.2500 -22.7500 -15.2500 Du        
  34349 ****         6.2500 -22.7500 -15.0000 Du        
  34350 ****         6.2500 -22.7500 -14.7500 Du        
  34351 ****         6.2500 -22.7500 -14.5000 Du        
  34352 ****         6.2500 -22.7500 -14.2500 Du        
  34353 ****         6.2500 -22.7500 -14.0000 Du        
  34354 ****         6.2500 -22.7500 -13.7500 Du        
  34355 ****         6.2500 -22.7500 -13.5000 Du        
  34356 ****         6.2500 -22.7500 -13.2500 Du        
  34357 ****         6.2500 -22.7500 -13.0000 Du        
  34358 ****         6.2500 -22.5000 -15.2500 Du        
  34359 ****         6.2500 -22.5000 -15.0000 Du        
  34360 ****         6.2500 -22.5000 -14.7500 Du        
  34361 ****         6.2500 -22.5000 -14.5000 Du        
  34362 ****         6.2500 -22.5000 -14.2500 Du        
  34363 ****         6.2500 -22.5000 -14.0000 Du        
  34364 ****         6.2500 -22.5000 -13.7500 Du        
  34365 ****         6.2500 -22.5000 -13.5000 Du        
  34366 ****         6.2500 -22.5000 -13.2500 Du        
  34367 ****         6.2500 -22.2500 -15.5000 Du        
  34368 ****         6.2500 -22.2500 -15.2500 Du        
  34369 ****         6.2500 -22.2500 -15.0000 Du        
  34370 ****         6.2500 -22.2500 -14.7500 Du        
  34371 ****         6.2500 -22.2500 -14.5000 Du        
  34372 ****         6.2500 -22.2500 -14.2500 Du        
  34373 ****         6.2500 -22.2500 -14.0000 Du        
  34374 ****         6.2500 -22.2500 -13.7500 Du        
  34375 ****         6.2500 -22.2500 -13.5000 Du        
  34376 ****         6.2500 -22.2500 -13.2500 Du        
  34377 ****         6.2500 -22.0000 -15.5000 Du        
  34378 ****         6.2500 -22.0000 -15.2500 Du        
  34379 ****         6.2500 -22.0000 -15.0000 Du        
  34380 ****         6.2500 -22.0000 -14.7500 Du        
  34381 ****         6.2500 -22.0000 -14.5000 Du        
  34382 ****         6.2500 -22.0000 -14.2500 Du        
  34383 ****         6.2500 -22.0000 -14.0000 Du        
  34384 ****         6.2500 -22.0000 -13.7500 Du        
  34385 ****         6.2500 -22.0000 -13.5000 Du        
  34386 ****         6.2500 -22.0000 -13.2500 Du        
  34387 ****         6.2500 -21.7500 -15.7500 Du        
  34388 ****         6.2500 -21.7500 -15.5000 Du        
  34389 ****         6.2500 -21.7500 -15.2500 Du        
  34390 ****         6.2500 -21.7500 -15.0000 Du        
  34391 ****         6.2500 -21.7500 -14.7500 Du        
  34392 ****         6.2500 -21.7500 -14.5000 Du        
  34393 ****         6.2500 -21.7500 -14.2500 Du        
  34394 ****         6.2500 -21.7500 -14.0000 Du        
  34395 ****         6.2500 -21.7500 -13.7500 Du        
  34396 ****         6.2500 -21.7500 -13.5000 Du        
  34397 ****         6.2500 -21.5000 -15.7500 Du        
  34398 ****         6.2500 -21.5000 -15.5000 Du        
  34399 ****         6.2500 -21.5000 -15.2500 Du        
  34400 ****         6.2500 -21.5000 -15.0000 Du        
  34401 ****         6.2500 -21.5000 -14.7500 Du        
  34402 ****         6.2500 -21.5000 -14.5000 Du        
  34403 ****         6.2500 -21.5000 -14.2500 Du        
  34404 ****         6.2500 -21.5000 -14.0000 Du        
  34405 ****         6.2500 -21.5000 -13.7500 Du        
  34406 ****         6.2500 -21.5000 -13.5000 Du        
  34407 ****         6.2500 -21.2500 -16.0000 Du        
  34408 ****         6.2500 -21.2500 -15.7500 Du        
  34409 ****         6.2500 -21.2500 -15.5000 Du        
  34410 ****         6.2500 -21.2500 -15.2500 Du        
  34411 ****         6.2500 -21.2500 -15.0000 Du        
  34412 ****         6.2500 -21.2500 -14.7500 Du        
  34413 ****         6.2500 -21.2500 -14.5000 Du        
  34414 ****         6.2500 -21.2500 -14.2500 Du        
  34415 ****         6.2500 -21.2500 -14.0000 Du        
  34416 ****         6.2500 -21.2500 -13.7500 Du        
  34417 ****         6.2500 -21.2500 -13.5000 Du        
  34418 ****         6.2500 -21.0000 -16.2500 Du        
  34419 ****         6.2500 -21.0000 -16.0000 Du        
  34420 ****         6.2500 -21.0000 -15.7500 Du        
  34421 ****         6.2500 -21.0000 -15.5000 Du        
  34422 ****         6.2500 -21.0000 -15.2500 Du        
  34423 ****         6.2500 -21.0000 -15.0000 Du        
  34424 ****         6.2500 -21.0000 -14.7500 Du        
  34425 ****         6.2500 -21.0000 -14.5000 Du        
  34426 ****         6.2500 -21.0000 -14.2500 Du        
  34427 ****         6.2500 -21.0000 -14.0000 Du        
  34428 ****         6.2500 -21.0000 -13.7500 Du        
  34429 ****         6.2500 -21.0000 -13.5000 Du        
  34430 ****         6.2500 -20.7500 -16.2500 Du        
  34431 ****         6.2500 -20.7500 -16.0000 Du        
  34432 ****         6.2500 -20.7500 -15.7500 Du        
  34433 ****         6.2500 -20.7500 -15.5000 Du        
  34434 ****         6.2500 -20.7500 -15.2500 Du        
  34435 ****         6.2500 -20.7500 -15.0000 Du        
  34436 ****         6.2500 -20.7500 -14.7500 Du        
  34437 ****         6.2500 -20.7500 -14.5000 Du        
  34438 ****         6.2500 -20.7500 -14.2500 Du        
  34439 ****         6.2500 -20.7500 -14.0000 Du        
  34440 ****         6.2500 -20.7500 -13.7500 Du        
  34441 ****         6.2500 -20.7500 -13.5000 Du        
  34442 ****         6.2500 -20.5000 -16.2500 Du        
  34443 ****         6.2500 -20.5000 -16.0000 Du        
  34444 ****         6.2500 -20.5000 -15.7500 Du        
  34445 ****         6.2500 -20.5000 -15.5000 Du        
  34446 ****         6.2500 -20.5000 -15.2500 Du        
  34447 ****         6.2500 -20.5000 -15.0000 Du        
  34448 ****         6.2500 -20.5000 -14.7500 Du        
  34449 ****         6.2500 -20.5000 -14.5000 Du        
  34450 ****         6.2500 -20.5000 -14.2500 Du        
  34451 ****         6.2500 -20.5000 -14.0000 Du        
  34452 ****         6.2500 -20.5000 -13.7500 Du        
  34453 ****         6.2500 -20.2500 -16.5000 Du        
  34454 ****         6.2500 -20.2500 -16.2500 Du        
  34455 ****         6.2500 -20.2500 -16.0000 Du        
  34456 ****         6.2500 -20.2500 -15.7500 Du        
  34457 ****         6.2500 -20.2500 -15.5000 Du        
  34458 ****         6.2500 -20.2500 -15.2500 Du        
  34459 ****         6.2500 -20.2500 -15.0000 Du        
  34460 ****         6.2500 -20.2500 -14.7500 Du        
  34461 ****         6.2500 -20.2500 -14.5000 Du        
  34462 ****         6.2500 -20.2500 -14.2500 Du        
  34463 ****         6.2500 -20.2500 -14.0000 Du        
  34464 ****         6.2500 -20.2500 -13.7500 Du        
  34465 ****         6.2500 -20.0000 -16.5000 Du        
  34466 ****         6.2500 -20.0000 -16.2500 Du        
  34467 ****         6.2500 -20.0000 -16.0000 Du        
  34468 ****         6.2500 -20.0000 -15.7500 Du        
  34469 ****         6.2500 -20.0000 -15.5000 Du        
  34470 ****         6.2500 -20.0000 -15.2500 Du        
  34471 ****         6.2500 -20.0000 -15.0000 Du        
  34472 ****         6.2500 -20.0000 -14.7500 Du        
  34473 ****         6.2500 -20.0000 -14.5000 Du        
  34474 ****         6.2500 -20.0000 -14.2500 Du        
  34475 ****         6.2500 -20.0000 -14.0000 Du        
  34476 ****         6.2500 -19.7500 -16.7500 Du        
  34477 ****         6.2500 -19.7500 -16.5000 Du        
  34478 ****         6.2500 -19.7500 -16.2500 Du        
  34479 ****         6.2500 -19.7500 -16.0000 Du        
  34480 ****         6.2500 -19.7500 -15.7500 Du        
  34481 ****         6.2500 -19.7500 -15.5000 Du        
  34482 ****         6.2500 -19.7500 -15.2500 Du        
  34483 ****         6.2500 -19.7500 -15.0000 Du        
  34484 ****         6.2500 -19.7500 -14.7500 Du        
  34485 ****         6.2500 -19.7500 -14.5000 Du        
  34486 ****         6.2500 -19.7500 -14.2500 Du        
  34487 ****         6.2500 -19.5000 -16.7500 Du        
  34488 ****         6.2500 -19.5000 -16.5000 Du        
  34489 ****         6.2500 -19.5000 -16.2500 Du        
  34490 ****         6.2500 -19.5000 -16.0000 Du        
  34491 ****         6.2500 -19.5000 -15.7500 Du        
  34492 ****         6.2500 -19.5000 -15.5000 Du        
  34493 ****         6.2500 -19.5000 -15.2500 Du        
  34494 ****         6.2500 -19.5000 -15.0000 Du        
  34495 ****         6.2500 -19.5000 -14.7500 Du        
  34496 ****         6.2500 -19.5000 -14.5000 Du        
  34497 ****         6.2500 -19.5000 -14.2500 Du        
  34498 ****         6.2500 -19.2500 -17.0000 Du        
  34499 ****         6.2500 -19.2500 -16.7500 Du        
  34500 ****         6.2500 -19.2500 -16.5000 Du        
  34501 ****         6.2500 -19.2500 -16.2500 Du        
  34502 ****         6.2500 -19.2500 -16.0000 Du        
  34503 ****         6.2500 -19.2500 -15.7500 Du        
  34504 ****         6.2500 -19.2500 -15.5000 Du        
  34505 ****         6.2500 -19.2500 -15.2500 Du        
  34506 ****         6.2500 -19.2500 -15.0000 Du        
  34507 ****         6.2500 -19.2500 -14.7500 Du        
  34508 ****         6.2500 -19.2500 -14.5000 Du        
  34509 ****         6.2500 -19.0000 -17.0000 Du        
  34510 ****         6.2500 -19.0000 -16.7500 Du        
  34511 ****         6.2500 -19.0000 -16.5000 Du        
  34512 ****         6.2500 -19.0000 -16.2500 Du        
  34513 ****         6.2500 -19.0000 -16.0000 Du        
  34514 ****         6.2500 -19.0000 -15.7500 Du        
  34515 ****         6.2500 -19.0000 -15.5000 Du        
  34516 ****         6.2500 -19.0000 -15.2500 Du        
  34517 ****         6.2500 -19.0000 -15.0000 Du        
  34518 ****         6.2500 -19.0000 -14.7500 Du        
  34519 ****         6.2500 -18.7500 -17.0000 Du        
  34520 ****         6.2500 -18.7500 -16.7500 Du        
  34521 ****         6.2500 -18.7500 -16.5000 Du        
  34522 ****         6.2500 -18.7500 -16.2500 Du        
  34523 ****         6.2500 -18.7500 -16.0000 Du        
  34524 ****         6.2500 -18.7500 -15.7500 Du        
  34525 ****         6.2500 -18.7500 -15.5000 Du        
  34526 ****         6.2500 -18.7500 -15.2500 Du        
  34527 ****         6.2500 -18.7500 -15.0000 Du        
  34528 ****         6.2500 -18.5000 -17.0000 Du        
  34529 ****         6.2500 -18.5000 -16.7500 Du        
  34530 ****         6.2500 -18.5000 -16.5000 Du        
  34531 ****         6.2500 -18.5000 -16.2500 Du        
  34532 ****         6.2500 -18.5000 -16.0000 Du        
  34533 ****         6.2500 -18.5000 -15.7500 Du        
  34534 ****         6.2500 -18.5000 -15.5000 Du        
  34535 ****         6.2500 -18.2500 -17.0000 Du        
  34536 ****         6.2500 -18.2500 -16.7500 Du        
  34537 ****         6.2500 -18.2500 -16.5000 Du        
  34538 ****         6.2500 -18.2500 -16.2500 Du        
  34539 ****         6.2500 -18.2500 -16.0000 Du        
  34540 ****         6.2500 -18.2500 -15.7500 Du        
  34541 ****         6.2500 -18.0000 -17.0000 Du        
  34542 ****         6.2500 -18.0000 -16.7500 Du        
  34543 ****         6.2500 -18.0000 -16.5000 Du        
  34544 ****         6.2500 -18.0000 -16.2500 Du        
  34545 ****         6.2500 -18.0000 -16.0000 Du        
  34546 ****         6.2500 -17.7500 -17.0000 Du        
  34547 ****         6.2500 -17.7500 -16.7500 Du        
  34548 ****         6.2500 -17.7500 -16.5000 Du        
  34549 ****         6.2500 -17.5000 -17.0000 Du        
  34550 ****         6.2500 -17.5000 -16.7500 Du        
  34551 ****         6.2500 -17.2500 -17.0000 Du        
  34552 ****         6.2500 -13.7500 -23.0000 Du        
  34553 ****         6.2500 -13.7500 -22.7500 Du        
  34554 ****         6.2500 -13.5000 -23.0000 Du        
  34555 ****         6.2500 -13.5000 -22.7500 Du        
  34556 ****         6.2500 -13.2500 -23.0000 Du        
  34557 ****         6.2500 -13.2500 -22.7500 Du        
  34558 ****         6.2500 -13.0000 -23.0000 Du        
  34559 ****         6.2500 -13.0000 -22.7500 Du        
  34560 ****         6.2500 -12.7500 -22.7500 Du        
  34561 ****         6.2500  -4.7500 -19.5000 Du        
  34562 ****         6.2500  -4.7500 -19.2500 Du        
  34563 ****         6.2500  -4.5000 -19.2500 Du        
  34564 ****         6.2500  -4.2500 -19.5000 Du        
  34565 ****         6.2500  -4.2500 -19.2500 Du        
  34566 ****         6.2500  -4.0000 -19.5000 Du        
  34567 ****         6.2500  -4.0000 -19.2500 Du        
  34568 ****         6.2500  -3.7500 -19.5000 Du        
  34569 ****         6.2500  -3.7500 -19.2500 Du        
  34570 ****         6.2500  -2.7500 -19.5000 Du        
  34571 ****         6.2500  -2.7500 -19.2500 Du        
  34572 ****         6.2500  -2.5000 -19.5000 Du        
  34573 ****         6.2500  -2.5000 -19.2500 Du        
  34574 ****         6.2500  -2.2500 -19.5000 Du        
  34575 ****         6.2500  -2.2500 -19.2500 Du        
  34576 ****         6.2500  -2.2500 -19.0000 Du        
  34577 ****         6.2500  -2.0000 -19.5000 Du        
  34578 ****         6.2500  -2.0000 -19.2500 Du        
  34579 ****         6.2500  -2.0000 -19.0000 Du        
  34580 ****         6.2500  -2.0000 -18.7500 Du        
  34581 ****         6.2500  -1.7500 -19.7500 Du        
  34582 ****         6.2500  -1.7500 -19.5000 Du        
  34583 ****         6.2500  -1.7500 -19.2500 Du        
  34584 ****         6.2500  -1.7500 -19.0000 Du        
  34585 ****         6.2500  -1.7500 -18.7500 Du        
  34586 ****         6.2500  -1.7500 -18.5000 Du        
  34587 ****         6.2500  -1.5000 -19.2500 Du        
  34588 ****         6.2500  -1.5000 -19.0000 Du        
  34589 ****         6.5000 -23.7500 -13.2500 Du        
  34590 ****         6.5000 -23.7500 -13.0000 Du        
  34591 ****         6.5000 -23.7500 -12.7500 Du        
  34592 ****         6.5000 -23.5000 -13.5000 Du        
  34593 ****         6.5000 -23.5000 -13.2500 Du        
  34594 ****         6.5000 -23.5000 -13.0000 Du        
  34595 ****         6.5000 -23.5000 -12.7500 Du        
  34596 ****         6.5000 -23.2500 -14.0000 Du        
  34597 ****         6.5000 -23.2500 -13.7500 Du        
  34598 ****         6.5000 -23.2500 -13.5000 Du        
  34599 ****         6.5000 -23.2500 -13.2500 Du        
  34600 ****         6.5000 -23.2500 -13.0000 Du        
  34601 ****         6.5000 -23.0000 -14.5000 Du        
  34602 ****         6.5000 -23.0000 -14.2500 Du        
  34603 ****         6.5000 -23.0000 -14.0000 Du        
  34604 ****         6.5000 -23.0000 -13.7500 Du        
  34605 ****         6.5000 -23.0000 -13.5000 Du        
  34606 ****         6.5000 -23.0000 -13.2500 Du        
  34607 ****         6.5000 -23.0000 -13.0000 Du        
  34608 ****         6.5000 -22.7500 -15.2500 Du        
  34609 ****         6.5000 -22.7500 -15.0000 Du        
  34610 ****         6.5000 -22.7500 -14.7500 Du        
  34611 ****         6.5000 -22.7500 -14.5000 Du        
  34612 ****         6.5000 -22.7500 -14.2500 Du        
  34613 ****         6.5000 -22.7500 -14.0000 Du        
  34614 ****         6.5000 -22.7500 -13.7500 Du        
  34615 ****         6.5000 -22.7500 -13.5000 Du        
  34616 ****         6.5000 -22.7500 -13.2500 Du        
  34617 ****         6.5000 -22.5000 -15.5000 Du        
  34618 ****         6.5000 -22.5000 -15.2500 Du        
  34619 ****         6.5000 -22.5000 -15.0000 Du        
  34620 ****         6.5000 -22.5000 -14.7500 Du        
  34621 ****         6.5000 -22.5000 -14.5000 Du        
  34622 ****         6.5000 -22.5000 -14.2500 Du        
  34623 ****         6.5000 -22.5000 -14.0000 Du        
  34624 ****         6.5000 -22.5000 -13.7500 Du        
  34625 ****         6.5000 -22.5000 -13.5000 Du        
  34626 ****         6.5000 -22.5000 -13.2500 Du        
  34627 ****         6.5000 -22.2500 -15.7500 Du        
  34628 ****         6.5000 -22.2500 -15.5000 Du        
  34629 ****         6.5000 -22.2500 -15.2500 Du        
  34630 ****         6.5000 -22.2500 -15.0000 Du        
  34631 ****         6.5000 -22.2500 -14.7500 Du        
  34632 ****         6.5000 -22.2500 -14.5000 Du        
  34633 ****         6.5000 -22.2500 -14.2500 Du        
  34634 ****         6.5000 -22.2500 -14.0000 Du        
  34635 ****         6.5000 -22.2500 -13.7500 Du        
  34636 ****         6.5000 -22.2500 -13.5000 Du        
  34637 ****         6.5000 -22.0000 -15.7500 Du        
  34638 ****         6.5000 -22.0000 -15.5000 Du        
  34639 ****         6.5000 -22.0000 -15.2500 Du        
  34640 ****         6.5000 -22.0000 -15.0000 Du        
  34641 ****         6.5000 -22.0000 -14.7500 Du        
  34642 ****         6.5000 -22.0000 -14.5000 Du        
  34643 ****         6.5000 -22.0000 -14.2500 Du        
  34644 ****         6.5000 -22.0000 -14.0000 Du        
  34645 ****         6.5000 -22.0000 -13.7500 Du        
  34646 ****         6.5000 -22.0000 -13.5000 Du        
  34647 ****         6.5000 -21.7500 -16.0000 Du        
  34648 ****         6.5000 -21.7500 -15.7500 Du        
  34649 ****         6.5000 -21.7500 -15.5000 Du        
  34650 ****         6.5000 -21.7500 -15.2500 Du        
  34651 ****         6.5000 -21.7500 -15.0000 Du        
  34652 ****         6.5000 -21.7500 -14.7500 Du        
  34653 ****         6.5000 -21.7500 -14.5000 Du        
  34654 ****         6.5000 -21.7500 -14.2500 Du        
  34655 ****         6.5000 -21.7500 -14.0000 Du        
  34656 ****         6.5000 -21.7500 -13.7500 Du        
  34657 ****         6.5000 -21.7500 -13.5000 Du        
  34658 ****         6.5000 -21.5000 -16.0000 Du        
  34659 ****         6.5000 -21.5000 -15.7500 Du        
  34660 ****         6.5000 -21.5000 -15.5000 Du        
  34661 ****         6.5000 -21.5000 -15.2500 Du        
  34662 ****         6.5000 -21.5000 -15.0000 Du        
  34663 ****         6.5000 -21.5000 -14.7500 Du        
  34664 ****         6.5000 -21.5000 -14.5000 Du        
  34665 ****         6.5000 -21.5000 -14.2500 Du        
  34666 ****         6.5000 -21.5000 -14.0000 Du        
  34667 ****         6.5000 -21.5000 -13.7500 Du        
  34668 ****         6.5000 -21.5000 -13.5000 Du        
  34669 ****         6.5000 -21.2500 -16.2500 Du        
  34670 ****         6.5000 -21.2500 -16.0000 Du        
  34671 ****         6.5000 -21.2500 -15.7500 Du        
  34672 ****         6.5000 -21.2500 -15.5000 Du        
  34673 ****         6.5000 -21.2500 -15.2500 Du        
  34674 ****         6.5000 -21.2500 -15.0000 Du        
  34675 ****         6.5000 -21.2500 -14.7500 Du        
  34676 ****         6.5000 -21.2500 -14.5000 Du        
  34677 ****         6.5000 -21.2500 -14.2500 Du        
  34678 ****         6.5000 -21.2500 -14.0000 Du        
  34679 ****         6.5000 -21.2500 -13.7500 Du        
  34680 ****         6.5000 -21.2500 -13.5000 Du        
  34681 ****         6.5000 -21.0000 -16.5000 Du        
  34682 ****         6.5000 -21.0000 -16.2500 Du        
  34683 ****         6.5000 -21.0000 -16.0000 Du        
  34684 ****         6.5000 -21.0000 -15.7500 Du        
  34685 ****         6.5000 -21.0000 -15.5000 Du        
  34686 ****         6.5000 -21.0000 -15.2500 Du        
  34687 ****         6.5000 -21.0000 -15.0000 Du        
  34688 ****         6.5000 -21.0000 -14.7500 Du        
  34689 ****         6.5000 -21.0000 -14.5000 Du        
  34690 ****         6.5000 -21.0000 -14.2500 Du        
  34691 ****         6.5000 -21.0000 -14.0000 Du        
  34692 ****         6.5000 -21.0000 -13.7500 Du        
  34693 ****         6.5000 -21.0000 -13.5000 Du        
  34694 ****         6.5000 -20.7500 -16.5000 Du        
  34695 ****         6.5000 -20.7500 -16.2500 Du        
  34696 ****         6.5000 -20.7500 -16.0000 Du        
  34697 ****         6.5000 -20.7500 -15.7500 Du        
  34698 ****         6.5000 -20.7500 -15.5000 Du        
  34699 ****         6.5000 -20.7500 -15.2500 Du        
  34700 ****         6.5000 -20.7500 -15.0000 Du        
  34701 ****         6.5000 -20.7500 -14.7500 Du        
  34702 ****         6.5000 -20.7500 -14.5000 Du        
  34703 ****         6.5000 -20.7500 -14.2500 Du        
  34704 ****         6.5000 -20.7500 -14.0000 Du        
  34705 ****         6.5000 -20.7500 -13.7500 Du        
  34706 ****         6.5000 -20.7500 -13.5000 Du        
  34707 ****         6.5000 -20.5000 -16.5000 Du        
  34708 ****         6.5000 -20.5000 -16.2500 Du        
  34709 ****         6.5000 -20.5000 -16.0000 Du        
  34710 ****         6.5000 -20.5000 -15.7500 Du        
  34711 ****         6.5000 -20.5000 -15.5000 Du        
  34712 ****         6.5000 -20.5000 -15.2500 Du        
  34713 ****         6.5000 -20.5000 -15.0000 Du        
  34714 ****         6.5000 -20.5000 -14.7500 Du        
  34715 ****         6.5000 -20.5000 -14.5000 Du        
  34716 ****         6.5000 -20.5000 -14.2500 Du        
  34717 ****         6.5000 -20.5000 -14.0000 Du        
  34718 ****         6.5000 -20.5000 -13.7500 Du        
  34719 ****         6.5000 -20.5000 -13.5000 Du        
  34720 ****         6.5000 -20.2500 -16.7500 Du        
  34721 ****         6.5000 -20.2500 -16.5000 Du        
  34722 ****         6.5000 -20.2500 -16.2500 Du        
  34723 ****         6.5000 -20.2500 -16.0000 Du        
  34724 ****         6.5000 -20.2500 -15.7500 Du        
  34725 ****         6.5000 -20.2500 -15.5000 Du        
  34726 ****         6.5000 -20.2500 -15.2500 Du        
  34727 ****         6.5000 -20.2500 -15.0000 Du        
  34728 ****         6.5000 -20.2500 -14.7500 Du        
  34729 ****         6.5000 -20.2500 -14.5000 Du        
  34730 ****         6.5000 -20.2500 -14.2500 Du        
  34731 ****         6.5000 -20.2500 -14.0000 Du        
  34732 ****         6.5000 -20.2500 -13.7500 Du        
  34733 ****         6.5000 -20.0000 -16.7500 Du        
  34734 ****         6.5000 -20.0000 -16.5000 Du        
  34735 ****         6.5000 -20.0000 -16.2500 Du        
  34736 ****         6.5000 -20.0000 -16.0000 Du        
  34737 ****         6.5000 -20.0000 -15.7500 Du        
  34738 ****         6.5000 -20.0000 -15.5000 Du        
  34739 ****         6.5000 -20.0000 -15.2500 Du        
  34740 ****         6.5000 -20.0000 -15.0000 Du        
  34741 ****         6.5000 -20.0000 -14.7500 Du        
  34742 ****         6.5000 -20.0000 -14.5000 Du        
  34743 ****         6.5000 -20.0000 -14.2500 Du        
  34744 ****         6.5000 -20.0000 -14.0000 Du        
  34745 ****         6.5000 -20.0000 -13.7500 Du        
  34746 ****         6.5000 -19.7500 -16.7500 Du        
  34747 ****         6.5000 -19.7500 -16.5000 Du        
  34748 ****         6.5000 -19.7500 -16.2500 Du        
  34749 ****         6.5000 -19.7500 -16.0000 Du        
  34750 ****         6.5000 -19.7500 -15.7500 Du        
  34751 ****         6.5000 -19.7500 -15.5000 Du        
  34752 ****         6.5000 -19.7500 -15.2500 Du        
  34753 ****         6.5000 -19.7500 -15.0000 Du        
  34754 ****         6.5000 -19.7500 -14.7500 Du        
  34755 ****         6.5000 -19.7500 -14.5000 Du        
  34756 ****         6.5000 -19.7500 -14.2500 Du        
  34757 ****         6.5000 -19.7500 -14.0000 Du        
  34758 ****         6.5000 -19.5000 -17.0000 Du        
  34759 ****         6.5000 -19.5000 -16.7500 Du        
  34760 ****         6.5000 -19.5000 -16.5000 Du        
  34761 ****         6.5000 -19.5000 -16.2500 Du        
  34762 ****         6.5000 -19.5000 -16.0000 Du        
  34763 ****         6.5000 -19.5000 -15.7500 Du        
  34764 ****         6.5000 -19.5000 -15.5000 Du        
  34765 ****         6.5000 -19.5000 -15.2500 Du        
  34766 ****         6.5000 -19.5000 -15.0000 Du        
  34767 ****         6.5000 -19.5000 -14.7500 Du        
  34768 ****         6.5000 -19.5000 -14.5000 Du        
  34769 ****         6.5000 -19.5000 -14.2500 Du        
  34770 ****         6.5000 -19.2500 -17.0000 Du        
  34771 ****         6.5000 -19.2500 -16.7500 Du        
  34772 ****         6.5000 -19.2500 -16.5000 Du        
  34773 ****         6.5000 -19.2500 -16.2500 Du        
  34774 ****         6.5000 -19.2500 -16.0000 Du        
  34775 ****         6.5000 -19.2500 -15.7500 Du        
  34776 ****         6.5000 -19.2500 -15.5000 Du        
  34777 ****         6.5000 -19.2500 -15.2500 Du        
  34778 ****         6.5000 -19.2500 -15.0000 Du        
  34779 ****         6.5000 -19.2500 -14.7500 Du        
  34780 ****         6.5000 -19.2500 -14.5000 Du        
  34781 ****         6.5000 -19.0000 -17.0000 Du        
  34782 ****         6.5000 -19.0000 -16.7500 Du        
  34783 ****         6.5000 -19.0000 -16.5000 Du        
  34784 ****         6.5000 -19.0000 -16.2500 Du        
  34785 ****         6.5000 -19.0000 -16.0000 Du        
  34786 ****         6.5000 -19.0000 -15.7500 Du        
  34787 ****         6.5000 -19.0000 -15.5000 Du        
  34788 ****         6.5000 -19.0000 -15.2500 Du        
  34789 ****         6.5000 -19.0000 -15.0000 Du        
  34790 ****         6.5000 -19.0000 -14.7500 Du        
  34791 ****         6.5000 -18.7500 -17.0000 Du        
  34792 ****         6.5000 -18.7500 -16.7500 Du        
  34793 ****         6.5000 -18.7500 -16.5000 Du        
  34794 ****         6.5000 -18.7500 -16.2500 Du        
  34795 ****         6.5000 -18.7500 -16.0000 Du        
  34796 ****         6.5000 -18.7500 -15.7500 Du        
  34797 ****         6.5000 -18.7500 -15.5000 Du        
  34798 ****         6.5000 -18.7500 -15.2500 Du        
  34799 ****         6.5000 -18.7500 -15.0000 Du        
  34800 ****         6.5000 -18.5000 -17.0000 Du        
  34801 ****         6.5000 -18.5000 -16.7500 Du        
  34802 ****         6.5000 -18.5000 -16.5000 Du        
  34803 ****         6.5000 -18.5000 -16.2500 Du        
  34804 ****         6.5000 -18.5000 -16.0000 Du        
  34805 ****         6.5000 -18.5000 -15.7500 Du        
  34806 ****         6.5000 -18.5000 -15.5000 Du        
  34807 ****         6.5000 -18.5000 -15.2500 Du        
  34808 ****         6.5000 -18.2500 -17.0000 Du        
  34809 ****         6.5000 -18.2500 -16.7500 Du        
  34810 ****         6.5000 -18.2500 -16.5000 Du        
  34811 ****         6.5000 -18.2500 -16.2500 Du        
  34812 ****         6.5000 -18.2500 -16.0000 Du        
  34813 ****         6.5000 -18.2500 -15.7500 Du        
  34814 ****         6.5000 -18.0000 -17.0000 Du        
  34815 ****         6.5000 -18.0000 -16.7500 Du        
  34816 ****         6.5000 -18.0000 -16.5000 Du        
  34817 ****         6.5000 -18.0000 -16.2500 Du        
  34818 ****         6.5000 -18.0000 -16.0000 Du        
  34819 ****         6.5000 -17.7500 -16.7500 Du        
  34820 ****         6.5000 -17.7500 -16.5000 Du        
  34821 ****         6.5000 -17.7500 -16.2500 Du        
  34822 ****         6.5000 -17.5000 -16.7500 Du        
  34823 ****         6.5000 -17.5000 -16.5000 Du        
  34824 ****         6.5000 -17.2500 -16.7500 Du        
  34825 ****         6.5000 -14.0000 -23.2500 Du        
  34826 ****         6.5000 -14.0000 -23.0000 Du        
  34827 ****         6.5000 -13.7500 -23.2500 Du        
  34828 ****         6.5000 -13.7500 -23.0000 Du        
  34829 ****         6.5000 -13.7500 -22.7500 Du        
  34830 ****         6.5000 -13.5000 -23.2500 Du        
  34831 ****         6.5000 -13.5000 -23.0000 Du        
  34832 ****         6.5000 -13.5000 -22.7500 Du        
  34833 ****         6.5000 -13.2500 -23.2500 Du        
  34834 ****         6.5000 -13.2500 -23.0000 Du        
  34835 ****         6.5000 -13.2500 -22.7500 Du        
  34836 ****         6.5000 -13.2500 -22.5000 Du        
  34837 ****         6.5000 -13.0000 -23.2500 Du        
  34838 ****         6.5000 -13.0000 -23.0000 Du        
  34839 ****         6.5000 -13.0000 -22.7500 Du        
  34840 ****         6.5000 -13.0000 -22.5000 Du        
  34841 ****         6.5000 -12.7500 -23.0000 Du        
  34842 ****         6.5000 -12.7500 -22.7500 Du        
  34843 ****         6.5000 -12.7500 -22.5000 Du        
  34844 ****         6.5000 -12.5000 -23.0000 Du        
  34845 ****         6.5000 -12.5000 -22.7500 Du        
  34846 ****         6.5000 -12.2500 -22.7500 Du        
  34847 ****         6.5000  -4.7500 -19.2500 Du        
  34848 ****         6.5000  -4.5000 -19.2500 Du        
  34849 ****         6.5000  -4.2500 -19.5000 Du        
  34850 ****         6.5000  -4.2500 -19.2500 Du        
  34851 ****         6.5000  -4.0000 -19.5000 Du        
  34852 ****         6.5000  -4.0000 -19.2500 Du        
  34853 ****         6.5000  -3.7500 -19.5000 Du        
  34854 ****         6.5000  -3.7500 -19.2500 Du        
  34855 ****         6.5000  -3.5000 -19.5000 Du        
  34856 ****         6.5000  -3.2500 -19.5000 Du        
  34857 ****         6.5000  -3.2500 -19.2500 Du        
  34858 ****         6.5000  -3.0000 -19.5000 Du        
  34859 ****         6.5000  -3.0000 -19.2500 Du        
  34860 ****         6.5000  -2.7500 -19.5000 Du        
  34861 ****         6.5000  -2.7500 -19.2500 Du        
  34862 ****         6.5000  -2.5000 -19.5000 Du        
  34863 ****         6.5000  -2.5000 -19.2500 Du        
  34864 ****         6.5000  -2.5000 -19.0000 Du        
  34865 ****         6.5000  -2.2500 -19.5000 Du        
  34866 ****         6.5000  -2.2500 -19.2500 Du        
  34867 ****         6.5000  -2.2500 -19.0000 Du        
  34868 ****         6.5000  -2.0000 -19.5000 Du        
  34869 ****         6.5000  -2.0000 -19.2500 Du        
  34870 ****         6.5000  -2.0000 -19.0000 Du        
  34871 ****         6.5000  -2.0000 -18.7500 Du        
  34872 ****         6.5000  -1.7500 -19.5000 Du        
  34873 ****         6.5000  -1.7500 -19.2500 Du        
  34874 ****         6.5000  -1.7500 -19.0000 Du        
  34875 ****         6.5000  -1.7500 -18.7500 Du        
  34876 ****         6.7500 -23.0000 -14.0000 Du        
  34877 ****         6.7500 -23.0000 -13.7500 Du        
  34878 ****         6.7500 -23.0000 -13.5000 Du        
  34879 ****         6.7500 -22.7500 -15.2500 Du        
  34880 ****         6.7500 -22.7500 -15.0000 Du        
  34881 ****         6.7500 -22.7500 -14.7500 Du        
  34882 ****         6.7500 -22.7500 -14.5000 Du        
  34883 ****         6.7500 -22.7500 -14.2500 Du        
  34884 ****         6.7500 -22.7500 -14.0000 Du        
  34885 ****         6.7500 -22.7500 -13.7500 Du        
  34886 ****         6.7500 -22.7500 -13.5000 Du        
  34887 ****         6.7500 -22.5000 -15.5000 Du        
  34888 ****         6.7500 -22.5000 -15.2500 Du        
  34889 ****         6.7500 -22.5000 -15.0000 Du        
  34890 ****         6.7500 -22.5000 -14.7500 Du        
  34891 ****         6.7500 -22.5000 -14.5000 Du        
  34892 ****         6.7500 -22.5000 -14.2500 Du        
  34893 ****         6.7500 -22.5000 -14.0000 Du        
  34894 ****         6.7500 -22.5000 -13.7500 Du        
  34895 ****         6.7500 -22.2500 -15.7500 Du        
  34896 ****         6.7500 -22.2500 -15.5000 Du        
  34897 ****         6.7500 -22.2500 -15.2500 Du        
  34898 ****         6.7500 -22.2500 -15.0000 Du        
  34899 ****         6.7500 -22.2500 -14.7500 Du        
  34900 ****         6.7500 -22.2500 -14.5000 Du        
  34901 ****         6.7500 -22.2500 -14.2500 Du        
  34902 ****         6.7500 -22.2500 -14.0000 Du        
  34903 ****         6.7500 -22.2500 -13.7500 Du        
  34904 ****         6.7500 -22.0000 -16.0000 Du        
  34905 ****         6.7500 -22.0000 -15.7500 Du        
  34906 ****         6.7500 -22.0000 -15.5000 Du        
  34907 ****         6.7500 -22.0000 -15.2500 Du        
  34908 ****         6.7500 -22.0000 -15.0000 Du        
  34909 ****         6.7500 -22.0000 -14.7500 Du        
  34910 ****         6.7500 -22.0000 -14.5000 Du        
  34911 ****         6.7500 -22.0000 -14.2500 Du        
  34912 ****         6.7500 -22.0000 -14.0000 Du        
  34913 ****         6.7500 -22.0000 -13.7500 Du        
  34914 ****         6.7500 -21.7500 -16.0000 Du        
  34915 ****         6.7500 -21.7500 -15.7500 Du        
  34916 ****         6.7500 -21.7500 -15.5000 Du        
  34917 ****         6.7500 -21.7500 -15.2500 Du        
  34918 ****         6.7500 -21.7500 -15.0000 Du        
  34919 ****         6.7500 -21.7500 -14.7500 Du        
  34920 ****         6.7500 -21.7500 -14.5000 Du        
  34921 ****         6.7500 -21.7500 -14.2500 Du        
  34922 ****         6.7500 -21.7500 -14.0000 Du        
  34923 ****         6.7500 -21.7500 -13.7500 Du        
  34924 ****         6.7500 -21.5000 -16.2500 Du        
  34925 ****         6.7500 -21.5000 -16.0000 Du        
  34926 ****         6.7500 -21.5000 -15.7500 Du        
  34927 ****         6.7500 -21.5000 -15.5000 Du        
  34928 ****         6.7500 -21.5000 -15.2500 Du        
  34929 ****         6.7500 -21.5000 -15.0000 Du        
  34930 ****         6.7500 -21.5000 -14.7500 Du        
  34931 ****         6.7500 -21.5000 -14.5000 Du        
  34932 ****         6.7500 -21.5000 -14.2500 Du        
  34933 ****         6.7500 -21.5000 -14.0000 Du        
  34934 ****         6.7500 -21.5000 -13.7500 Du        
  34935 ****         6.7500 -21.2500 -16.5000 Du        
  34936 ****         6.7500 -21.2500 -16.2500 Du        
  34937 ****         6.7500 -21.2500 -16.0000 Du        
  34938 ****         6.7500 -21.2500 -15.7500 Du        
  34939 ****         6.7500 -21.2500 -15.5000 Du        
  34940 ****         6.7500 -21.2500 -15.2500 Du        
  34941 ****         6.7500 -21.2500 -15.0000 Du        
  34942 ****         6.7500 -21.2500 -14.7500 Du        
  34943 ****         6.7500 -21.2500 -14.5000 Du        
  34944 ****         6.7500 -21.2500 -14.2500 Du        
  34945 ****         6.7500 -21.2500 -14.0000 Du        
  34946 ****         6.7500 -21.2500 -13.7500 Du        
  34947 ****         6.7500 -21.0000 -16.5000 Du        
  34948 ****         6.7500 -21.0000 -16.2500 Du        
  34949 ****         6.7500 -21.0000 -16.0000 Du        
  34950 ****         6.7500 -21.0000 -15.7500 Du        
  34951 ****         6.7500 -21.0000 -15.5000 Du        
  34952 ****         6.7500 -21.0000 -15.2500 Du        
  34953 ****         6.7500 -21.0000 -15.0000 Du        
  34954 ****         6.7500 -21.0000 -14.7500 Du        
  34955 ****         6.7500 -21.0000 -14.5000 Du        
  34956 ****         6.7500 -21.0000 -14.2500 Du        
  34957 ****         6.7500 -21.0000 -14.0000 Du        
  34958 ****         6.7500 -21.0000 -13.7500 Du        
  34959 ****         6.7500 -20.7500 -16.7500 Du        
  34960 ****         6.7500 -20.7500 -16.5000 Du        
  34961 ****         6.7500 -20.7500 -16.2500 Du        
  34962 ****         6.7500 -20.7500 -16.0000 Du        
  34963 ****         6.7500 -20.7500 -15.7500 Du        
  34964 ****         6.7500 -20.7500 -15.5000 Du        
  34965 ****         6.7500 -20.7500 -15.2500 Du        
  34966 ****         6.7500 -20.7500 -15.0000 Du        
  34967 ****         6.7500 -20.7500 -14.7500 Du        
  34968 ****         6.7500 -20.7500 -14.5000 Du        
  34969 ****         6.7500 -20.7500 -14.2500 Du        
  34970 ****         6.7500 -20.7500 -14.0000 Du        
  34971 ****         6.7500 -20.7500 -13.7500 Du        
  34972 ****         6.7500 -20.7500 -13.5000 Du        
  34973 ****         6.7500 -20.5000 -16.7500 Du        
  34974 ****         6.7500 -20.5000 -16.5000 Du        
  34975 ****         6.7500 -20.5000 -16.2500 Du        
  34976 ****         6.7500 -20.5000 -16.0000 Du        
  34977 ****         6.7500 -20.5000 -15.7500 Du        
  34978 ****         6.7500 -20.5000 -15.5000 Du        
  34979 ****         6.7500 -20.5000 -15.2500 Du        
  34980 ****         6.7500 -20.5000 -15.0000 Du        
  34981 ****         6.7500 -20.5000 -14.7500 Du        
  34982 ****         6.7500 -20.5000 -14.5000 Du        
  34983 ****         6.7500 -20.5000 -14.2500 Du        
  34984 ****         6.7500 -20.5000 -14.0000 Du        
  34985 ****         6.7500 -20.5000 -13.7500 Du        
  34986 ****         6.7500 -20.5000 -13.5000 Du        
  34987 ****         6.7500 -20.2500 -16.7500 Du        
  34988 ****         6.7500 -20.2500 -16.5000 Du        
  34989 ****         6.7500 -20.2500 -16.2500 Du        
  34990 ****         6.7500 -20.2500 -16.0000 Du        
  34991 ****         6.7500 -20.2500 -15.7500 Du        
  34992 ****         6.7500 -20.2500 -15.5000 Du        
  34993 ****         6.7500 -20.2500 -15.2500 Du        
  34994 ****         6.7500 -20.2500 -15.0000 Du        
  34995 ****         6.7500 -20.2500 -14.7500 Du        
  34996 ****         6.7500 -20.2500 -14.5000 Du        
  34997 ****         6.7500 -20.2500 -14.2500 Du        
  34998 ****         6.7500 -20.2500 -14.0000 Du        
  34999 ****         6.7500 -20.2500 -13.7500 Du        
  35000 ****         6.7500 -20.2500 -13.5000 Du        
  35001 ****         6.7500 -20.0000 -16.7500 Du        
  35002 ****         6.7500 -20.0000 -16.5000 Du        
  35003 ****         6.7500 -20.0000 -16.2500 Du        
  35004 ****         6.7500 -20.0000 -16.0000 Du        
  35005 ****         6.7500 -20.0000 -15.7500 Du        
  35006 ****         6.7500 -20.0000 -15.5000 Du        
  35007 ****         6.7500 -20.0000 -15.2500 Du        
  35008 ****         6.7500 -20.0000 -15.0000 Du        
  35009 ****         6.7500 -20.0000 -14.7500 Du        
  35010 ****         6.7500 -20.0000 -14.5000 Du        
  35011 ****         6.7500 -20.0000 -14.2500 Du        
  35012 ****         6.7500 -20.0000 -14.0000 Du        
  35013 ****         6.7500 -20.0000 -13.7500 Du        
  35014 ****         6.7500 -19.7500 -16.7500 Du        
  35015 ****         6.7500 -19.7500 -16.5000 Du        
  35016 ****         6.7500 -19.7500 -16.2500 Du        
  35017 ****         6.7500 -19.7500 -16.0000 Du        
  35018 ****         6.7500 -19.7500 -15.7500 Du        
  35019 ****         6.7500 -19.7500 -15.5000 Du        
  35020 ****         6.7500 -19.7500 -15.2500 Du        
  35021 ****         6.7500 -19.7500 -15.0000 Du        
  35022 ****         6.7500 -19.7500 -14.7500 Du        
  35023 ****         6.7500 -19.7500 -14.5000 Du        
  35024 ****         6.7500 -19.7500 -14.2500 Du        
  35025 ****         6.7500 -19.7500 -14.0000 Du        
  35026 ****         6.7500 -19.5000 -17.0000 Du        
  35027 ****         6.7500 -19.5000 -16.7500 Du        
  35028 ****         6.7500 -19.5000 -16.5000 Du        
  35029 ****         6.7500 -19.5000 -16.2500 Du        
  35030 ****         6.7500 -19.5000 -16.0000 Du        
  35031 ****         6.7500 -19.5000 -15.7500 Du        
  35032 ****         6.7500 -19.5000 -15.5000 Du        
  35033 ****         6.7500 -19.5000 -15.2500 Du        
  35034 ****         6.7500 -19.5000 -15.0000 Du        
  35035 ****         6.7500 -19.5000 -14.7500 Du        
  35036 ****         6.7500 -19.5000 -14.5000 Du        
  35037 ****         6.7500 -19.5000 -14.2500 Du        
  35038 ****         6.7500 -19.5000 -14.0000 Du        
  35039 ****         6.7500 -19.2500 -17.0000 Du        
  35040 ****         6.7500 -19.2500 -16.7500 Du        
  35041 ****         6.7500 -19.2500 -16.5000 Du        
  35042 ****         6.7500 -19.2500 -16.2500 Du        
  35043 ****         6.7500 -19.2500 -16.0000 Du        
  35044 ****         6.7500 -19.2500 -15.7500 Du        
  35045 ****         6.7500 -19.2500 -15.5000 Du        
  35046 ****         6.7500 -19.2500 -15.2500 Du        
  35047 ****         6.7500 -19.2500 -15.0000 Du        
  35048 ****         6.7500 -19.2500 -14.7500 Du        
  35049 ****         6.7500 -19.2500 -14.5000 Du        
  35050 ****         6.7500 -19.2500 -14.2500 Du        
  35051 ****         6.7500 -19.0000 -17.0000 Du        
  35052 ****         6.7500 -19.0000 -16.7500 Du        
  35053 ****         6.7500 -19.0000 -16.5000 Du        
  35054 ****         6.7500 -19.0000 -16.2500 Du        
  35055 ****         6.7500 -19.0000 -16.0000 Du        
  35056 ****         6.7500 -19.0000 -15.7500 Du        
  35057 ****         6.7500 -19.0000 -15.5000 Du        
  35058 ****         6.7500 -19.0000 -15.2500 Du        
  35059 ****         6.7500 -19.0000 -15.0000 Du        
  35060 ****         6.7500 -19.0000 -14.7500 Du        
  35061 ****         6.7500 -19.0000 -14.5000 Du        
  35062 ****         6.7500 -18.7500 -16.7500 Du        
  35063 ****         6.7500 -18.7500 -16.5000 Du        
  35064 ****         6.7500 -18.7500 -16.2500 Du        
  35065 ****         6.7500 -18.7500 -16.0000 Du        
  35066 ****         6.7500 -18.7500 -15.7500 Du        
  35067 ****         6.7500 -18.7500 -15.5000 Du        
  35068 ****         6.7500 -18.7500 -15.2500 Du        
  35069 ****         6.7500 -18.7500 -15.0000 Du        
  35070 ****         6.7500 -18.7500 -14.7500 Du        
  35071 ****         6.7500 -18.5000 -16.7500 Du        
  35072 ****         6.7500 -18.5000 -16.5000 Du        
  35073 ****         6.7500 -18.5000 -16.2500 Du        
  35074 ****         6.7500 -18.5000 -16.0000 Du        
  35075 ****         6.7500 -18.5000 -15.7500 Du        
  35076 ****         6.7500 -18.5000 -15.5000 Du        
  35077 ****         6.7500 -18.5000 -15.2500 Du        
  35078 ****         6.7500 -18.2500 -16.7500 Du        
  35079 ****         6.7500 -18.2500 -16.5000 Du        
  35080 ****         6.7500 -18.2500 -16.2500 Du        
  35081 ****         6.7500 -18.2500 -16.0000 Du        
  35082 ****         6.7500 -18.2500 -15.7500 Du        
  35083 ****         6.7500 -18.2500 -15.5000 Du        
  35084 ****         6.7500 -18.0000 -16.7500 Du        
  35085 ****         6.7500 -18.0000 -16.5000 Du        
  35086 ****         6.7500 -18.0000 -16.2500 Du        
  35087 ****         6.7500 -18.0000 -16.0000 Du        
  35088 ****         6.7500 -17.7500 -16.7500 Du        
  35089 ****         6.7500 -17.7500 -16.5000 Du        
  35090 ****         6.7500 -17.7500 -16.2500 Du        
  35091 ****         6.7500 -17.5000 -16.7500 Du        
  35092 ****         6.7500 -17.5000 -16.5000 Du        
  35093 ****         6.7500 -17.2500 -16.7500 Du        
  35094 ****         6.7500 -14.0000 -23.5000 Du        
  35095 ****         6.7500 -14.0000 -23.2500 Du        
  35096 ****         6.7500 -14.0000 -23.0000 Du        
  35097 ****         6.7500 -13.7500 -23.5000 Du        
  35098 ****         6.7500 -13.7500 -23.2500 Du        
  35099 ****         6.7500 -13.7500 -23.0000 Du        
  35100 ****         6.7500 -13.5000 -23.5000 Du        
  35101 ****         6.7500 -13.5000 -23.2500 Du        
  35102 ****         6.7500 -13.5000 -23.0000 Du        
  35103 ****         6.7500 -13.5000 -22.7500 Du        
  35104 ****         6.7500 -13.2500 -23.5000 Du        
  35105 ****         6.7500 -13.2500 -23.2500 Du        
  35106 ****         6.7500 -13.2500 -23.0000 Du        
  35107 ****         6.7500 -13.2500 -22.7500 Du        
  35108 ****         6.7500 -13.0000 -23.5000 Du        
  35109 ****         6.7500 -13.0000 -23.2500 Du        
  35110 ****         6.7500 -13.0000 -23.0000 Du        
  35111 ****         6.7500 -13.0000 -22.7500 Du        
  35112 ****         6.7500 -13.0000 -22.5000 Du        
  35113 ****         6.7500 -12.7500 -23.2500 Du        
  35114 ****         6.7500 -12.7500 -23.0000 Du        
  35115 ****         6.7500 -12.7500 -22.7500 Du        
  35116 ****         6.7500 -12.7500 -22.5000 Du        
  35117 ****         6.7500 -12.5000 -23.2500 Du        
  35118 ****         6.7500 -12.5000 -23.0000 Du        
  35119 ****         6.7500 -12.5000 -22.7500 Du        
  35120 ****         6.7500 -12.2500 -23.2500 Du        
  35121 ****         6.7500 -12.2500 -23.0000 Du        
  35122 ****         6.7500 -12.2500 -22.7500 Du        
  35123 ****         6.7500  -4.7500 -19.2500 Du        
  35124 ****         6.7500  -4.5000 -19.2500 Du        
  35125 ****         6.7500  -4.2500 -19.2500 Du        
  35126 ****         6.7500  -4.0000 -19.5000 Du        
  35127 ****         6.7500  -4.0000 -19.2500 Du        
  35128 ****         6.7500  -3.7500 -19.5000 Du        
  35129 ****         6.7500  -3.7500 -19.2500 Du        
  35130 ****         6.7500  -3.5000 -19.5000 Du        
  35131 ****         6.7500  -3.5000 -19.2500 Du        
  35132 ****         6.7500  -3.2500 -19.5000 Du        
  35133 ****         6.7500  -3.2500 -19.2500 Du        
  35134 ****         6.7500  -3.0000 -19.5000 Du        
  35135 ****         6.7500  -3.0000 -19.2500 Du        
  35136 ****         6.7500  -2.7500 -19.5000 Du        
  35137 ****         6.7500  -2.7500 -19.2500 Du        
  35138 ****         6.7500  -2.7500 -19.0000 Du        
  35139 ****         6.7500  -2.5000 -19.5000 Du        
  35140 ****         6.7500  -2.5000 -19.2500 Du        
  35141 ****         6.7500  -2.5000 -19.0000 Du        
  35142 ****         6.7500  -2.2500 -19.5000 Du        
  35143 ****         6.7500  -2.2500 -19.2500 Du        
  35144 ****         6.7500  -2.2500 -19.0000 Du        
  35145 ****         6.7500  -2.2500 -18.7500 Du        
  35146 ****         6.7500  -2.0000 -19.5000 Du        
  35147 ****         6.7500  -2.0000 -19.2500 Du        
  35148 ****         6.7500  -2.0000 -19.0000 Du        
  35149 ****         6.7500  -2.0000 -18.7500 Du        
  35150 ****         6.7500  -1.7500 -19.5000 Du        
  35151 ****         6.7500  -1.7500 -19.2500 Du        
  35152 ****         6.7500  -1.7500 -19.0000 Du        
  35153 ****         6.7500  -1.7500 -18.7500 Du        
  35154 ****         7.0000 -22.2500 -15.7500 Du        
  35155 ****         7.0000 -22.2500 -15.5000 Du        
  35156 ****         7.0000 -22.2500 -15.2500 Du        
  35157 ****         7.0000 -22.2500 -15.0000 Du        
  35158 ****         7.0000 -22.2500 -14.7500 Du        
  35159 ****         7.0000 -22.0000 -16.0000 Du        
  35160 ****         7.0000 -22.0000 -15.7500 Du        
  35161 ****         7.0000 -22.0000 -15.5000 Du        
  35162 ****         7.0000 -22.0000 -15.2500 Du        
  35163 ****         7.0000 -22.0000 -15.0000 Du        
  35164 ****         7.0000 -22.0000 -14.7500 Du        
  35165 ****         7.0000 -22.0000 -14.5000 Du        
  35166 ****         7.0000 -22.0000 -14.2500 Du        
  35167 ****         7.0000 -22.0000 -14.0000 Du        
  35168 ****         7.0000 -21.7500 -16.2500 Du        
  35169 ****         7.0000 -21.7500 -16.0000 Du        
  35170 ****         7.0000 -21.7500 -15.7500 Du        
  35171 ****         7.0000 -21.7500 -15.5000 Du        
  35172 ****         7.0000 -21.7500 -15.2500 Du        
  35173 ****         7.0000 -21.7500 -15.0000 Du        
  35174 ****         7.0000 -21.7500 -14.7500 Du        
  35175 ****         7.0000 -21.7500 -14.5000 Du        
  35176 ****         7.0000 -21.7500 -14.2500 Du        
  35177 ****         7.0000 -21.7500 -14.0000 Du        
  35178 ****         7.0000 -21.5000 -16.2500 Du        
  35179 ****         7.0000 -21.5000 -16.0000 Du        
  35180 ****         7.0000 -21.5000 -15.7500 Du        
  35181 ****         7.0000 -21.5000 -15.5000 Du        
  35182 ****         7.0000 -21.5000 -15.2500 Du        
  35183 ****         7.0000 -21.5000 -15.0000 Du        
  35184 ****         7.0000 -21.5000 -14.7500 Du        
  35185 ****         7.0000 -21.5000 -14.5000 Du        
  35186 ****         7.0000 -21.5000 -14.2500 Du        
  35187 ****         7.0000 -21.5000 -14.0000 Du        
  35188 ****         7.0000 -21.2500 -16.5000 Du        
  35189 ****         7.0000 -21.2500 -16.2500 Du        
  35190 ****         7.0000 -21.2500 -16.0000 Du        
  35191 ****         7.0000 -21.2500 -15.7500 Du        
  35192 ****         7.0000 -21.2500 -15.5000 Du        
  35193 ****         7.0000 -21.2500 -15.2500 Du        
  35194 ****         7.0000 -21.2500 -15.0000 Du        
  35195 ****         7.0000 -21.2500 -14.7500 Du        
  35196 ****         7.0000 -21.2500 -14.5000 Du        
  35197 ****         7.0000 -21.2500 -14.2500 Du        
  35198 ****         7.0000 -21.2500 -14.0000 Du        
  35199 ****         7.0000 -21.2500 -13.7500 Du        
  35200 ****         7.0000 -21.0000 -16.5000 Du        
  35201 ****         7.0000 -21.0000 -16.2500 Du        
  35202 ****         7.0000 -21.0000 -16.0000 Du        
  35203 ****         7.0000 -21.0000 -15.7500 Du        
  35204 ****         7.0000 -21.0000 -15.5000 Du        
  35205 ****         7.0000 -21.0000 -15.2500 Du        
  35206 ****         7.0000 -21.0000 -15.0000 Du        
  35207 ****         7.0000 -21.0000 -14.7500 Du        
  35208 ****         7.0000 -21.0000 -14.5000 Du        
  35209 ****         7.0000 -21.0000 -14.2500 Du        
  35210 ****         7.0000 -21.0000 -14.0000 Du        
  35211 ****         7.0000 -21.0000 -13.7500 Du        
  35212 ****         7.0000 -20.7500 -16.7500 Du        
  35213 ****         7.0000 -20.7500 -16.5000 Du        
  35214 ****         7.0000 -20.7500 -16.2500 Du        
  35215 ****         7.0000 -20.7500 -16.0000 Du        
  35216 ****         7.0000 -20.7500 -15.7500 Du        
  35217 ****         7.0000 -20.7500 -15.5000 Du        
  35218 ****         7.0000 -20.7500 -15.2500 Du        
  35219 ****         7.0000 -20.7500 -15.0000 Du        
  35220 ****         7.0000 -20.7500 -14.7500 Du        
  35221 ****         7.0000 -20.7500 -14.5000 Du        
  35222 ****         7.0000 -20.7500 -14.2500 Du        
  35223 ****         7.0000 -20.7500 -14.0000 Du        
  35224 ****         7.0000 -20.7500 -13.7500 Du        
  35225 ****         7.0000 -20.5000 -16.7500 Du        
  35226 ****         7.0000 -20.5000 -16.5000 Du        
  35227 ****         7.0000 -20.5000 -16.2500 Du        
  35228 ****         7.0000 -20.5000 -16.0000 Du        
  35229 ****         7.0000 -20.5000 -15.7500 Du        
  35230 ****         7.0000 -20.5000 -15.5000 Du        
  35231 ****         7.0000 -20.5000 -15.2500 Du        
  35232 ****         7.0000 -20.5000 -15.0000 Du        
  35233 ****         7.0000 -20.5000 -14.7500 Du        
  35234 ****         7.0000 -20.5000 -14.5000 Du        
  35235 ****         7.0000 -20.5000 -14.2500 Du        
  35236 ****         7.0000 -20.5000 -14.0000 Du        
  35237 ****         7.0000 -20.5000 -13.7500 Du        
  35238 ****         7.0000 -20.5000 -13.5000 Du        
  35239 ****         7.0000 -20.2500 -16.7500 Du        
  35240 ****         7.0000 -20.2500 -16.5000 Du        
  35241 ****         7.0000 -20.2500 -16.2500 Du        
  35242 ****         7.0000 -20.2500 -16.0000 Du        
  35243 ****         7.0000 -20.2500 -15.7500 Du        
  35244 ****         7.0000 -20.2500 -15.5000 Du        
  35245 ****         7.0000 -20.2500 -15.2500 Du        
  35246 ****         7.0000 -20.2500 -15.0000 Du        
  35247 ****         7.0000 -20.2500 -14.7500 Du        
  35248 ****         7.0000 -20.2500 -14.5000 Du        
  35249 ****         7.0000 -20.2500 -14.2500 Du        
  35250 ****         7.0000 -20.2500 -14.0000 Du        
  35251 ****         7.0000 -20.2500 -13.7500 Du        
  35252 ****         7.0000 -20.2500 -13.5000 Du        
  35253 ****         7.0000 -20.0000 -16.7500 Du        
  35254 ****         7.0000 -20.0000 -16.5000 Du        
  35255 ****         7.0000 -20.0000 -16.2500 Du        
  35256 ****         7.0000 -20.0000 -16.0000 Du        
  35257 ****         7.0000 -20.0000 -15.7500 Du        
  35258 ****         7.0000 -20.0000 -15.5000 Du        
  35259 ****         7.0000 -20.0000 -15.2500 Du        
  35260 ****         7.0000 -20.0000 -15.0000 Du        
  35261 ****         7.0000 -20.0000 -14.7500 Du        
  35262 ****         7.0000 -20.0000 -14.5000 Du        
  35263 ****         7.0000 -20.0000 -14.2500 Du        
  35264 ****         7.0000 -20.0000 -14.0000 Du        
  35265 ****         7.0000 -20.0000 -13.7500 Du        
  35266 ****         7.0000 -20.0000 -13.5000 Du        
  35267 ****         7.0000 -19.7500 -16.7500 Du        
  35268 ****         7.0000 -19.7500 -16.5000 Du        
  35269 ****         7.0000 -19.7500 -16.2500 Du        
  35270 ****         7.0000 -19.7500 -16.0000 Du        
  35271 ****         7.0000 -19.7500 -15.7500 Du        
  35272 ****         7.0000 -19.7500 -15.5000 Du        
  35273 ****         7.0000 -19.7500 -15.2500 Du        
  35274 ****         7.0000 -19.7500 -15.0000 Du        
  35275 ****         7.0000 -19.7500 -14.7500 Du        
  35276 ****         7.0000 -19.7500 -14.5000 Du        
  35277 ****         7.0000 -19.7500 -14.2500 Du        
  35278 ****         7.0000 -19.7500 -14.0000 Du        
  35279 ****         7.0000 -19.7500 -13.7500 Du        
  35280 ****         7.0000 -19.7500 -13.5000 Du        
  35281 ****         7.0000 -19.5000 -16.7500 Du        
  35282 ****         7.0000 -19.5000 -16.5000 Du        
  35283 ****         7.0000 -19.5000 -16.2500 Du        
  35284 ****         7.0000 -19.5000 -16.0000 Du        
  35285 ****         7.0000 -19.5000 -15.7500 Du        
  35286 ****         7.0000 -19.5000 -15.5000 Du        
  35287 ****         7.0000 -19.5000 -15.2500 Du        
  35288 ****         7.0000 -19.5000 -15.0000 Du        
  35289 ****         7.0000 -19.5000 -14.7500 Du        
  35290 ****         7.0000 -19.5000 -14.5000 Du        
  35291 ****         7.0000 -19.5000 -14.2500 Du        
  35292 ****         7.0000 -19.5000 -14.0000 Du        
  35293 ****         7.0000 -19.2500 -16.7500 Du        
  35294 ****         7.0000 -19.2500 -16.5000 Du        
  35295 ****         7.0000 -19.2500 -16.2500 Du        
  35296 ****         7.0000 -19.2500 -16.0000 Du        
  35297 ****         7.0000 -19.2500 -15.7500 Du        
  35298 ****         7.0000 -19.2500 -15.5000 Du        
  35299 ****         7.0000 -19.2500 -15.2500 Du        
  35300 ****         7.0000 -19.2500 -15.0000 Du        
  35301 ****         7.0000 -19.2500 -14.7500 Du        
  35302 ****         7.0000 -19.2500 -14.5000 Du        
  35303 ****         7.0000 -19.2500 -14.2500 Du        
  35304 ****         7.0000 -19.0000 -16.7500 Du        
  35305 ****         7.0000 -19.0000 -16.5000 Du        
  35306 ****         7.0000 -19.0000 -16.2500 Du        
  35307 ****         7.0000 -19.0000 -16.0000 Du        
  35308 ****         7.0000 -19.0000 -15.7500 Du        
  35309 ****         7.0000 -19.0000 -15.5000 Du        
  35310 ****         7.0000 -19.0000 -15.2500 Du        
  35311 ****         7.0000 -19.0000 -15.0000 Du        
  35312 ****         7.0000 -19.0000 -14.7500 Du        
  35313 ****         7.0000 -19.0000 -14.5000 Du        
  35314 ****         7.0000 -18.7500 -16.7500 Du        
  35315 ****         7.0000 -18.7500 -16.5000 Du        
  35316 ****         7.0000 -18.7500 -16.2500 Du        
  35317 ****         7.0000 -18.7500 -16.0000 Du        
  35318 ****         7.0000 -18.7500 -15.7500 Du        
  35319 ****         7.0000 -18.7500 -15.5000 Du        
  35320 ****         7.0000 -18.7500 -15.2500 Du        
  35321 ****         7.0000 -18.7500 -15.0000 Du        
  35322 ****         7.0000 -18.7500 -14.7500 Du        
  35323 ****         7.0000 -18.5000 -16.7500 Du        
  35324 ****         7.0000 -18.5000 -16.5000 Du        
  35325 ****         7.0000 -18.5000 -16.2500 Du        
  35326 ****         7.0000 -18.5000 -16.0000 Du        
  35327 ****         7.0000 -18.5000 -15.7500 Du        
  35328 ****         7.0000 -18.5000 -15.5000 Du        
  35329 ****         7.0000 -18.5000 -15.2500 Du        
  35330 ****         7.0000 -18.5000 -15.0000 Du        
  35331 ****         7.0000 -18.2500 -16.7500 Du        
  35332 ****         7.0000 -18.2500 -16.5000 Du        
  35333 ****         7.0000 -18.2500 -16.2500 Du        
  35334 ****         7.0000 -18.2500 -16.0000 Du        
  35335 ****         7.0000 -18.2500 -15.7500 Du        
  35336 ****         7.0000 -18.2500 -15.5000 Du        
  35337 ****         7.0000 -18.2500 -15.2500 Du        
  35338 ****         7.0000 -18.0000 -16.7500 Du        
  35339 ****         7.0000 -18.0000 -16.5000 Du        
  35340 ****         7.0000 -18.0000 -16.2500 Du        
  35341 ****         7.0000 -18.0000 -16.0000 Du        
  35342 ****         7.0000 -18.0000 -15.7500 Du        
  35343 ****         7.0000 -17.7500 -16.7500 Du        
  35344 ****         7.0000 -17.7500 -16.5000 Du        
  35345 ****         7.0000 -17.7500 -16.2500 Du        
  35346 ****         7.0000 -17.7500 -16.0000 Du        
  35347 ****         7.0000 -17.5000 -16.7500 Du        
  35348 ****         7.0000 -17.5000 -16.5000 Du        
  35349 ****         7.0000 -17.5000 -16.2500 Du        
  35350 ****         7.0000 -17.2500 -16.7500 Du        
  35351 ****         7.0000 -17.2500 -16.5000 Du        
  35352 ****         7.0000 -14.0000 -23.7500 Du        
  35353 ****         7.0000 -14.0000 -23.5000 Du        
  35354 ****         7.0000 -14.0000 -23.2500 Du        
  35355 ****         7.0000 -13.7500 -23.7500 Du        
  35356 ****         7.0000 -13.7500 -23.5000 Du        
  35357 ****         7.0000 -13.7500 -23.2500 Du        
  35358 ****         7.0000 -13.7500 -23.0000 Du        
  35359 ****         7.0000 -13.5000 -23.7500 Du        
  35360 ****         7.0000 -13.5000 -23.5000 Du        
  35361 ****         7.0000 -13.5000 -23.2500 Du        
  35362 ****         7.0000 -13.5000 -23.0000 Du        
  35363 ****         7.0000 -13.2500 -23.7500 Du        
  35364 ****         7.0000 -13.2500 -23.5000 Du        
  35365 ****         7.0000 -13.2500 -23.2500 Du        
  35366 ****         7.0000 -13.2500 -23.0000 Du        
  35367 ****         7.0000 -13.2500 -22.7500 Du        
  35368 ****         7.0000 -13.0000 -23.7500 Du        
  35369 ****         7.0000 -13.0000 -23.5000 Du        
  35370 ****         7.0000 -13.0000 -23.2500 Du        
  35371 ****         7.0000 -13.0000 -23.0000 Du        
  35372 ****         7.0000 -13.0000 -22.7500 Du        
  35373 ****         7.0000 -12.7500 -23.7500 Du        
  35374 ****         7.0000 -12.7500 -23.5000 Du        
  35375 ****         7.0000 -12.7500 -23.2500 Du        
  35376 ****         7.0000 -12.7500 -23.0000 Du        
  35377 ****         7.0000 -12.7500 -22.7500 Du        
  35378 ****         7.0000 -12.5000 -23.5000 Du        
  35379 ****         7.0000 -12.5000 -23.2500 Du        
  35380 ****         7.0000 -12.5000 -23.0000 Du        
  35381 ****         7.0000 -12.5000 -22.7500 Du        
  35382 ****         7.0000 -12.2500 -23.2500 Du        
  35383 ****         7.0000 -12.2500 -23.0000 Du        
  35384 ****         7.0000 -12.2500 -22.7500 Du        
  35385 ****         7.0000 -12.0000 -23.2500 Du        
  35386 ****         7.0000 -12.0000 -23.0000 Du        
  35387 ****         7.0000 -11.7500 -23.2500 Du        
  35388 ****         7.0000 -10.2500 -20.5000 Du        
  35389 ****         7.0000 -10.0000 -20.5000 Du        
  35390 ****         7.0000  -9.7500 -20.5000 Du        
  35391 ****         7.0000  -5.0000 -19.0000 Du        
  35392 ****         7.0000  -4.2500 -19.2500 Du        
  35393 ****         7.0000  -4.0000 -19.2500 Du        
  35394 ****         7.0000  -3.7500 -19.2500 Du        
  35395 ****         7.0000  -3.5000 -19.2500 Du        
  35396 ****         7.0000  -3.2500 -19.5000 Du        
  35397 ****         7.0000  -3.2500 -19.2500 Du        
  35398 ****         7.0000  -3.0000 -19.5000 Du        
  35399 ****         7.0000  -3.0000 -19.2500 Du        
  35400 ****         7.0000  -2.7500 -19.5000 Du        
  35401 ****         7.0000  -2.7500 -19.2500 Du        
  35402 ****         7.0000  -2.7500 -19.0000 Du        
  35403 ****         7.0000  -2.5000 -19.5000 Du        
  35404 ****         7.0000  -2.5000 -19.2500 Du        
  35405 ****         7.0000  -2.5000 -19.0000 Du        
  35406 ****         7.0000  -2.2500 -19.5000 Du        
  35407 ****         7.0000  -2.2500 -19.2500 Du        
  35408 ****         7.0000  -2.2500 -19.0000 Du        
  35409 ****         7.0000  -2.2500 -18.7500 Du        
  35410 ****         7.0000  -2.0000 -19.5000 Du        
  35411 ****         7.0000  -2.0000 -19.2500 Du        
  35412 ****         7.0000  -2.0000 -19.0000 Du        
  35413 ****         7.0000  -2.0000 -18.7500 Du        
  35414 ****         7.0000  -1.7500 -19.5000 Du        
  35415 ****         7.0000  -1.7500 -19.2500 Du        
  35416 ****         7.0000  -1.7500 -19.0000 Du        
  35417 ****         7.0000  -1.7500 -18.7500 Du        
  35418 ****         7.0000  -1.7500 -18.5000 Du        
  35419 ****         7.2500 -20.7500 -14.2500 Du        
  35420 ****         7.2500 -20.7500 -14.0000 Du        
  35421 ****         7.2500 -20.5000 -14.2500 Du        
  35422 ****         7.2500 -20.5000 -14.0000 Du        
  35423 ****         7.2500 -20.2500 -14.7500 Du        
  35424 ****         7.2500 -20.2500 -14.5000 Du        
  35425 ****         7.2500 -20.2500 -14.2500 Du        
  35426 ****         7.2500 -20.2500 -14.0000 Du        
  35427 ****         7.2500 -20.2500 -13.7500 Du        
  35428 ****         7.2500 -20.2500 -13.5000 Du        
  35429 ****         7.2500 -20.0000 -15.2500 Du        
  35430 ****         7.2500 -20.0000 -15.0000 Du        
  35431 ****         7.2500 -20.0000 -14.7500 Du        
  35432 ****         7.2500 -20.0000 -14.5000 Du        
  35433 ****         7.2500 -20.0000 -14.2500 Du        
  35434 ****         7.2500 -20.0000 -14.0000 Du        
  35435 ****         7.2500 -20.0000 -13.7500 Du        
  35436 ****         7.2500 -20.0000 -13.5000 Du        
  35437 ****         7.2500 -19.7500 -16.2500 Du        
  35438 ****         7.2500 -19.7500 -16.0000 Du        
  35439 ****         7.2500 -19.7500 -15.7500 Du        
  35440 ****         7.2500 -19.7500 -15.5000 Du        
  35441 ****         7.2500 -19.7500 -15.2500 Du        
  35442 ****         7.2500 -19.7500 -15.0000 Du        
  35443 ****         7.2500 -19.7500 -14.7500 Du        
  35444 ****         7.2500 -19.7500 -14.5000 Du        
  35445 ****         7.2500 -19.7500 -14.2500 Du        
  35446 ****         7.2500 -19.7500 -14.0000 Du        
  35447 ****         7.2500 -19.7500 -13.7500 Du        
  35448 ****         7.2500 -19.7500 -13.5000 Du        
  35449 ****         7.2500 -19.7500 -13.2500 Du        
  35450 ****         7.2500 -19.5000 -16.5000 Du        
  35451 ****         7.2500 -19.5000 -16.2500 Du        
  35452 ****         7.2500 -19.5000 -16.0000 Du        
  35453 ****         7.2500 -19.5000 -15.7500 Du        
  35454 ****         7.2500 -19.5000 -15.5000 Du        
  35455 ****         7.2500 -19.5000 -15.2500 Du        
  35456 ****         7.2500 -19.5000 -15.0000 Du        
  35457 ****         7.2500 -19.5000 -14.7500 Du        
  35458 ****         7.2500 -19.5000 -14.5000 Du        
  35459 ****         7.2500 -19.5000 -14.2500 Du        
  35460 ****         7.2500 -19.5000 -14.0000 Du        
  35461 ****         7.2500 -19.5000 -13.7500 Du        
  35462 ****         7.2500 -19.2500 -16.7500 Du        
  35463 ****         7.2500 -19.2500 -16.5000 Du        
  35464 ****         7.2500 -19.2500 -16.2500 Du        
  35465 ****         7.2500 -19.2500 -16.0000 Du        
  35466 ****         7.2500 -19.2500 -15.7500 Du        
  35467 ****         7.2500 -19.2500 -15.5000 Du        
  35468 ****         7.2500 -19.2500 -15.2500 Du        
  35469 ****         7.2500 -19.2500 -15.0000 Du        
  35470 ****         7.2500 -19.2500 -14.7500 Du        
  35471 ****         7.2500 -19.2500 -14.5000 Du        
  35472 ****         7.2500 -19.2500 -14.2500 Du        
  35473 ****         7.2500 -19.2500 -14.0000 Du        
  35474 ****         7.2500 -19.0000 -16.7500 Du        
  35475 ****         7.2500 -19.0000 -16.5000 Du        
  35476 ****         7.2500 -19.0000 -16.2500 Du        
  35477 ****         7.2500 -19.0000 -16.0000 Du        
  35478 ****         7.2500 -19.0000 -15.7500 Du        
  35479 ****         7.2500 -19.0000 -15.5000 Du        
  35480 ****         7.2500 -19.0000 -15.2500 Du        
  35481 ****         7.2500 -19.0000 -15.0000 Du        
  35482 ****         7.2500 -19.0000 -14.7500 Du        
  35483 ****         7.2500 -19.0000 -14.5000 Du        
  35484 ****         7.2500 -19.0000 -14.2500 Du        
  35485 ****         7.2500 -18.7500 -16.5000 Du        
  35486 ****         7.2500 -18.7500 -16.2500 Du        
  35487 ****         7.2500 -18.7500 -16.0000 Du        
  35488 ****         7.2500 -18.7500 -15.7500 Du        
  35489 ****         7.2500 -18.7500 -15.5000 Du        
  35490 ****         7.2500 -18.7500 -15.2500 Du        
  35491 ****         7.2500 -18.7500 -15.0000 Du        
  35492 ****         7.2500 -18.7500 -14.7500 Du        
  35493 ****         7.2500 -18.7500 -14.5000 Du        
  35494 ****         7.2500 -18.5000 -16.5000 Du        
  35495 ****         7.2500 -18.5000 -16.2500 Du        
  35496 ****         7.2500 -18.5000 -16.0000 Du        
  35497 ****         7.2500 -18.5000 -15.7500 Du        
  35498 ****         7.2500 -18.5000 -15.5000 Du        
  35499 ****         7.2500 -18.5000 -15.2500 Du        
  35500 ****         7.2500 -18.5000 -15.0000 Du        
  35501 ****         7.2500 -18.5000 -14.7500 Du        
  35502 ****         7.2500 -18.2500 -16.5000 Du        
  35503 ****         7.2500 -18.2500 -16.2500 Du        
  35504 ****         7.2500 -18.2500 -16.0000 Du        
  35505 ****         7.2500 -18.2500 -15.7500 Du        
  35506 ****         7.2500 -18.2500 -15.5000 Du        
  35507 ****         7.2500 -18.2500 -15.2500 Du        
  35508 ****         7.2500 -18.2500 -15.0000 Du        
  35509 ****         7.2500 -18.0000 -16.5000 Du        
  35510 ****         7.2500 -18.0000 -16.2500 Du        
  35511 ****         7.2500 -18.0000 -16.0000 Du        
  35512 ****         7.2500 -18.0000 -15.7500 Du        
  35513 ****         7.2500 -18.0000 -15.5000 Du        
  35514 ****         7.2500 -17.7500 -16.5000 Du        
  35515 ****         7.2500 -17.7500 -16.2500 Du        
  35516 ****         7.2500 -17.7500 -16.0000 Du        
  35517 ****         7.2500 -17.7500 -15.7500 Du        
  35518 ****         7.2500 -17.5000 -16.5000 Du        
  35519 ****         7.2500 -17.5000 -16.2500 Du        
  35520 ****         7.2500 -17.5000 -16.0000 Du        
  35521 ****         7.2500 -17.2500 -16.5000 Du        
  35522 ****         7.2500 -17.2500 -16.2500 Du        
  35523 ****         7.2500 -14.0000 -23.7500 Du        
  35524 ****         7.2500 -14.0000 -23.5000 Du        
  35525 ****         7.2500 -14.0000 -23.2500 Du        
  35526 ****         7.2500 -13.7500 -23.7500 Du        
  35527 ****         7.2500 -13.7500 -23.5000 Du        
  35528 ****         7.2500 -13.7500 -23.2500 Du        
  35529 ****         7.2500 -13.7500 -23.0000 Du        
  35530 ****         7.2500 -13.5000 -23.7500 Du        
  35531 ****         7.2500 -13.5000 -23.5000 Du        
  35532 ****         7.2500 -13.5000 -23.2500 Du        
  35533 ****         7.2500 -13.5000 -23.0000 Du        
  35534 ****         7.2500 -13.2500 -24.0000 Du        
  35535 ****         7.2500 -13.2500 -23.7500 Du        
  35536 ****         7.2500 -13.2500 -23.5000 Du        
  35537 ****         7.2500 -13.2500 -23.2500 Du        
  35538 ****         7.2500 -13.2500 -23.0000 Du        
  35539 ****         7.2500 -13.0000 -23.7500 Du        
  35540 ****         7.2500 -13.0000 -23.5000 Du        
  35541 ****         7.2500 -13.0000 -23.2500 Du        
  35542 ****         7.2500 -13.0000 -23.0000 Du        
  35543 ****         7.2500 -13.0000 -22.7500 Du        
  35544 ****         7.2500 -12.7500 -23.7500 Du        
  35545 ****         7.2500 -12.7500 -23.5000 Du        
  35546 ****         7.2500 -12.7500 -23.2500 Du        
  35547 ****         7.2500 -12.7500 -23.0000 Du        
  35548 ****         7.2500 -12.7500 -22.7500 Du        
  35549 ****         7.2500 -12.5000 -23.7500 Du        
  35550 ****         7.2500 -12.5000 -23.5000 Du        
  35551 ****         7.2500 -12.5000 -23.2500 Du        
  35552 ****         7.2500 -12.5000 -23.0000 Du        
  35553 ****         7.2500 -12.5000 -22.7500 Du        
  35554 ****         7.2500 -12.2500 -23.7500 Du        
  35555 ****         7.2500 -12.2500 -23.5000 Du        
  35556 ****         7.2500 -12.2500 -23.2500 Du        
  35557 ****         7.2500 -12.2500 -23.0000 Du        
  35558 ****         7.2500 -12.2500 -22.7500 Du        
  35559 ****         7.2500 -12.0000 -23.5000 Du        
  35560 ****         7.2500 -12.0000 -23.2500 Du        
  35561 ****         7.2500 -12.0000 -23.0000 Du        
  35562 ****         7.2500 -11.7500 -23.2500 Du        
  35563 ****         7.2500 -10.7500 -20.5000 Du        
  35564 ****         7.2500 -10.5000 -20.5000 Du        
  35565 ****         7.2500 -10.2500 -20.5000 Du        
  35566 ****         7.2500 -10.2500 -20.2500 Du        
  35567 ****         7.2500 -10.0000 -20.7500 Du        
  35568 ****         7.2500 -10.0000 -20.5000 Du        
  35569 ****         7.2500  -3.7500 -19.2500 Du        
  35570 ****         7.2500  -3.5000 -19.2500 Du        
  35571 ****         7.2500  -3.2500 -19.5000 Du        
  35572 ****         7.2500  -3.2500 -19.2500 Du        
  35573 ****         7.2500  -3.0000 -19.5000 Du        
  35574 ****         7.2500  -3.0000 -19.2500 Du        
  35575 ****         7.2500  -3.0000 -19.0000 Du        
  35576 ****         7.2500  -2.7500 -19.5000 Du        
  35577 ****         7.2500  -2.7500 -19.2500 Du        
  35578 ****         7.2500  -2.7500 -19.0000 Du        
  35579 ****         7.2500  -2.5000 -19.5000 Du        
  35580 ****         7.2500  -2.5000 -19.2500 Du        
  35581 ****         7.2500  -2.5000 -19.0000 Du        
  35582 ****         7.2500  -2.2500 -19.5000 Du        
  35583 ****         7.2500  -2.2500 -19.2500 Du        
  35584 ****         7.2500  -2.2500 -19.0000 Du        
  35585 ****         7.2500  -2.2500 -18.7500 Du        
  35586 ****         7.2500  -2.0000 -19.5000 Du        
  35587 ****         7.2500  -2.0000 -19.2500 Du        
  35588 ****         7.2500  -2.0000 -19.0000 Du        
  35589 ****         7.2500  -2.0000 -18.7500 Du        
  35590 ****         7.2500  -1.7500 -19.5000 Du        
  35591 ****         7.2500  -1.7500 -19.2500 Du        
  35592 ****         7.2500  -1.7500 -19.0000 Du        
  35593 ****         7.2500  -1.7500 -18.7500 Du        
  35594 ****         7.2500  -1.7500 -18.5000 Du        
  35595 ****         7.5000 -19.7500 -13.5000 Du        
  35596 ****         7.5000 -19.5000 -14.0000 Du        
  35597 ****         7.5000 -19.5000 -13.5000 Du        
  35598 ****         7.5000 -19.2500 -14.2500 Du        
  35599 ****         7.5000 -19.0000 -16.2500 Du        
  35600 ****         7.5000 -19.0000 -16.0000 Du        
  35601 ****         7.5000 -19.0000 -15.7500 Du        
  35602 ****         7.5000 -19.0000 -15.5000 Du        
  35603 ****         7.5000 -19.0000 -15.2500 Du        
  35604 ****         7.5000 -19.0000 -15.0000 Du        
  35605 ****         7.5000 -19.0000 -14.7500 Du        
  35606 ****         7.5000 -19.0000 -14.5000 Du        
  35607 ****         7.5000 -18.7500 -16.5000 Du        
  35608 ****         7.5000 -18.7500 -16.2500 Du        
  35609 ****         7.5000 -18.7500 -16.0000 Du        
  35610 ****         7.5000 -18.7500 -15.7500 Du        
  35611 ****         7.5000 -18.7500 -15.5000 Du        
  35612 ****         7.5000 -18.7500 -15.2500 Du        
  35613 ****         7.5000 -18.7500 -15.0000 Du        
  35614 ****         7.5000 -18.7500 -14.7500 Du        
  35615 ****         7.5000 -18.5000 -16.5000 Du        
  35616 ****         7.5000 -18.5000 -16.2500 Du        
  35617 ****         7.5000 -18.5000 -16.0000 Du        
  35618 ****         7.5000 -18.5000 -15.7500 Du        
  35619 ****         7.5000 -18.5000 -15.5000 Du        
  35620 ****         7.5000 -18.5000 -15.2500 Du        
  35621 ****         7.5000 -18.5000 -15.0000 Du        
  35622 ****         7.5000 -18.5000 -14.7500 Du        
  35623 ****         7.5000 -18.2500 -16.5000 Du        
  35624 ****         7.5000 -18.2500 -16.2500 Du        
  35625 ****         7.5000 -18.2500 -16.0000 Du        
  35626 ****         7.5000 -18.2500 -15.7500 Du        
  35627 ****         7.5000 -18.2500 -15.5000 Du        
  35628 ****         7.5000 -18.2500 -15.2500 Du        
  35629 ****         7.5000 -18.2500 -15.0000 Du        
  35630 ****         7.5000 -18.0000 -16.5000 Du        
  35631 ****         7.5000 -18.0000 -16.2500 Du        
  35632 ****         7.5000 -18.0000 -16.0000 Du        
  35633 ****         7.5000 -18.0000 -15.7500 Du        
  35634 ****         7.5000 -18.0000 -15.5000 Du        
  35635 ****         7.5000 -18.0000 -15.2500 Du        
  35636 ****         7.5000 -17.7500 -16.5000 Du        
  35637 ****         7.5000 -17.7500 -16.2500 Du        
  35638 ****         7.5000 -17.7500 -16.0000 Du        
  35639 ****         7.5000 -17.7500 -15.7500 Du        
  35640 ****         7.5000 -17.7500 -15.5000 Du        
  35641 ****         7.5000 -17.5000 -16.5000 Du        
  35642 ****         7.5000 -17.5000 -16.2500 Du        
  35643 ****         7.5000 -17.5000 -16.0000 Du        
  35644 ****         7.5000 -17.5000 -15.7500 Du        
  35645 ****         7.5000 -17.2500 -16.5000 Du        
  35646 ****         7.5000 -17.2500 -16.2500 Du        
  35647 ****         7.5000 -14.2500 -23.7500 Du        
  35648 ****         7.5000 -14.2500 -23.5000 Du        
  35649 ****         7.5000 -14.0000 -24.0000 Du        
  35650 ****         7.5000 -14.0000 -23.7500 Du        
  35651 ****         7.5000 -14.0000 -23.5000 Du        
  35652 ****         7.5000 -14.0000 -23.2500 Du        
  35653 ****         7.5000 -13.7500 -24.0000 Du        
  35654 ****         7.5000 -13.7500 -23.7500 Du        
  35655 ****         7.5000 -13.7500 -23.5000 Du        
  35656 ****         7.5000 -13.7500 -23.2500 Du        
  35657 ****         7.5000 -13.5000 -24.0000 Du        
  35658 ****         7.5000 -13.5000 -23.7500 Du        
  35659 ****         7.5000 -13.5000 -23.5000 Du        
  35660 ****         7.5000 -13.5000 -23.2500 Du        
  35661 ****         7.5000 -13.2500 -24.0000 Du        
  35662 ****         7.5000 -13.2500 -23.7500 Du        
  35663 ****         7.5000 -13.2500 -23.5000 Du        
  35664 ****         7.5000 -13.2500 -23.2500 Du        
  35665 ****         7.5000 -13.2500 -23.0000 Du        
  35666 ****         7.5000 -13.0000 -24.0000 Du        
  35667 ****         7.5000 -13.0000 -23.7500 Du        
  35668 ****         7.5000 -13.0000 -23.5000 Du        
  35669 ****         7.5000 -13.0000 -23.2500 Du        
  35670 ****         7.5000 -13.0000 -23.0000 Du        
  35671 ****         7.5000 -12.7500 -23.7500 Du        
  35672 ****         7.5000 -12.7500 -23.5000 Du        
  35673 ****         7.5000 -12.7500 -23.2500 Du        
  35674 ****         7.5000 -12.7500 -23.0000 Du        
  35675 ****         7.5000 -12.7500 -22.7500 Du        
  35676 ****         7.5000 -12.5000 -23.7500 Du        
  35677 ****         7.5000 -12.5000 -23.5000 Du        
  35678 ****         7.5000 -12.5000 -23.2500 Du        
  35679 ****         7.5000 -12.5000 -23.0000 Du        
  35680 ****         7.5000 -12.2500 -23.7500 Du        
  35681 ****         7.5000 -12.2500 -23.5000 Du        
  35682 ****         7.5000 -12.2500 -23.2500 Du        
  35683 ****         7.5000 -12.2500 -23.0000 Du        
  35684 ****         7.5000 -12.2500 -22.7500 Du        
  35685 ****         7.5000 -12.0000 -23.5000 Du        
  35686 ****         7.5000 -12.0000 -23.2500 Du        
  35687 ****         7.5000 -12.0000 -23.0000 Du        
  35688 ****         7.5000 -11.7500 -23.2500 Du        
  35689 ****         7.5000 -10.7500 -20.7500 Du        
  35690 ****         7.5000 -10.7500 -20.5000 Du        
  35691 ****         7.5000 -10.7500 -20.2500 Du        
  35692 ****         7.5000 -10.5000 -20.5000 Du        
  35693 ****         7.5000 -10.5000 -20.2500 Du        
  35694 ****         7.5000 -10.2500 -20.7500 Du        
  35695 ****         7.5000 -10.2500 -20.5000 Du        
  35696 ****         7.5000 -10.2500 -20.2500 Du        
  35697 ****         7.5000 -10.0000 -20.5000 Du        
  35698 ****         7.5000  -9.7500 -23.7500 Du        
  35699 ****         7.5000  -9.7500 -20.5000 Du        
  35700 ****         7.5000  -3.2500 -19.2500 Du        
  35701 ****         7.5000  -3.0000 -19.5000 Du        
  35702 ****         7.5000  -3.0000 -19.2500 Du        
  35703 ****         7.5000  -2.7500 -19.5000 Du        
  35704 ****         7.5000  -2.7500 -19.2500 Du        
  35705 ****         7.5000  -2.7500 -19.0000 Du        
  35706 ****         7.5000  -2.5000 -19.5000 Du        
  35707 ****         7.5000  -2.5000 -19.2500 Du        
  35708 ****         7.5000  -2.5000 -19.0000 Du        
  35709 ****         7.5000  -2.2500 -19.5000 Du        
  35710 ****         7.5000  -2.2500 -19.2500 Du        
  35711 ****         7.5000  -2.2500 -19.0000 Du        
  35712 ****         7.5000  -2.2500 -18.7500 Du        
  35713 ****         7.5000  -2.0000 -19.5000 Du        
  35714 ****         7.5000  -2.0000 -19.2500 Du        
  35715 ****         7.5000  -2.0000 -19.0000 Du        
  35716 ****         7.5000  -2.0000 -18.7500 Du        
  35717 ****         7.5000  -1.7500 -19.5000 Du        
  35718 ****         7.5000  -1.7500 -19.2500 Du        
  35719 ****         7.5000  -1.7500 -19.0000 Du        
  35720 ****         7.5000  -1.7500 -18.7500 Du        
  35721 ****         7.5000  -1.7500 -18.5000 Du        
  35722 ****         7.7500 -18.2500 -16.2500 Du        
  35723 ****         7.7500 -18.2500 -16.0000 Du        
  35724 ****         7.7500 -18.2500 -15.7500 Du        
  35725 ****         7.7500 -18.2500 -15.5000 Du        
  35726 ****         7.7500 -18.2500 -15.2500 Du        
  35727 ****         7.7500 -18.2500 -15.0000 Du        
  35728 ****         7.7500 -18.0000 -16.5000 Du        
  35729 ****         7.7500 -18.0000 -16.2500 Du        
  35730 ****         7.7500 -18.0000 -16.0000 Du        
  35731 ****         7.7500 -18.0000 -15.7500 Du        
  35732 ****         7.7500 -18.0000 -15.5000 Du        
  35733 ****         7.7500 -18.0000 -15.2500 Du        
  35734 ****         7.7500 -18.0000 -15.0000 Du        
  35735 ****         7.7500 -17.7500 -16.5000 Du        
  35736 ****         7.7500 -17.7500 -16.2500 Du        
  35737 ****         7.7500 -17.7500 -16.0000 Du        
  35738 ****         7.7500 -17.7500 -15.7500 Du        
  35739 ****         7.7500 -17.7500 -15.5000 Du        
  35740 ****         7.7500 -17.7500 -15.2500 Du        
  35741 ****         7.7500 -17.5000 -16.5000 Du        
  35742 ****         7.7500 -17.5000 -16.2500 Du        
  35743 ****         7.7500 -17.5000 -16.0000 Du        
  35744 ****         7.7500 -17.5000 -15.7500 Du        
  35745 ****         7.7500 -17.2500 -16.0000 Du        
  35746 ****         7.7500 -14.2500 -23.7500 Du        
  35747 ****         7.7500 -14.2500 -23.5000 Du        
  35748 ****         7.7500 -14.0000 -24.0000 Du        
  35749 ****         7.7500 -14.0000 -23.7500 Du        
  35750 ****         7.7500 -14.0000 -23.5000 Du        
  35751 ****         7.7500 -14.0000 -23.2500 Du        
  35752 ****         7.7500 -13.7500 -24.0000 Du        
  35753 ****         7.7500 -13.7500 -23.7500 Du        
  35754 ****         7.7500 -13.7500 -23.5000 Du        
  35755 ****         7.7500 -13.7500 -23.2500 Du        
  35756 ****         7.7500 -13.5000 -24.0000 Du        
  35757 ****         7.7500 -13.5000 -23.7500 Du        
  35758 ****         7.7500 -13.5000 -23.5000 Du        
  35759 ****         7.7500 -13.5000 -23.2500 Du        
  35760 ****         7.7500 -13.2500 -24.0000 Du        
  35761 ****         7.7500 -13.2500 -23.7500 Du        
  35762 ****         7.7500 -13.2500 -23.5000 Du        
  35763 ****         7.7500 -13.2500 -23.2500 Du        
  35764 ****         7.7500 -13.2500 -23.0000 Du        
  35765 ****         7.7500 -13.0000 -24.0000 Du        
  35766 ****         7.7500 -13.0000 -23.7500 Du        
  35767 ****         7.7500 -13.0000 -23.5000 Du        
  35768 ****         7.7500 -13.0000 -23.2500 Du        
  35769 ****         7.7500 -13.0000 -23.0000 Du        
  35770 ****         7.7500 -12.7500 -23.7500 Du        
  35771 ****         7.7500 -12.7500 -23.5000 Du        
  35772 ****         7.7500 -12.7500 -23.2500 Du        
  35773 ****         7.7500 -12.7500 -23.0000 Du        
  35774 ****         7.7500 -12.5000 -23.7500 Du        
  35775 ****         7.7500 -12.5000 -23.5000 Du        
  35776 ****         7.7500 -12.5000 -23.2500 Du        
  35777 ****         7.7500 -12.5000 -23.0000 Du        
  35778 ****         7.7500 -12.2500 -23.5000 Du        
  35779 ****         7.7500 -12.2500 -23.2500 Du        
  35780 ****         7.7500 -12.2500 -23.0000 Du        
  35781 ****         7.7500 -12.2500 -22.7500 Du        
  35782 ****         7.7500 -12.0000 -23.5000 Du        
  35783 ****         7.7500 -12.0000 -23.2500 Du        
  35784 ****         7.7500 -12.0000 -23.0000 Du        
  35785 ****         7.7500 -11.7500 -23.2500 Du        
  35786 ****         7.7500 -11.2500 -20.5000 Du        
  35787 ****         7.7500 -11.2500 -20.2500 Du        
  35788 ****         7.7500 -11.0000 -21.0000 Du        
  35789 ****         7.7500 -11.0000 -20.7500 Du        
  35790 ****         7.7500 -11.0000 -20.5000 Du        
  35791 ****         7.7500 -11.0000 -20.2500 Du        
  35792 ****         7.7500 -11.0000 -20.0000 Du        
  35793 ****         7.7500 -10.7500 -21.0000 Du        
  35794 ****         7.7500 -10.7500 -20.7500 Du        
  35795 ****         7.7500 -10.7500 -20.5000 Du        
  35796 ****         7.7500 -10.7500 -20.2500 Du        
  35797 ****         7.7500 -10.5000 -21.0000 Du        
  35798 ****         7.7500 -10.5000 -20.7500 Du        
  35799 ****         7.7500 -10.5000 -20.5000 Du        
  35800 ****         7.7500 -10.5000 -20.2500 Du        
  35801 ****         7.7500 -10.2500 -21.0000 Du        
  35802 ****         7.7500 -10.2500 -20.7500 Du        
  35803 ****         7.7500 -10.2500 -20.5000 Du        
  35804 ****         7.7500 -10.2500 -20.2500 Du        
  35805 ****         7.7500 -10.0000 -20.7500 Du        
  35806 ****         7.7500 -10.0000 -20.5000 Du        
  35807 ****         7.7500 -10.0000 -20.2500 Du        
  35808 ****         7.7500  -9.7500 -20.5000 Du        
  35809 ****         7.7500  -9.7500 -20.2500 Du        
  35810 ****         7.7500  -3.2500 -19.2500 Du        
  35811 ****         7.7500  -3.0000 -19.5000 Du        
  35812 ****         7.7500  -3.0000 -19.2500 Du        
  35813 ****         7.7500  -3.0000 -19.0000 Du        
  35814 ****         7.7500  -2.7500 -19.5000 Du        
  35815 ****         7.7500  -2.7500 -19.2500 Du        
  35816 ****         7.7500  -2.7500 -19.0000 Du        
  35817 ****         7.7500  -2.5000 -19.5000 Du        
  35818 ****         7.7500  -2.5000 -19.2500 Du        
  35819 ****         7.7500  -2.5000 -19.0000 Du        
  35820 ****         7.7500  -2.2500 -19.5000 Du        
  35821 ****         7.7500  -2.2500 -19.2500 Du        
  35822 ****         7.7500  -2.2500 -19.0000 Du        
  35823 ****         7.7500  -2.2500 -18.7500 Du        
  35824 ****         7.7500  -2.0000 -19.5000 Du        
  35825 ****         7.7500  -2.0000 -19.2500 Du        
  35826 ****         7.7500  -2.0000 -19.0000 Du        
  35827 ****         7.7500  -2.0000 -18.7500 Du        
  35828 ****         7.7500  -2.0000 -18.5000 Du        
  35829 ****         7.7500  -1.7500 -19.5000 Du        
  35830 ****         7.7500  -1.7500 -19.2500 Du        
  35831 ****         7.7500  -1.7500 -19.0000 Du        
  35832 ****         7.7500  -1.7500 -18.7500 Du        
  35833 ****         7.7500  -1.7500 -18.5000 Du        
  35834 ****         7.7500  -1.5000 -19.0000 Du        
  35835 ****         8.0000 -18.0000 -16.2500 Du        
  35836 ****         8.0000 -18.0000 -16.0000 Du        
  35837 ****         8.0000 -18.0000 -15.7500 Du        
  35838 ****         8.0000 -17.7500 -16.2500 Du        
  35839 ****         8.0000 -17.7500 -16.0000 Du        
  35840 ****         8.0000 -17.7500 -15.7500 Du        
  35841 ****         8.0000 -17.7500 -15.5000 Du        
  35842 ****         8.0000 -17.5000 -16.2500 Du        
  35843 ****         8.0000 -17.5000 -16.0000 Du        
  35844 ****         8.0000 -17.5000 -15.7500 Du        
  35845 ****         8.0000 -17.5000 -15.5000 Du        
  35846 ****         8.0000 -14.2500 -24.0000 Du        
  35847 ****         8.0000 -14.2500 -23.7500 Du        
  35848 ****         8.0000 -14.2500 -23.5000 Du        
  35849 ****         8.0000 -14.0000 -24.2500 Du        
  35850 ****         8.0000 -14.0000 -24.0000 Du        
  35851 ****         8.0000 -14.0000 -23.7500 Du        
  35852 ****         8.0000 -14.0000 -23.5000 Du        
  35853 ****         8.0000 -14.0000 -23.2500 Du        
  35854 ****         8.0000 -13.7500 -24.0000 Du        
  35855 ****         8.0000 -13.7500 -23.7500 Du        
  35856 ****         8.0000 -13.7500 -23.5000 Du        
  35857 ****         8.0000 -13.7500 -23.2500 Du        
  35858 ****         8.0000 -13.5000 -24.0000 Du        
  35859 ****         8.0000 -13.5000 -23.7500 Du        
  35860 ****         8.0000 -13.5000 -23.5000 Du        
  35861 ****         8.0000 -13.5000 -23.2500 Du        
  35862 ****         8.0000 -13.2500 -24.0000 Du        
  35863 ****         8.0000 -13.2500 -23.7500 Du        
  35864 ****         8.0000 -13.2500 -23.5000 Du        
  35865 ****         8.0000 -13.2500 -23.2500 Du        
  35866 ****         8.0000 -13.0000 -23.7500 Du        
  35867 ****         8.0000 -13.0000 -23.5000 Du        
  35868 ****         8.0000 -13.0000 -23.2500 Du        
  35869 ****         8.0000 -13.0000 -23.0000 Du        
  35870 ****         8.0000 -12.7500 -23.7500 Du        
  35871 ****         8.0000 -12.7500 -23.5000 Du        
  35872 ****         8.0000 -12.7500 -23.2500 Du        
  35873 ****         8.0000 -12.7500 -23.0000 Du        
  35874 ****         8.0000 -12.5000 -23.5000 Du        
  35875 ****         8.0000 -12.5000 -23.2500 Du        
  35876 ****         8.0000 -12.5000 -23.0000 Du        
  35877 ****         8.0000 -12.2500 -23.5000 Du        
  35878 ****         8.0000 -12.2500 -23.2500 Du        
  35879 ****         8.0000 -12.2500 -23.0000 Du        
  35880 ****         8.0000 -12.0000 -23.2500 Du        
  35881 ****         8.0000 -12.0000 -23.0000 Du        
  35882 ****         8.0000 -12.0000 -22.7500 Du        
  35883 ****         8.0000 -11.7500 -23.2500 Du        
  35884 ****         8.0000 -11.7500 -23.0000 Du        
  35885 ****         8.0000 -11.7500 -22.7500 Du        
  35886 ****         8.0000 -11.2500 -23.0000 Du        
  35887 ****         8.0000 -11.2500 -20.7500 Du        
  35888 ****         8.0000 -11.2500 -20.5000 Du        
  35889 ****         8.0000 -11.2500 -20.2500 Du        
  35890 ****         8.0000 -11.0000 -21.0000 Du        
  35891 ****         8.0000 -11.0000 -20.7500 Du        
  35892 ****         8.0000 -11.0000 -20.5000 Du        
  35893 ****         8.0000 -11.0000 -20.2500 Du        
  35894 ****         8.0000 -11.0000 -20.0000 Du        
  35895 ****         8.0000 -10.7500 -21.2500 Du        
  35896 ****         8.0000 -10.7500 -21.0000 Du        
  35897 ****         8.0000 -10.7500 -20.7500 Du        
  35898 ****         8.0000 -10.7500 -20.5000 Du        
  35899 ****         8.0000 -10.7500 -20.2500 Du        
  35900 ****         8.0000 -10.7500 -20.0000 Du        
  35901 ****         8.0000 -10.5000 -21.0000 Du        
  35902 ****         8.0000 -10.5000 -20.7500 Du        
  35903 ****         8.0000 -10.5000 -20.5000 Du        
  35904 ****         8.0000 -10.5000 -20.2500 Du        
  35905 ****         8.0000 -10.2500 -21.0000 Du        
  35906 ****         8.0000 -10.2500 -20.7500 Du        
  35907 ****         8.0000 -10.2500 -20.5000 Du        
  35908 ****         8.0000 -10.2500 -20.2500 Du        
  35909 ****         8.0000 -10.0000 -20.7500 Du        
  35910 ****         8.0000 -10.0000 -20.5000 Du        
  35911 ****         8.0000 -10.0000 -20.2500 Du        
  35912 ****         8.0000  -9.7500 -20.5000 Du        
  35913 ****         8.0000  -9.7500 -20.2500 Du        
  35914 ****         8.0000  -3.2500 -19.2500 Du        
  35915 ****         8.0000  -3.2500 -19.0000 Du        
  35916 ****         8.0000  -3.0000 -19.5000 Du        
  35917 ****         8.0000  -3.0000 -19.2500 Du        
  35918 ****         8.0000  -3.0000 -19.0000 Du        
  35919 ****         8.0000  -2.7500 -19.5000 Du        
  35920 ****         8.0000  -2.7500 -19.2500 Du        
  35921 ****         8.0000  -2.7500 -19.0000 Du        
  35922 ****         8.0000  -2.7500 -18.7500 Du        
  35923 ****         8.0000  -2.5000 -19.5000 Du        
  35924 ****         8.0000  -2.5000 -19.2500 Du        
  35925 ****         8.0000  -2.5000 -19.0000 Du        
  35926 ****         8.0000  -2.5000 -18.7500 Du        
  35927 ****         8.0000  -2.2500 -19.5000 Du        
  35928 ****         8.0000  -2.2500 -19.2500 Du        
  35929 ****         8.0000  -2.2500 -19.0000 Du        
  35930 ****         8.0000  -2.2500 -18.7500 Du        
  35931 ****         8.0000  -2.2500 -18.5000 Du        
  35932 ****         8.0000  -2.0000 -19.5000 Du        
  35933 ****         8.0000  -2.0000 -19.2500 Du        
  35934 ****         8.0000  -2.0000 -19.0000 Du        
  35935 ****         8.0000  -2.0000 -18.7500 Du        
  35936 ****         8.0000  -2.0000 -18.5000 Du        
  35937 ****         8.0000  -1.7500 -19.2500 Du        
  35938 ****         8.0000  -1.7500 -19.0000 Du        
  35939 ****         8.0000  -1.7500 -18.7500 Du        
  35940 ****         8.0000  -1.7500 -18.5000 Du        
  35941 ****         8.0000  -1.7500 -18.2500 Du        
  35942 ****         8.0000  -1.5000 -19.0000 Du        
  35943 ****         8.0000  -1.5000 -18.7500 Du        
  35944 ****         8.0000  -1.2500 -19.0000 Du        
  35945 ****         8.2500 -14.2500 -24.0000 Du        
  35946 ****         8.2500 -14.2500 -23.7500 Du        
  35947 ****         8.2500 -14.2500 -23.5000 Du        
  35948 ****         8.2500 -14.0000 -24.2500 Du        
  35949 ****         8.2500 -14.0000 -24.0000 Du        
  35950 ****         8.2500 -14.0000 -23.7500 Du        
  35951 ****         8.2500 -14.0000 -23.5000 Du        
  35952 ****         8.2500 -13.7500 -24.0000 Du        
  35953 ****         8.2500 -13.7500 -23.7500 Du        
  35954 ****         8.2500 -13.7500 -23.5000 Du        
  35955 ****         8.2500 -13.7500 -23.2500 Du        
  35956 ****         8.2500 -13.5000 -24.0000 Du        
  35957 ****         8.2500 -13.5000 -23.7500 Du        
  35958 ****         8.2500 -13.5000 -23.5000 Du        
  35959 ****         8.2500 -13.5000 -23.2500 Du        
  35960 ****         8.2500 -13.2500 -24.0000 Du        
  35961 ****         8.2500 -13.2500 -23.7500 Du        
  35962 ****         8.2500 -13.2500 -23.5000 Du        
  35963 ****         8.2500 -13.2500 -23.2500 Du        
  35964 ****         8.2500 -13.0000 -23.7500 Du        
  35965 ****         8.2500 -13.0000 -23.5000 Du        
  35966 ****         8.2500 -13.0000 -23.2500 Du        
  35967 ****         8.2500 -13.0000 -23.0000 Du        
  35968 ****         8.2500 -12.7500 -23.7500 Du        
  35969 ****         8.2500 -12.7500 -23.5000 Du        
  35970 ****         8.2500 -12.7500 -23.2500 Du        
  35971 ****         8.2500 -12.7500 -23.0000 Du        
  35972 ****         8.2500 -12.5000 -23.5000 Du        
  35973 ****         8.2500 -12.5000 -23.2500 Du        
  35974 ****         8.2500 -12.5000 -23.0000 Du        
  35975 ****         8.2500 -12.2500 -23.2500 Du        
  35976 ****         8.2500 -12.2500 -23.0000 Du        
  35977 ****         8.2500 -12.2500 -22.7500 Du        
  35978 ****         8.2500 -12.0000 -23.2500 Du        
  35979 ****         8.2500 -12.0000 -23.0000 Du        
  35980 ****         8.2500 -11.7500 -23.2500 Du        
  35981 ****         8.2500 -11.7500 -23.0000 Du        
  35982 ****         8.2500 -11.5000 -23.0000 Du        
  35983 ****         8.2500 -11.5000 -20.5000 Du        
  35984 ****         8.2500 -11.2500 -23.0000 Du        
  35985 ****         8.2500 -11.2500 -22.7500 Du        
  35986 ****         8.2500 -11.2500 -21.0000 Du        
  35987 ****         8.2500 -11.2500 -20.7500 Du        
  35988 ****         8.2500 -11.2500 -20.5000 Du        
  35989 ****         8.2500 -11.2500 -20.2500 Du        
  35990 ****         8.2500 -11.2500 -20.0000 Du        
  35991 ****         8.2500 -11.0000 -23.0000 Du        
  35992 ****         8.2500 -11.0000 -21.2500 Du        
  35993 ****         8.2500 -11.0000 -21.0000 Du        
  35994 ****         8.2500 -11.0000 -20.7500 Du        
  35995 ****         8.2500 -11.0000 -20.5000 Du        
  35996 ****         8.2500 -11.0000 -20.2500 Du        
  35997 ****         8.2500 -11.0000 -20.0000 Du        
  35998 ****         8.2500 -10.7500 -21.2500 Du        
  35999 ****         8.2500 -10.7500 -21.0000 Du        
  36000 ****         8.2500 -10.7500 -20.7500 Du        
  36001 ****         8.2500 -10.7500 -20.5000 Du        
  36002 ****         8.2500 -10.7500 -20.2500 Du        
  36003 ****         8.2500 -10.7500 -20.0000 Du        
  36004 ****         8.2500 -10.5000 -21.0000 Du        
  36005 ****         8.2500 -10.5000 -20.7500 Du        
  36006 ****         8.2500 -10.5000 -20.5000 Du        
  36007 ****         8.2500 -10.5000 -20.2500 Du        
  36008 ****         8.2500 -10.2500 -21.0000 Du        
  36009 ****         8.2500 -10.2500 -20.7500 Du        
  36010 ****         8.2500 -10.2500 -20.5000 Du        
  36011 ****         8.2500 -10.2500 -20.2500 Du        
  36012 ****         8.2500 -10.0000 -20.7500 Du        
  36013 ****         8.2500 -10.0000 -20.5000 Du        
  36014 ****         8.2500 -10.0000 -20.2500 Du        
  36015 ****         8.2500  -3.7500 -19.0000 Du        
  36016 ****         8.2500  -3.5000 -19.0000 Du        
  36017 ****         8.2500  -3.2500 -19.2500 Du        
  36018 ****         8.2500  -3.2500 -19.0000 Du        
  36019 ****         8.2500  -3.0000 -19.5000 Du        
  36020 ****         8.2500  -3.0000 -19.2500 Du        
  36021 ****         8.2500  -3.0000 -19.0000 Du        
  36022 ****         8.2500  -3.0000 -18.7500 Du        
  36023 ****         8.2500  -2.7500 -19.5000 Du        
  36024 ****         8.2500  -2.7500 -19.2500 Du        
  36025 ****         8.2500  -2.7500 -19.0000 Du        
  36026 ****         8.2500  -2.7500 -18.7500 Du        
  36027 ****         8.2500  -2.5000 -19.5000 Du        
  36028 ****         8.2500  -2.5000 -19.2500 Du        
  36029 ****         8.2500  -2.5000 -19.0000 Du        
  36030 ****         8.2500  -2.5000 -18.7500 Du        
  36031 ****         8.2500  -2.2500 -19.5000 Du        
  36032 ****         8.2500  -2.2500 -19.2500 Du        
  36033 ****         8.2500  -2.2500 -19.0000 Du        
  36034 ****         8.2500  -2.2500 -18.7500 Du        
  36035 ****         8.2500  -2.2500 -18.5000 Du        
  36036 ****         8.2500  -2.0000 -19.2500 Du        
  36037 ****         8.2500  -2.0000 -19.0000 Du        
  36038 ****         8.2500  -2.0000 -18.7500 Du        
  36039 ****         8.2500  -2.0000 -18.5000 Du        
  36040 ****         8.2500  -2.0000 -18.2500 Du        
  36041 ****         8.2500  -1.7500 -19.2500 Du        
  36042 ****         8.2500  -1.7500 -19.0000 Du        
  36043 ****         8.2500  -1.7500 -18.7500 Du        
  36044 ****         8.2500  -1.7500 -18.5000 Du        
  36045 ****         8.2500  -1.7500 -18.2500 Du        
  36046 ****         8.5000 -14.2500 -24.0000 Du        
  36047 ****         8.5000 -14.2500 -23.7500 Du        
  36048 ****         8.5000 -14.2500 -23.5000 Du        
  36049 ****         8.5000 -14.0000 -24.2500 Du        
  36050 ****         8.5000 -14.0000 -24.0000 Du        
  36051 ****         8.5000 -14.0000 -23.7500 Du        
  36052 ****         8.5000 -14.0000 -23.5000 Du        
  36053 ****         8.5000 -13.7500 -24.0000 Du        
  36054 ****         8.5000 -13.7500 -23.7500 Du        
  36055 ****         8.5000 -13.7500 -23.5000 Du        
  36056 ****         8.5000 -13.7500 -23.2500 Du        
  36057 ****         8.5000 -13.5000 -24.0000 Du        
  36058 ****         8.5000 -13.5000 -23.7500 Du        
  36059 ****         8.5000 -13.5000 -23.5000 Du        
  36060 ****         8.5000 -13.5000 -23.2500 Du        
  36061 ****         8.5000 -13.2500 -23.7500 Du        
  36062 ****         8.5000 -13.2500 -23.5000 Du        
  36063 ****         8.5000 -13.2500 -23.2500 Du        
  36064 ****         8.5000 -13.0000 -23.7500 Du        
  36065 ****         8.5000 -13.0000 -23.5000 Du        
  36066 ****         8.5000 -13.0000 -23.2500 Du        
  36067 ****         8.5000 -13.0000 -23.0000 Du        
  36068 ****         8.5000 -12.7500 -23.7500 Du        
  36069 ****         8.5000 -12.7500 -23.5000 Du        
  36070 ****         8.5000 -12.7500 -23.2500 Du        
  36071 ****         8.5000 -12.7500 -23.0000 Du        
  36072 ****         8.5000 -12.5000 -23.2500 Du        
  36073 ****         8.5000 -12.5000 -23.0000 Du        
  36074 ****         8.5000 -12.2500 -23.2500 Du        
  36075 ****         8.5000 -12.2500 -23.0000 Du        
  36076 ****         8.5000 -12.0000 -23.2500 Du        
  36077 ****         8.5000 -12.0000 -23.0000 Du        
  36078 ****         8.5000 -11.7500 -23.2500 Du        
  36079 ****         8.5000 -11.7500 -23.0000 Du        
  36080 ****         8.5000 -11.7500 -22.7500 Du        
  36081 ****         8.5000 -11.5000 -23.0000 Du        
  36082 ****         8.5000 -11.5000 -22.7500 Du        
  36083 ****         8.5000 -11.5000 -21.0000 Du        
  36084 ****         8.5000 -11.5000 -20.7500 Du        
  36085 ****         8.5000 -11.5000 -20.5000 Du        
  36086 ****         8.5000 -11.5000 -20.2500 Du        
  36087 ****         8.5000 -11.5000 -20.0000 Du        
  36088 ****         8.5000 -11.2500 -23.2500 Du        
  36089 ****         8.5000 -11.2500 -23.0000 Du        
  36090 ****         8.5000 -11.2500 -22.7500 Du        
  36091 ****         8.5000 -11.2500 -22.5000 Du        
  36092 ****         8.5000 -11.2500 -22.2500 Du        
  36093 ****         8.5000 -11.2500 -22.0000 Du        
  36094 ****         8.5000 -11.2500 -21.7500 Du        
  36095 ****         8.5000 -11.2500 -21.5000 Du        
  36096 ****         8.5000 -11.2500 -21.2500 Du        
  36097 ****         8.5000 -11.2500 -21.0000 Du        
  36098 ****         8.5000 -11.2500 -20.7500 Du        
  36099 ****         8.5000 -11.2500 -20.5000 Du        
  36100 ****         8.5000 -11.2500 -20.2500 Du        
  36101 ****         8.5000 -11.2500 -20.0000 Du        
  36102 ****         8.5000 -11.0000 -23.2500 Du        
  36103 ****         8.5000 -11.0000 -23.0000 Du        
  36104 ****         8.5000 -11.0000 -22.7500 Du        
  36105 ****         8.5000 -11.0000 -22.5000 Du        
  36106 ****         8.5000 -11.0000 -22.2500 Du        
  36107 ****         8.5000 -11.0000 -22.0000 Du        
  36108 ****         8.5000 -11.0000 -21.7500 Du        
  36109 ****         8.5000 -11.0000 -21.5000 Du        
  36110 ****         8.5000 -11.0000 -21.2500 Du        
  36111 ****         8.5000 -11.0000 -21.0000 Du        
  36112 ****         8.5000 -11.0000 -20.7500 Du        
  36113 ****         8.5000 -11.0000 -20.5000 Du        
  36114 ****         8.5000 -11.0000 -20.2500 Du        
  36115 ****         8.5000 -11.0000 -20.0000 Du        
  36116 ****         8.5000 -10.7500 -23.0000 Du        
  36117 ****         8.5000 -10.7500 -22.7500 Du        
  36118 ****         8.5000 -10.7500 -22.5000 Du        
  36119 ****         8.5000 -10.7500 -22.2500 Du        
  36120 ****         8.5000 -10.7500 -22.0000 Du        
  36121 ****         8.5000 -10.7500 -21.7500 Du        
  36122 ****         8.5000 -10.7500 -21.5000 Du        
  36123 ****         8.5000 -10.7500 -21.2500 Du        
  36124 ****         8.5000 -10.7500 -21.0000 Du        
  36125 ****         8.5000 -10.7500 -20.7500 Du        
  36126 ****         8.5000 -10.7500 -20.5000 Du        
  36127 ****         8.5000 -10.7500 -20.2500 Du        
  36128 ****         8.5000 -10.7500 -20.0000 Du        
  36129 ****         8.5000 -10.5000 -23.0000 Du        
  36130 ****         8.5000 -10.5000 -22.2500 Du        
  36131 ****         8.5000 -10.5000 -22.0000 Du        
  36132 ****         8.5000 -10.5000 -21.7500 Du        
  36133 ****         8.5000 -10.5000 -21.5000 Du        
  36134 ****         8.5000 -10.5000 -21.2500 Du        
  36135 ****         8.5000 -10.5000 -21.0000 Du        
  36136 ****         8.5000 -10.5000 -20.7500 Du        
  36137 ****         8.5000 -10.5000 -20.5000 Du        
  36138 ****         8.5000 -10.5000 -20.2500 Du        
  36139 ****         8.5000 -10.5000 -20.0000 Du        
  36140 ****         8.5000 -10.2500 -23.2500 Du        
  36141 ****         8.5000 -10.2500 -23.0000 Du        
  36142 ****         8.5000 -10.2500 -21.2500 Du        
  36143 ****         8.5000 -10.2500 -21.0000 Du        
  36144 ****         8.5000 -10.2500 -20.7500 Du        
  36145 ****         8.5000 -10.2500 -20.5000 Du        
  36146 ****         8.5000 -10.2500 -20.2500 Du        
  36147 ****         8.5000 -10.0000 -20.7500 Du        
  36148 ****         8.5000 -10.0000 -20.5000 Du        
  36149 ****         8.5000 -10.0000 -20.2500 Du        
  36150 ****         8.5000  -3.5000 -19.0000 Du        
  36151 ****         8.5000  -3.2500 -19.2500 Du        
  36152 ****         8.5000  -3.2500 -19.0000 Du        
  36153 ****         8.5000  -3.0000 -19.2500 Du        
  36154 ****         8.5000  -3.0000 -19.0000 Du        
  36155 ****         8.5000  -3.0000 -18.7500 Du        
  36156 ****         8.5000  -2.7500 -19.5000 Du        
  36157 ****         8.5000  -2.7500 -19.2500 Du        
  36158 ****         8.5000  -2.7500 -19.0000 Du        
  36159 ****         8.5000  -2.7500 -18.7500 Du        
  36160 ****         8.5000  -2.5000 -19.2500 Du        
  36161 ****         8.5000  -2.5000 -19.0000 Du        
  36162 ****         8.5000  -2.5000 -18.7500 Du        
  36163 ****         8.5000  -2.5000 -18.5000 Du        
  36164 ****         8.5000  -2.2500 -19.2500 Du        
  36165 ****         8.5000  -2.2500 -19.0000 Du        
  36166 ****         8.5000  -2.2500 -18.7500 Du        
  36167 ****         8.5000  -2.2500 -18.5000 Du        
  36168 ****         8.5000  -2.2500 -18.2500 Du        
  36169 ****         8.5000  -2.0000 -19.2500 Du        
  36170 ****         8.5000  -2.0000 -19.0000 Du        
  36171 ****         8.5000  -2.0000 -18.7500 Du        
  36172 ****         8.5000  -2.0000 -18.5000 Du        
  36173 ****         8.5000  -2.0000 -18.2500 Du        
  36174 ****         8.5000  -1.7500 -19.0000 Du        
  36175 ****         8.5000  -1.7500 -18.7500 Du        
  36176 ****         8.5000  -1.7500 -18.5000 Du        
  36177 ****         8.5000  -1.7500 -18.2500 Du        
  36178 ****         8.5000  -1.5000 -18.5000 Du        
  36179 ****         8.7500 -18.5000 -11.5000 Du        
  36180 ****         8.7500 -18.5000 -11.2500 Du        
  36181 ****         8.7500 -18.2500 -11.5000 Du        
  36182 ****         8.7500 -18.2500 -11.2500 Du        
  36183 ****         8.7500 -14.2500 -24.0000 Du        
  36184 ****         8.7500 -14.2500 -23.7500 Du        
  36185 ****         8.7500 -14.2500 -23.5000 Du        
  36186 ****         8.7500 -14.0000 -24.0000 Du        
  36187 ****         8.7500 -14.0000 -23.7500 Du        
  36188 ****         8.7500 -14.0000 -23.5000 Du        
  36189 ****         8.7500 -14.0000 -23.2500 Du        
  36190 ****         8.7500 -13.7500 -24.0000 Du        
  36191 ****         8.7500 -13.7500 -23.7500 Du        
  36192 ****         8.7500 -13.7500 -23.5000 Du        
  36193 ****         8.7500 -13.7500 -23.2500 Du        
  36194 ****         8.7500 -13.5000 -24.0000 Du        
  36195 ****         8.7500 -13.5000 -23.7500 Du        
  36196 ****         8.7500 -13.5000 -23.5000 Du        
  36197 ****         8.7500 -13.5000 -23.2500 Du        
  36198 ****         8.7500 -13.2500 -23.7500 Du        
  36199 ****         8.7500 -13.2500 -23.5000 Du        
  36200 ****         8.7500 -13.2500 -23.2500 Du        
  36201 ****         8.7500 -13.2500 -23.0000 Du        
  36202 ****         8.7500 -13.0000 -23.7500 Du        
  36203 ****         8.7500 -13.0000 -23.5000 Du        
  36204 ****         8.7500 -13.0000 -23.2500 Du        
  36205 ****         8.7500 -13.0000 -23.0000 Du        
  36206 ****         8.7500 -12.7500 -23.7500 Du        
  36207 ****         8.7500 -12.7500 -23.5000 Du        
  36208 ****         8.7500 -12.7500 -23.2500 Du        
  36209 ****         8.7500 -12.7500 -23.0000 Du        
  36210 ****         8.7500 -12.7500 -22.7500 Du        
  36211 ****         8.7500 -12.5000 -23.2500 Du        
  36212 ****         8.7500 -12.5000 -23.0000 Du        
  36213 ****         8.7500 -12.2500 -23.2500 Du        
  36214 ****         8.7500 -12.2500 -23.0000 Du        
  36215 ****         8.7500 -12.2500 -22.7500 Du        
  36216 ****         8.7500 -12.2500 -22.5000 Du        
  36217 ****         8.7500 -12.0000 -23.2500 Du        
  36218 ****         8.7500 -12.0000 -23.0000 Du        
  36219 ****         8.7500 -12.0000 -22.7500 Du        
  36220 ****         8.7500 -12.0000 -22.5000 Du        
  36221 ****         8.7500 -12.0000 -22.2500 Du        
  36222 ****         8.7500 -11.7500 -23.2500 Du        
  36223 ****         8.7500 -11.7500 -23.0000 Du        
  36224 ****         8.7500 -11.7500 -22.7500 Du        
  36225 ****         8.7500 -11.7500 -22.5000 Du        
  36226 ****         8.7500 -11.7500 -22.2500 Du        
  36227 ****         8.7500 -11.7500 -22.0000 Du        
  36228 ****         8.7500 -11.7500 -21.7500 Du        
  36229 ****         8.7500 -11.5000 -23.2500 Du        
  36230 ****         8.7500 -11.5000 -23.0000 Du        
  36231 ****         8.7500 -11.5000 -22.7500 Du        
  36232 ****         8.7500 -11.5000 -22.5000 Du        
  36233 ****         8.7500 -11.5000 -22.2500 Du        
  36234 ****         8.7500 -11.5000 -22.0000 Du        
  36235 ****         8.7500 -11.5000 -21.7500 Du        
  36236 ****         8.7500 -11.5000 -21.5000 Du        
  36237 ****         8.7500 -11.5000 -21.2500 Du        
  36238 ****         8.7500 -11.5000 -21.0000 Du        
  36239 ****         8.7500 -11.5000 -20.7500 Du        
  36240 ****         8.7500 -11.5000 -20.5000 Du        
  36241 ****         8.7500 -11.5000 -20.2500 Du        
  36242 ****         8.7500 -11.5000 -20.0000 Du        
  36243 ****         8.7500 -11.2500 -23.2500 Du        
  36244 ****         8.7500 -11.2500 -23.0000 Du        
  36245 ****         8.7500 -11.2500 -22.7500 Du        
  36246 ****         8.7500 -11.2500 -22.5000 Du        
  36247 ****         8.7500 -11.2500 -22.2500 Du        
  36248 ****         8.7500 -11.2500 -22.0000 Du        
  36249 ****         8.7500 -11.2500 -21.7500 Du        
  36250 ****         8.7500 -11.2500 -21.5000 Du        
  36251 ****         8.7500 -11.2500 -21.2500 Du        
  36252 ****         8.7500 -11.2500 -21.0000 Du        
  36253 ****         8.7500 -11.2500 -20.7500 Du        
  36254 ****         8.7500 -11.2500 -20.5000 Du        
  36255 ****         8.7500 -11.2500 -20.2500 Du        
  36256 ****         8.7500 -11.2500 -20.0000 Du        
  36257 ****         8.7500 -11.2500 -19.7500 Du        
  36258 ****         8.7500 -11.0000 -23.5000 Du        
  36259 ****         8.7500 -11.0000 -23.2500 Du        
  36260 ****         8.7500 -11.0000 -23.0000 Du        
  36261 ****         8.7500 -11.0000 -22.7500 Du        
  36262 ****         8.7500 -11.0000 -22.5000 Du        
  36263 ****         8.7500 -11.0000 -22.2500 Du        
  36264 ****         8.7500 -11.0000 -22.0000 Du        
  36265 ****         8.7500 -11.0000 -21.7500 Du        
  36266 ****         8.7500 -11.0000 -21.5000 Du        
  36267 ****         8.7500 -11.0000 -21.2500 Du        
  36268 ****         8.7500 -11.0000 -21.0000 Du        
  36269 ****         8.7500 -11.0000 -20.7500 Du        
  36270 ****         8.7500 -11.0000 -20.5000 Du        
  36271 ****         8.7500 -11.0000 -20.2500 Du        
  36272 ****         8.7500 -11.0000 -20.0000 Du        
  36273 ****         8.7500 -10.7500 -23.5000 Du        
  36274 ****         8.7500 -10.7500 -23.2500 Du        
  36275 ****         8.7500 -10.7500 -23.0000 Du        
  36276 ****         8.7500 -10.7500 -22.7500 Du        
  36277 ****         8.7500 -10.7500 -22.5000 Du        
  36278 ****         8.7500 -10.7500 -22.2500 Du        
  36279 ****         8.7500 -10.7500 -22.0000 Du        
  36280 ****         8.7500 -10.7500 -21.7500 Du        
  36281 ****         8.7500 -10.7500 -21.5000 Du        
  36282 ****         8.7500 -10.7500 -21.2500 Du        
  36283 ****         8.7500 -10.7500 -21.0000 Du        
  36284 ****         8.7500 -10.7500 -20.7500 Du        
  36285 ****         8.7500 -10.7500 -20.5000 Du        
  36286 ****         8.7500 -10.7500 -20.2500 Du        
  36287 ****         8.7500 -10.7500 -20.0000 Du        
  36288 ****         8.7500 -10.5000 -23.5000 Du        
  36289 ****         8.7500 -10.5000 -23.2500 Du        
  36290 ****         8.7500 -10.5000 -23.0000 Du        
  36291 ****         8.7500 -10.5000 -22.7500 Du        
  36292 ****         8.7500 -10.5000 -22.5000 Du        
  36293 ****         8.7500 -10.5000 -22.2500 Du        
  36294 ****         8.7500 -10.5000 -22.0000 Du        
  36295 ****         8.7500 -10.5000 -21.7500 Du        
  36296 ****         8.7500 -10.5000 -21.5000 Du        
  36297 ****         8.7500 -10.5000 -21.2500 Du        
  36298 ****         8.7500 -10.5000 -21.0000 Du        
  36299 ****         8.7500 -10.5000 -20.7500 Du        
  36300 ****         8.7500 -10.5000 -20.5000 Du        
  36301 ****         8.7500 -10.5000 -20.2500 Du        
  36302 ****         8.7500 -10.5000 -20.0000 Du        
  36303 ****         8.7500 -10.2500 -23.5000 Du        
  36304 ****         8.7500 -10.2500 -23.2500 Du        
  36305 ****         8.7500 -10.2500 -23.0000 Du        
  36306 ****         8.7500 -10.2500 -22.7500 Du        
  36307 ****         8.7500 -10.2500 -21.2500 Du        
  36308 ****         8.7500 -10.2500 -21.0000 Du        
  36309 ****         8.7500 -10.2500 -20.7500 Du        
  36310 ****         8.7500 -10.2500 -20.5000 Du        
  36311 ****         8.7500 -10.2500 -20.2500 Du        
  36312 ****         8.7500 -10.2500 -20.0000 Du        
  36313 ****         8.7500 -10.0000 -23.5000 Du        
  36314 ****         8.7500 -10.0000 -23.2500 Du        
  36315 ****         8.7500 -10.0000 -20.7500 Du        
  36316 ****         8.7500 -10.0000 -20.5000 Du        
  36317 ****         8.7500 -10.0000 -20.2500 Du        
  36318 ****         8.7500  -3.2500 -19.2500 Du        
  36319 ****         8.7500  -3.2500 -19.0000 Du        
  36320 ****         8.7500  -3.0000 -19.2500 Du        
  36321 ****         8.7500  -3.0000 -19.0000 Du        
  36322 ****         8.7500  -3.0000 -18.7500 Du        
  36323 ****         8.7500  -2.7500 -19.2500 Du        
  36324 ****         8.7500  -2.7500 -19.0000 Du        
  36325 ****         8.7500  -2.7500 -18.7500 Du        
  36326 ****         8.7500  -2.5000 -19.0000 Du        
  36327 ****         8.7500  -2.5000 -18.7500 Du        
  36328 ****         8.7500  -2.5000 -18.5000 Du        
  36329 ****         8.7500  -2.2500 -19.0000 Du        
  36330 ****         8.7500  -2.2500 -18.7500 Du        
  36331 ****         8.7500  -2.2500 -18.5000 Du        
  36332 ****         8.7500  -2.2500 -18.2500 Du        
  36333 ****         8.7500  -2.0000 -19.0000 Du        
  36334 ****         8.7500  -2.0000 -18.7500 Du        
  36335 ****         8.7500  -2.0000 -18.5000 Du        
  36336 ****         8.7500  -2.0000 -18.2500 Du        
  36337 ****         8.7500  -2.0000 -18.0000 Du        
  36338 ****         8.7500  -1.7500 -19.0000 Du        
  36339 ****         8.7500  -1.7500 -18.7500 Du        
  36340 ****         8.7500  -1.7500 -18.5000 Du        
  36341 ****         8.7500  -1.7500 -18.2500 Du        
  36342 ****         8.7500  -1.7500 -18.0000 Du        
  36343 ****         8.7500  -1.5000 -18.5000 Du        
  36344 ****         8.7500  -1.5000 -18.2500 Du        
  36345 ****         9.0000 -18.5000 -11.2500 Du        
  36346 ****         9.0000 -18.5000 -11.0000 Du        
  36347 ****         9.0000 -18.2500 -11.2500 Du        
  36348 ****         9.0000 -18.2500 -11.0000 Du        
  36349 ****         9.0000 -14.2500 -23.7500 Du        
  36350 ****         9.0000 -14.2500 -23.5000 Du        
  36351 ****         9.0000 -14.0000 -24.0000 Du        
  36352 ****         9.0000 -14.0000 -23.7500 Du        
  36353 ****         9.0000 -14.0000 -23.5000 Du        
  36354 ****         9.0000 -14.0000 -23.2500 Du        
  36355 ****         9.0000 -13.7500 -24.0000 Du        
  36356 ****         9.0000 -13.7500 -23.7500 Du        
  36357 ****         9.0000 -13.7500 -23.5000 Du        
  36358 ****         9.0000 -13.7500 -23.2500 Du        
  36359 ****         9.0000 -13.5000 -24.0000 Du        
  36360 ****         9.0000 -13.5000 -23.7500 Du        
  36361 ****         9.0000 -13.5000 -23.5000 Du        
  36362 ****         9.0000 -13.5000 -23.2500 Du        
  36363 ****         9.0000 -13.2500 -23.7500 Du        
  36364 ****         9.0000 -13.2500 -23.5000 Du        
  36365 ****         9.0000 -13.2500 -23.2500 Du        
  36366 ****         9.0000 -13.2500 -23.0000 Du        
  36367 ****         9.0000 -13.0000 -23.7500 Du        
  36368 ****         9.0000 -13.0000 -23.5000 Du        
  36369 ****         9.0000 -13.0000 -23.2500 Du        
  36370 ****         9.0000 -13.0000 -23.0000 Du        
  36371 ****         9.0000 -12.7500 -23.7500 Du        
  36372 ****         9.0000 -12.7500 -23.5000 Du        
  36373 ****         9.0000 -12.7500 -23.2500 Du        
  36374 ****         9.0000 -12.7500 -23.0000 Du        
  36375 ****         9.0000 -12.7500 -22.7500 Du        
  36376 ****         9.0000 -12.5000 -23.5000 Du        
  36377 ****         9.0000 -12.5000 -23.2500 Du        
  36378 ****         9.0000 -12.5000 -23.0000 Du        
  36379 ****         9.0000 -12.5000 -22.7500 Du        
  36380 ****         9.0000 -12.2500 -23.5000 Du        
  36381 ****         9.0000 -12.2500 -23.2500 Du        
  36382 ****         9.0000 -12.2500 -23.0000 Du        
  36383 ****         9.0000 -12.2500 -22.7500 Du        
  36384 ****         9.0000 -12.2500 -22.5000 Du        
  36385 ****         9.0000 -12.2500 -22.2500 Du        
  36386 ****         9.0000 -12.0000 -23.5000 Du        
  36387 ****         9.0000 -12.0000 -23.2500 Du        
  36388 ****         9.0000 -12.0000 -23.0000 Du        
  36389 ****         9.0000 -12.0000 -22.7500 Du        
  36390 ****         9.0000 -12.0000 -22.5000 Du        
  36391 ****         9.0000 -12.0000 -22.2500 Du        
  36392 ****         9.0000 -12.0000 -22.0000 Du        
  36393 ****         9.0000 -11.7500 -23.5000 Du        
  36394 ****         9.0000 -11.7500 -23.2500 Du        
  36395 ****         9.0000 -11.7500 -23.0000 Du        
  36396 ****         9.0000 -11.7500 -22.7500 Du        
  36397 ****         9.0000 -11.7500 -22.5000 Du        
  36398 ****         9.0000 -11.7500 -22.2500 Du        
  36399 ****         9.0000 -11.7500 -22.0000 Du        
  36400 ****         9.0000 -11.7500 -21.7500 Du        
  36401 ****         9.0000 -11.7500 -21.5000 Du        
  36402 ****         9.0000 -11.7500 -21.2500 Du        
  36403 ****         9.0000 -11.7500 -21.0000 Du        
  36404 ****         9.0000 -11.7500 -20.7500 Du        
  36405 ****         9.0000 -11.7500 -20.5000 Du        
  36406 ****         9.0000 -11.7500 -20.2500 Du        
  36407 ****         9.0000 -11.7500 -20.0000 Du        
  36408 ****         9.0000 -11.5000 -23.5000 Du        
  36409 ****         9.0000 -11.5000 -23.2500 Du        
  36410 ****         9.0000 -11.5000 -23.0000 Du        
  36411 ****         9.0000 -11.5000 -22.7500 Du        
  36412 ****         9.0000 -11.5000 -22.5000 Du        
  36413 ****         9.0000 -11.5000 -22.2500 Du        
  36414 ****         9.0000 -11.5000 -22.0000 Du        
  36415 ****         9.0000 -11.5000 -21.7500 Du        
  36416 ****         9.0000 -11.5000 -21.5000 Du        
  36417 ****         9.0000 -11.5000 -21.2500 Du        
  36418 ****         9.0000 -11.5000 -21.0000 Du        
  36419 ****         9.0000 -11.5000 -20.7500 Du        
  36420 ****         9.0000 -11.5000 -20.5000 Du        
  36421 ****         9.0000 -11.5000 -20.2500 Du        
  36422 ****         9.0000 -11.5000 -20.0000 Du        
  36423 ****         9.0000 -11.5000 -19.7500 Du        
  36424 ****         9.0000 -11.2500 -23.5000 Du        
  36425 ****         9.0000 -11.2500 -23.2500 Du        
  36426 ****         9.0000 -11.2500 -23.0000 Du        
  36427 ****         9.0000 -11.2500 -22.7500 Du        
  36428 ****         9.0000 -11.2500 -22.5000 Du        
  36429 ****         9.0000 -11.2500 -22.2500 Du        
  36430 ****         9.0000 -11.2500 -22.0000 Du        
  36431 ****         9.0000 -11.2500 -21.7500 Du        
  36432 ****         9.0000 -11.2500 -21.5000 Du        
  36433 ****         9.0000 -11.2500 -21.2500 Du        
  36434 ****         9.0000 -11.2500 -21.0000 Du        
  36435 ****         9.0000 -11.2500 -20.7500 Du        
  36436 ****         9.0000 -11.2500 -20.5000 Du        
  36437 ****         9.0000 -11.2500 -20.2500 Du        
  36438 ****         9.0000 -11.2500 -20.0000 Du        
  36439 ****         9.0000 -11.2500 -19.7500 Du        
  36440 ****         9.0000 -11.0000 -23.7500 Du        
  36441 ****         9.0000 -11.0000 -23.5000 Du        
  36442 ****         9.0000 -11.0000 -23.2500 Du        
  36443 ****         9.0000 -11.0000 -23.0000 Du        
  36444 ****         9.0000 -11.0000 -22.7500 Du        
  36445 ****         9.0000 -11.0000 -22.5000 Du        
  36446 ****         9.0000 -11.0000 -22.2500 Du        
  36447 ****         9.0000 -11.0000 -22.0000 Du        
  36448 ****         9.0000 -11.0000 -21.7500 Du        
  36449 ****         9.0000 -11.0000 -21.5000 Du        
  36450 ****         9.0000 -11.0000 -21.2500 Du        
  36451 ****         9.0000 -11.0000 -21.0000 Du        
  36452 ****         9.0000 -11.0000 -20.7500 Du        
  36453 ****         9.0000 -11.0000 -20.5000 Du        
  36454 ****         9.0000 -11.0000 -20.2500 Du        
  36455 ****         9.0000 -11.0000 -20.0000 Du        
  36456 ****         9.0000 -11.0000 -19.7500 Du        
  36457 ****         9.0000 -10.7500 -23.7500 Du        
  36458 ****         9.0000 -10.7500 -23.5000 Du        
  36459 ****         9.0000 -10.7500 -23.2500 Du        
  36460 ****         9.0000 -10.7500 -23.0000 Du        
  36461 ****         9.0000 -10.7500 -22.7500 Du        
  36462 ****         9.0000 -10.7500 -22.5000 Du        
  36463 ****         9.0000 -10.7500 -22.2500 Du        
  36464 ****         9.0000 -10.7500 -22.0000 Du        
  36465 ****         9.0000 -10.7500 -21.7500 Du        
  36466 ****         9.0000 -10.7500 -21.5000 Du        
  36467 ****         9.0000 -10.7500 -21.2500 Du        
  36468 ****         9.0000 -10.7500 -21.0000 Du        
  36469 ****         9.0000 -10.7500 -20.7500 Du        
  36470 ****         9.0000 -10.7500 -20.5000 Du        
  36471 ****         9.0000 -10.7500 -20.2500 Du        
  36472 ****         9.0000 -10.7500 -20.0000 Du        
  36473 ****         9.0000 -10.7500 -19.7500 Du        
  36474 ****         9.0000 -10.5000 -23.7500 Du        
  36475 ****         9.0000 -10.5000 -23.5000 Du        
  36476 ****         9.0000 -10.5000 -23.2500 Du        
  36477 ****         9.0000 -10.5000 -23.0000 Du        
  36478 ****         9.0000 -10.5000 -22.7500 Du        
  36479 ****         9.0000 -10.5000 -22.5000 Du        
  36480 ****         9.0000 -10.5000 -22.2500 Du        
  36481 ****         9.0000 -10.5000 -22.0000 Du        
  36482 ****         9.0000 -10.5000 -21.7500 Du        
  36483 ****         9.0000 -10.5000 -21.5000 Du        
  36484 ****         9.0000 -10.5000 -21.2500 Du        
  36485 ****         9.0000 -10.5000 -21.0000 Du        
  36486 ****         9.0000 -10.5000 -20.7500 Du        
  36487 ****         9.0000 -10.5000 -20.5000 Du        
  36488 ****         9.0000 -10.5000 -20.2500 Du        
  36489 ****         9.0000 -10.5000 -20.0000 Du        
  36490 ****         9.0000 -10.2500 -23.7500 Du        
  36491 ****         9.0000 -10.2500 -23.5000 Du        
  36492 ****         9.0000 -10.2500 -23.2500 Du        
  36493 ****         9.0000 -10.2500 -23.0000 Du        
  36494 ****         9.0000 -10.2500 -22.7500 Du        
  36495 ****         9.0000 -10.2500 -22.5000 Du        
  36496 ****         9.0000 -10.2500 -22.2500 Du        
  36497 ****         9.0000 -10.2500 -21.7500 Du        
  36498 ****         9.0000 -10.2500 -21.2500 Du        
  36499 ****         9.0000 -10.2500 -21.0000 Du        
  36500 ****         9.0000 -10.2500 -20.7500 Du        
  36501 ****         9.0000 -10.2500 -20.5000 Du        
  36502 ****         9.0000 -10.2500 -20.2500 Du        
  36503 ****         9.0000 -10.2500 -20.0000 Du        
  36504 ****         9.0000 -10.0000 -23.7500 Du        
  36505 ****         9.0000 -10.0000 -23.5000 Du        
  36506 ****         9.0000 -10.0000 -23.2500 Du        
  36507 ****         9.0000 -10.0000 -20.5000 Du        
  36508 ****         9.0000 -10.0000 -20.2500 Du        
  36509 ****         9.0000 -10.0000 -20.0000 Du        
  36510 ****         9.0000  -9.7500 -23.7500 Du        
  36511 ****         9.0000  -2.2500 -18.5000 Du        
  36512 ****         9.0000  -2.2500 -18.2500 Du        
  36513 ****         9.0000  -2.2500 -18.0000 Du        
  36514 ****         9.0000  -2.0000 -18.5000 Du        
  36515 ****         9.0000  -2.0000 -18.2500 Du        
  36516 ****         9.0000  -2.0000 -18.0000 Du        
  36517 ****         9.0000  -2.0000 -17.7500 Du        
  36518 ****         9.0000  -1.7500 -18.5000 Du        
  36519 ****         9.0000  -1.7500 -18.2500 Du        
  36520 ****         9.0000  -1.7500 -18.0000 Du        
  36521 ****         9.0000  -1.7500 -17.7500 Du        
  36522 ****         9.2500 -18.5000 -11.0000 Du        
  36523 ****         9.2500 -18.2500 -11.0000 Du        
  36524 ****         9.2500 -18.2500 -10.7500 Du        
  36525 ****         9.2500 -18.2500 -10.5000 Du        
  36526 ****         9.2500 -14.0000 -24.0000 Du        
  36527 ****         9.2500 -14.0000 -23.7500 Du        
  36528 ****         9.2500 -14.0000 -23.5000 Du        
  36529 ****         9.2500 -14.0000 -23.2500 Du        
  36530 ****         9.2500 -13.7500 -24.0000 Du        
  36531 ****         9.2500 -13.7500 -23.7500 Du        
  36532 ****         9.2500 -13.7500 -23.5000 Du        
  36533 ****         9.2500 -13.7500 -23.2500 Du        
  36534 ****         9.2500 -13.5000 -24.0000 Du        
  36535 ****         9.2500 -13.5000 -23.7500 Du        
  36536 ****         9.2500 -13.5000 -23.5000 Du        
  36537 ****         9.2500 -13.5000 -23.2500 Du        
  36538 ****         9.2500 -13.5000 -23.0000 Du        
  36539 ****         9.2500 -13.2500 -23.7500 Du        
  36540 ****         9.2500 -13.2500 -23.5000 Du        
  36541 ****         9.2500 -13.2500 -23.2500 Du        
  36542 ****         9.2500 -13.2500 -23.0000 Du        
  36543 ****         9.2500 -13.0000 -23.7500 Du        
  36544 ****         9.2500 -13.0000 -23.5000 Du        
  36545 ****         9.2500 -13.0000 -23.2500 Du        
  36546 ****         9.2500 -13.0000 -23.0000 Du        
  36547 ****         9.2500 -13.0000 -22.7500 Du        
  36548 ****         9.2500 -12.7500 -23.7500 Du        
  36549 ****         9.2500 -12.7500 -23.5000 Du        
  36550 ****         9.2500 -12.7500 -23.2500 Du        
  36551 ****         9.2500 -12.7500 -23.0000 Du        
  36552 ****         9.2500 -12.7500 -22.7500 Du        
  36553 ****         9.2500 -12.5000 -23.5000 Du        
  36554 ****         9.2500 -12.5000 -23.2500 Du        
  36555 ****         9.2500 -12.5000 -23.0000 Du        
  36556 ****         9.2500 -12.5000 -22.7500 Du        
  36557 ****         9.2500 -12.5000 -22.5000 Du        
  36558 ****         9.2500 -12.2500 -23.5000 Du        
  36559 ****         9.2500 -12.2500 -23.2500 Du        
  36560 ****         9.2500 -12.2500 -23.0000 Du        
  36561 ****         9.2500 -12.2500 -22.7500 Du        
  36562 ****         9.2500 -12.2500 -22.5000 Du        
  36563 ****         9.2500 -12.2500 -22.2500 Du        
  36564 ****         9.2500 -12.2500 -22.0000 Du        
  36565 ****         9.2500 -12.0000 -23.5000 Du        
  36566 ****         9.2500 -12.0000 -23.2500 Du        
  36567 ****         9.2500 -12.0000 -23.0000 Du        
  36568 ****         9.2500 -12.0000 -22.7500 Du        
  36569 ****         9.2500 -12.0000 -22.5000 Du        
  36570 ****         9.2500 -12.0000 -22.2500 Du        
  36571 ****         9.2500 -12.0000 -22.0000 Du        
  36572 ****         9.2500 -12.0000 -21.7500 Du        
  36573 ****         9.2500 -12.0000 -21.5000 Du        
  36574 ****         9.2500 -11.7500 -23.5000 Du        
  36575 ****         9.2500 -11.7500 -23.2500 Du        
  36576 ****         9.2500 -11.7500 -23.0000 Du        
  36577 ****         9.2500 -11.7500 -22.7500 Du        
  36578 ****         9.2500 -11.7500 -22.5000 Du        
  36579 ****         9.2500 -11.7500 -22.2500 Du        
  36580 ****         9.2500 -11.7500 -22.0000 Du        
  36581 ****         9.2500 -11.7500 -21.7500 Du        
  36582 ****         9.2500 -11.7500 -21.5000 Du        
  36583 ****         9.2500 -11.7500 -21.2500 Du        
  36584 ****         9.2500 -11.7500 -21.0000 Du        
  36585 ****         9.2500 -11.7500 -20.7500 Du        
  36586 ****         9.2500 -11.7500 -20.5000 Du        
  36587 ****         9.2500 -11.7500 -20.2500 Du        
  36588 ****         9.2500 -11.7500 -20.0000 Du        
  36589 ****         9.2500 -11.5000 -23.5000 Du        
  36590 ****         9.2500 -11.5000 -23.2500 Du        
  36591 ****         9.2500 -11.5000 -23.0000 Du        
  36592 ****         9.2500 -11.5000 -22.7500 Du        
  36593 ****         9.2500 -11.5000 -22.5000 Du        
  36594 ****         9.2500 -11.5000 -22.2500 Du        
  36595 ****         9.2500 -11.5000 -22.0000 Du        
  36596 ****         9.2500 -11.5000 -21.7500 Du        
  36597 ****         9.2500 -11.5000 -21.5000 Du        
  36598 ****         9.2500 -11.5000 -21.2500 Du        
  36599 ****         9.2500 -11.5000 -21.0000 Du        
  36600 ****         9.2500 -11.5000 -20.7500 Du        
  36601 ****         9.2500 -11.5000 -20.5000 Du        
  36602 ****         9.2500 -11.5000 -20.2500 Du        
  36603 ****         9.2500 -11.5000 -20.0000 Du        
  36604 ****         9.2500 -11.5000 -19.7500 Du        
  36605 ****         9.2500 -11.2500 -23.7500 Du        
  36606 ****         9.2500 -11.2500 -23.5000 Du        
  36607 ****         9.2500 -11.2500 -23.2500 Du        
  36608 ****         9.2500 -11.2500 -23.0000 Du        
  36609 ****         9.2500 -11.2500 -22.7500 Du        
  36610 ****         9.2500 -11.2500 -22.5000 Du        
  36611 ****         9.2500 -11.2500 -22.2500 Du        
  36612 ****         9.2500 -11.2500 -22.0000 Du        
  36613 ****         9.2500 -11.2500 -21.7500 Du        
  36614 ****         9.2500 -11.2500 -21.5000 Du        
  36615 ****         9.2500 -11.2500 -21.2500 Du        
  36616 ****         9.2500 -11.2500 -21.0000 Du        
  36617 ****         9.2500 -11.2500 -20.7500 Du        
  36618 ****         9.2500 -11.2500 -20.5000 Du        
  36619 ****         9.2500 -11.2500 -20.2500 Du        
  36620 ****         9.2500 -11.2500 -20.0000 Du        
  36621 ****         9.2500 -11.2500 -19.7500 Du        
  36622 ****         9.2500 -11.0000 -23.7500 Du        
  36623 ****         9.2500 -11.0000 -23.5000 Du        
  36624 ****         9.2500 -11.0000 -23.2500 Du        
  36625 ****         9.2500 -11.0000 -23.0000 Du        
  36626 ****         9.2500 -11.0000 -22.7500 Du        
  36627 ****         9.2500 -11.0000 -22.5000 Du        
  36628 ****         9.2500 -11.0000 -22.2500 Du        
  36629 ****         9.2500 -11.0000 -22.0000 Du        
  36630 ****         9.2500 -11.0000 -21.7500 Du        
  36631 ****         9.2500 -11.0000 -21.5000 Du        
  36632 ****         9.2500 -11.0000 -21.2500 Du        
  36633 ****         9.2500 -11.0000 -21.0000 Du        
  36634 ****         9.2500 -11.0000 -20.7500 Du        
  36635 ****         9.2500 -11.0000 -20.5000 Du        
  36636 ****         9.2500 -11.0000 -20.2500 Du        
  36637 ****         9.2500 -11.0000 -20.0000 Du        
  36638 ****         9.2500 -11.0000 -19.7500 Du        
  36639 ****         9.2500 -10.7500 -23.7500 Du        
  36640 ****         9.2500 -10.7500 -23.5000 Du        
  36641 ****         9.2500 -10.7500 -23.2500 Du        
  36642 ****         9.2500 -10.7500 -23.0000 Du        
  36643 ****         9.2500 -10.7500 -22.7500 Du        
  36644 ****         9.2500 -10.7500 -22.5000 Du        
  36645 ****         9.2500 -10.7500 -22.2500 Du        
  36646 ****         9.2500 -10.7500 -22.0000 Du        
  36647 ****         9.2500 -10.7500 -21.7500 Du        
  36648 ****         9.2500 -10.7500 -21.5000 Du        
  36649 ****         9.2500 -10.7500 -21.2500 Du        
  36650 ****         9.2500 -10.7500 -21.0000 Du        
  36651 ****         9.2500 -10.7500 -20.7500 Du        
  36652 ****         9.2500 -10.7500 -20.5000 Du        
  36653 ****         9.2500 -10.7500 -20.2500 Du        
  36654 ****         9.2500 -10.7500 -20.0000 Du        
  36655 ****         9.2500 -10.7500 -19.7500 Du        
  36656 ****         9.2500 -10.5000 -23.7500 Du        
  36657 ****         9.2500 -10.5000 -23.5000 Du        
  36658 ****         9.2500 -10.5000 -23.2500 Du        
  36659 ****         9.2500 -10.5000 -23.0000 Du        
  36660 ****         9.2500 -10.5000 -22.7500 Du        
  36661 ****         9.2500 -10.5000 -22.5000 Du        
  36662 ****         9.2500 -10.5000 -22.2500 Du        
  36663 ****         9.2500 -10.5000 -22.0000 Du        
  36664 ****         9.2500 -10.5000 -21.7500 Du        
  36665 ****         9.2500 -10.5000 -21.5000 Du        
  36666 ****         9.2500 -10.5000 -21.2500 Du        
  36667 ****         9.2500 -10.5000 -21.0000 Du        
  36668 ****         9.2500 -10.5000 -20.7500 Du        
  36669 ****         9.2500 -10.5000 -20.5000 Du        
  36670 ****         9.2500 -10.5000 -20.2500 Du        
  36671 ****         9.2500 -10.5000 -20.0000 Du        
  36672 ****         9.2500 -10.5000 -19.7500 Du        
  36673 ****         9.2500 -10.2500 -23.7500 Du        
  36674 ****         9.2500 -10.2500 -23.5000 Du        
  36675 ****         9.2500 -10.2500 -23.2500 Du        
  36676 ****         9.2500 -10.2500 -23.0000 Du        
  36677 ****         9.2500 -10.2500 -22.7500 Du        
  36678 ****         9.2500 -10.2500 -22.5000 Du        
  36679 ****         9.2500 -10.2500 -22.2500 Du        
  36680 ****         9.2500 -10.2500 -21.0000 Du        
  36681 ****         9.2500 -10.2500 -20.7500 Du        
  36682 ****         9.2500 -10.2500 -20.5000 Du        
  36683 ****         9.2500 -10.2500 -20.2500 Du        
  36684 ****         9.2500 -10.2500 -20.0000 Du        
  36685 ****         9.2500 -10.0000 -23.7500 Du        
  36686 ****         9.2500 -10.0000 -23.5000 Du        
  36687 ****         9.2500 -10.0000 -23.2500 Du        
  36688 ****         9.2500 -10.0000 -23.0000 Du        
  36689 ****         9.2500 -10.0000 -20.2500 Du        
  36690 ****         9.2500 -10.0000 -20.0000 Du        
  36691 ****         9.2500  -9.7500 -23.7500 Du        
  36692 ****         9.2500  -2.2500 -17.7500 Du        
  36693 ****         9.2500  -2.0000 -18.0000 Du        
  36694 ****         9.2500  -2.0000 -17.7500 Du        
  36695 ****         9.2500  -1.7500 -18.0000 Du        
  36696 ****         9.2500  -1.7500 -17.7500 Du        
  36697 ****         9.5000 -18.5000 -10.7500 Du        
  36698 ****         9.5000 -18.2500 -11.0000 Du        
  36699 ****         9.5000 -18.2500 -10.7500 Du        
  36700 ****         9.5000 -18.2500 -10.5000 Du        
  36701 ****         9.5000 -18.2500 -10.2500 Du        
  36702 ****         9.5000 -18.0000 -10.7500 Du        
  36703 ****         9.5000 -18.0000 -10.5000 Du        
  36704 ****         9.5000 -18.0000 -10.2500 Du        
  36705 ****         9.5000 -14.0000 -23.5000 Du        
  36706 ****         9.5000 -13.7500 -23.7500 Du        
  36707 ****         9.5000 -13.7500 -23.5000 Du        
  36708 ****         9.5000 -13.7500 -23.2500 Du        
  36709 ****         9.5000 -13.7500 -23.0000 Du        
  36710 ****         9.5000 -13.5000 -24.0000 Du        
  36711 ****         9.5000 -13.5000 -23.7500 Du        
  36712 ****         9.5000 -13.5000 -23.5000 Du        
  36713 ****         9.5000 -13.5000 -23.2500 Du        
  36714 ****         9.5000 -13.5000 -23.0000 Du        
  36715 ****         9.5000 -13.2500 -24.0000 Du        
  36716 ****         9.5000 -13.2500 -23.7500 Du        
  36717 ****         9.5000 -13.2500 -23.5000 Du        
  36718 ****         9.5000 -13.2500 -23.2500 Du        
  36719 ****         9.5000 -13.2500 -23.0000 Du        
  36720 ****         9.5000 -13.2500 -22.7500 Du        
  36721 ****         9.5000 -13.0000 -23.7500 Du        
  36722 ****         9.5000 -13.0000 -23.5000 Du        
  36723 ****         9.5000 -13.0000 -23.2500 Du        
  36724 ****         9.5000 -13.0000 -23.0000 Du        
  36725 ****         9.5000 -13.0000 -22.7500 Du        
  36726 ****         9.5000 -12.7500 -23.7500 Du        
  36727 ****         9.5000 -12.7500 -23.5000 Du        
  36728 ****         9.5000 -12.7500 -23.2500 Du        
  36729 ****         9.5000 -12.7500 -23.0000 Du        
  36730 ****         9.5000 -12.7500 -22.7500 Du        
  36731 ****         9.5000 -12.7500 -22.5000 Du        
  36732 ****         9.5000 -12.5000 -23.7500 Du        
  36733 ****         9.5000 -12.5000 -23.5000 Du        
  36734 ****         9.5000 -12.5000 -23.2500 Du        
  36735 ****         9.5000 -12.5000 -23.0000 Du        
  36736 ****         9.5000 -12.5000 -22.7500 Du        
  36737 ****         9.5000 -12.5000 -22.5000 Du        
  36738 ****         9.5000 -12.5000 -22.2500 Du        
  36739 ****         9.5000 -12.2500 -23.7500 Du        
  36740 ****         9.5000 -12.2500 -23.5000 Du        
  36741 ****         9.5000 -12.2500 -23.2500 Du        
  36742 ****         9.5000 -12.2500 -23.0000 Du        
  36743 ****         9.5000 -12.2500 -22.7500 Du        
  36744 ****         9.5000 -12.2500 -22.5000 Du        
  36745 ****         9.5000 -12.2500 -22.2500 Du        
  36746 ****         9.5000 -12.2500 -22.0000 Du        
  36747 ****         9.5000 -12.2500 -21.7500 Du        
  36748 ****         9.5000 -12.0000 -23.7500 Du        
  36749 ****         9.5000 -12.0000 -23.5000 Du        
  36750 ****         9.5000 -12.0000 -23.2500 Du        
  36751 ****         9.5000 -12.0000 -23.0000 Du        
  36752 ****         9.5000 -12.0000 -22.7500 Du        
  36753 ****         9.5000 -12.0000 -22.5000 Du        
  36754 ****         9.5000 -12.0000 -22.2500 Du        
  36755 ****         9.5000 -12.0000 -22.0000 Du        
  36756 ****         9.5000 -12.0000 -21.7500 Du        
  36757 ****         9.5000 -12.0000 -21.5000 Du        
  36758 ****         9.5000 -12.0000 -21.2500 Du        
  36759 ****         9.5000 -12.0000 -21.0000 Du        
  36760 ****         9.5000 -12.0000 -20.7500 Du        
  36761 ****         9.5000 -12.0000 -20.5000 Du        
  36762 ****         9.5000 -11.7500 -23.7500 Du        
  36763 ****         9.5000 -11.7500 -23.5000 Du        
  36764 ****         9.5000 -11.7500 -23.2500 Du        
  36765 ****         9.5000 -11.7500 -23.0000 Du        
  36766 ****         9.5000 -11.7500 -22.7500 Du        
  36767 ****         9.5000 -11.7500 -22.5000 Du        
  36768 ****         9.5000 -11.7500 -22.2500 Du        
  36769 ****         9.5000 -11.7500 -22.0000 Du        
  36770 ****         9.5000 -11.7500 -21.7500 Du        
  36771 ****         9.5000 -11.7500 -21.5000 Du        
  36772 ****         9.5000 -11.7500 -21.2500 Du        
  36773 ****         9.5000 -11.7500 -21.0000 Du        
  36774 ****         9.5000 -11.7500 -20.7500 Du        
  36775 ****         9.5000 -11.7500 -20.5000 Du        
  36776 ****         9.5000 -11.7500 -20.2500 Du        
  36777 ****         9.5000 -11.7500 -20.0000 Du        
  36778 ****         9.5000 -11.7500 -19.7500 Du        
  36779 ****         9.5000 -11.5000 -23.7500 Du        
  36780 ****         9.5000 -11.5000 -23.5000 Du        
  36781 ****         9.5000 -11.5000 -23.2500 Du        
  36782 ****         9.5000 -11.5000 -23.0000 Du        
  36783 ****         9.5000 -11.5000 -22.7500 Du        
  36784 ****         9.5000 -11.5000 -22.5000 Du        
  36785 ****         9.5000 -11.5000 -22.2500 Du        
  36786 ****         9.5000 -11.5000 -22.0000 Du        
  36787 ****         9.5000 -11.5000 -21.7500 Du        
  36788 ****         9.5000 -11.5000 -21.5000 Du        
  36789 ****         9.5000 -11.5000 -21.2500 Du        
  36790 ****         9.5000 -11.5000 -21.0000 Du        
  36791 ****         9.5000 -11.5000 -20.7500 Du        
  36792 ****         9.5000 -11.5000 -20.5000 Du        
  36793 ****         9.5000 -11.5000 -20.2500 Du        
  36794 ****         9.5000 -11.5000 -20.0000 Du        
  36795 ****         9.5000 -11.5000 -19.7500 Du        
  36796 ****         9.5000 -11.5000 -19.5000 Du        
  36797 ****         9.5000 -11.2500 -23.7500 Du        
  36798 ****         9.5000 -11.2500 -23.5000 Du        
  36799 ****         9.5000 -11.2500 -23.2500 Du        
  36800 ****         9.5000 -11.2500 -23.0000 Du        
  36801 ****         9.5000 -11.2500 -22.7500 Du        
  36802 ****         9.5000 -11.2500 -22.5000 Du        
  36803 ****         9.5000 -11.2500 -22.2500 Du        
  36804 ****         9.5000 -11.2500 -22.0000 Du        
  36805 ****         9.5000 -11.2500 -21.7500 Du        
  36806 ****         9.5000 -11.2500 -21.5000 Du        
  36807 ****         9.5000 -11.2500 -21.2500 Du        
  36808 ****         9.5000 -11.2500 -21.0000 Du        
  36809 ****         9.5000 -11.2500 -20.7500 Du        
  36810 ****         9.5000 -11.2500 -20.5000 Du        
  36811 ****         9.5000 -11.2500 -20.2500 Du        
  36812 ****         9.5000 -11.2500 -20.0000 Du        
  36813 ****         9.5000 -11.2500 -19.7500 Du        
  36814 ****         9.5000 -11.2500 -19.5000 Du        
  36815 ****         9.5000 -11.0000 -23.7500 Du        
  36816 ****         9.5000 -11.0000 -23.5000 Du        
  36817 ****         9.5000 -11.0000 -23.2500 Du        
  36818 ****         9.5000 -11.0000 -23.0000 Du        
  36819 ****         9.5000 -11.0000 -22.7500 Du        
  36820 ****         9.5000 -11.0000 -22.5000 Du        
  36821 ****         9.5000 -11.0000 -22.2500 Du        
  36822 ****         9.5000 -11.0000 -22.0000 Du        
  36823 ****         9.5000 -11.0000 -21.7500 Du        
  36824 ****         9.5000 -11.0000 -21.5000 Du        
  36825 ****         9.5000 -11.0000 -21.2500 Du        
  36826 ****         9.5000 -11.0000 -21.0000 Du        
  36827 ****         9.5000 -11.0000 -20.7500 Du        
  36828 ****         9.5000 -11.0000 -20.5000 Du        
  36829 ****         9.5000 -11.0000 -20.2500 Du        
  36830 ****         9.5000 -11.0000 -20.0000 Du        
  36831 ****         9.5000 -11.0000 -19.7500 Du        
  36832 ****         9.5000 -11.0000 -19.5000 Du        
  36833 ****         9.5000 -10.7500 -24.0000 Du        
  36834 ****         9.5000 -10.7500 -23.7500 Du        
  36835 ****         9.5000 -10.7500 -23.5000 Du        
  36836 ****         9.5000 -10.7500 -23.2500 Du        
  36837 ****         9.5000 -10.7500 -23.0000 Du        
  36838 ****         9.5000 -10.7500 -22.7500 Du        
  36839 ****         9.5000 -10.7500 -22.5000 Du        
  36840 ****         9.5000 -10.7500 -22.2500 Du        
  36841 ****         9.5000 -10.7500 -22.0000 Du        
  36842 ****         9.5000 -10.7500 -21.7500 Du        
  36843 ****         9.5000 -10.7500 -21.5000 Du        
  36844 ****         9.5000 -10.7500 -21.2500 Du        
  36845 ****         9.5000 -10.7500 -21.0000 Du        
  36846 ****         9.5000 -10.7500 -20.7500 Du        
  36847 ****         9.5000 -10.7500 -20.5000 Du        
  36848 ****         9.5000 -10.7500 -20.2500 Du        
  36849 ****         9.5000 -10.7500 -20.0000 Du        
  36850 ****         9.5000 -10.7500 -19.7500 Du        
  36851 ****         9.5000 -10.7500 -19.5000 Du        
  36852 ****         9.5000 -10.5000 -24.0000 Du        
  36853 ****         9.5000 -10.5000 -23.7500 Du        
  36854 ****         9.5000 -10.5000 -23.5000 Du        
  36855 ****         9.5000 -10.5000 -23.2500 Du        
  36856 ****         9.5000 -10.5000 -23.0000 Du        
  36857 ****         9.5000 -10.5000 -22.7500 Du        
  36858 ****         9.5000 -10.5000 -22.5000 Du        
  36859 ****         9.5000 -10.5000 -22.2500 Du        
  36860 ****         9.5000 -10.5000 -22.0000 Du        
  36861 ****         9.5000 -10.5000 -21.7500 Du        
  36862 ****         9.5000 -10.5000 -21.5000 Du        
  36863 ****         9.5000 -10.5000 -21.2500 Du        
  36864 ****         9.5000 -10.5000 -21.0000 Du        
  36865 ****         9.5000 -10.5000 -20.7500 Du        
  36866 ****         9.5000 -10.5000 -20.5000 Du        
  36867 ****         9.5000 -10.5000 -20.2500 Du        
  36868 ****         9.5000 -10.5000 -20.0000 Du        
  36869 ****         9.5000 -10.5000 -19.7500 Du        
  36870 ****         9.5000 -10.2500 -24.0000 Du        
  36871 ****         9.5000 -10.2500 -23.7500 Du        
  36872 ****         9.5000 -10.2500 -23.5000 Du        
  36873 ****         9.5000 -10.2500 -23.2500 Du        
  36874 ****         9.5000 -10.2500 -23.0000 Du        
  36875 ****         9.5000 -10.2500 -22.7500 Du        
  36876 ****         9.5000 -10.2500 -22.5000 Du        
  36877 ****         9.5000 -10.2500 -22.2500 Du        
  36878 ****         9.5000 -10.2500 -22.0000 Du        
  36879 ****         9.5000 -10.2500 -20.7500 Du        
  36880 ****         9.5000 -10.2500 -20.5000 Du        
  36881 ****         9.5000 -10.2500 -20.2500 Du        
  36882 ****         9.5000 -10.2500 -20.0000 Du        
  36883 ****         9.5000 -10.2500 -19.7500 Du        
  36884 ****         9.5000 -10.0000 -24.0000 Du        
  36885 ****         9.5000 -10.0000 -23.7500 Du        
  36886 ****         9.5000 -10.0000 -23.5000 Du        
  36887 ****         9.5000 -10.0000 -23.2500 Du        
  36888 ****         9.5000 -10.0000 -23.0000 Du        
  36889 ****         9.5000  -9.7500 -23.7500 Du        
  36890 ****         9.5000  -9.7500 -23.5000 Du        
  36891 ****         9.5000  -2.0000 -17.5000 Du        
  36892 ****         9.5000  -2.0000 -17.2500 Du        
  36893 ****         9.5000  -1.7500 -17.5000 Du        
  36894 ****         9.7500 -18.5000 -10.5000 Du        
  36895 ****         9.7500 -18.2500 -10.7500 Du        
  36896 ****         9.7500 -18.2500 -10.5000 Du        
  36897 ****         9.7500 -18.2500 -10.2500 Du        
  36898 ****         9.7500 -18.0000 -10.7500 Du        
  36899 ****         9.7500 -18.0000 -10.5000 Du        
  36900 ****         9.7500 -18.0000 -10.2500 Du        
  36901 ****         9.7500 -18.0000 -10.0000 Du        
  36902 ****         9.7500 -13.7500 -23.7500 Du        
  36903 ****         9.7500 -13.7500 -23.5000 Du        
  36904 ****         9.7500 -13.7500 -23.2500 Du        
  36905 ****         9.7500 -13.7500 -23.0000 Du        
  36906 ****         9.7500 -13.5000 -24.0000 Du        
  36907 ****         9.7500 -13.5000 -23.7500 Du        
  36908 ****         9.7500 -13.5000 -23.5000 Du        
  36909 ****         9.7500 -13.5000 -23.2500 Du        
  36910 ****         9.7500 -13.5000 -23.0000 Du        
  36911 ****         9.7500 -13.5000 -22.7500 Du        
  36912 ****         9.7500 -13.2500 -24.0000 Du        
  36913 ****         9.7500 -13.2500 -23.7500 Du        
  36914 ****         9.7500 -13.2500 -23.5000 Du        
  36915 ****         9.7500 -13.2500 -23.2500 Du        
  36916 ****         9.7500 -13.2500 -23.0000 Du        
  36917 ****         9.7500 -13.2500 -22.7500 Du        
  36918 ****         9.7500 -13.0000 -24.0000 Du        
  36919 ****         9.7500 -13.0000 -23.7500 Du        
  36920 ****         9.7500 -13.0000 -23.5000 Du        
  36921 ****         9.7500 -13.0000 -23.2500 Du        
  36922 ****         9.7500 -13.0000 -23.0000 Du        
  36923 ****         9.7500 -13.0000 -22.7500 Du        
  36924 ****         9.7500 -13.0000 -22.5000 Du        
  36925 ****         9.7500 -12.7500 -24.0000 Du        
  36926 ****         9.7500 -12.7500 -23.7500 Du        
  36927 ****         9.7500 -12.7500 -23.5000 Du        
  36928 ****         9.7500 -12.7500 -23.2500 Du        
  36929 ****         9.7500 -12.7500 -23.0000 Du        
  36930 ****         9.7500 -12.7500 -22.7500 Du        
  36931 ****         9.7500 -12.7500 -22.5000 Du        
  36932 ****         9.7500 -12.7500 -22.2500 Du        
  36933 ****         9.7500 -12.5000 -23.7500 Du        
  36934 ****         9.7500 -12.5000 -23.5000 Du        
  36935 ****         9.7500 -12.5000 -23.2500 Du        
  36936 ****         9.7500 -12.5000 -23.0000 Du        
  36937 ****         9.7500 -12.5000 -22.7500 Du        
  36938 ****         9.7500 -12.5000 -22.5000 Du        
  36939 ****         9.7500 -12.5000 -22.2500 Du        
  36940 ****         9.7500 -12.5000 -22.0000 Du        
  36941 ****         9.7500 -12.5000 -21.7500 Du        
  36942 ****         9.7500 -12.2500 -23.7500 Du        
  36943 ****         9.7500 -12.2500 -23.5000 Du        
  36944 ****         9.7500 -12.2500 -23.2500 Du        
  36945 ****         9.7500 -12.2500 -23.0000 Du        
  36946 ****         9.7500 -12.2500 -22.7500 Du        
  36947 ****         9.7500 -12.2500 -22.5000 Du        
  36948 ****         9.7500 -12.2500 -22.2500 Du        
  36949 ****         9.7500 -12.2500 -22.0000 Du        
  36950 ****         9.7500 -12.2500 -21.7500 Du        
  36951 ****         9.7500 -12.2500 -21.5000 Du        
  36952 ****         9.7500 -12.2500 -21.2500 Du        
  36953 ****         9.7500 -12.0000 -23.7500 Du        
  36954 ****         9.7500 -12.0000 -23.5000 Du        
  36955 ****         9.7500 -12.0000 -23.2500 Du        
  36956 ****         9.7500 -12.0000 -23.0000 Du        
  36957 ****         9.7500 -12.0000 -22.7500 Du        
  36958 ****         9.7500 -12.0000 -22.5000 Du        
  36959 ****         9.7500 -12.0000 -22.2500 Du        
  36960 ****         9.7500 -12.0000 -22.0000 Du        
  36961 ****         9.7500 -12.0000 -21.7500 Du        
  36962 ****         9.7500 -12.0000 -21.5000 Du        
  36963 ****         9.7500 -12.0000 -21.2500 Du        
  36964 ****         9.7500 -12.0000 -21.0000 Du        
  36965 ****         9.7500 -12.0000 -20.7500 Du        
  36966 ****         9.7500 -12.0000 -20.5000 Du        
  36967 ****         9.7500 -12.0000 -20.2500 Du        
  36968 ****         9.7500 -11.7500 -23.7500 Du        
  36969 ****         9.7500 -11.7500 -23.5000 Du        
  36970 ****         9.7500 -11.7500 -23.2500 Du        
  36971 ****         9.7500 -11.7500 -23.0000 Du        
  36972 ****         9.7500 -11.7500 -22.7500 Du        
  36973 ****         9.7500 -11.7500 -22.5000 Du        
  36974 ****         9.7500 -11.7500 -22.2500 Du        
  36975 ****         9.7500 -11.7500 -22.0000 Du        
  36976 ****         9.7500 -11.7500 -21.7500 Du        
  36977 ****         9.7500 -11.7500 -21.5000 Du        
  36978 ****         9.7500 -11.7500 -21.2500 Du        
  36979 ****         9.7500 -11.7500 -21.0000 Du        
  36980 ****         9.7500 -11.7500 -20.7500 Du        
  36981 ****         9.7500 -11.7500 -20.5000 Du        
  36982 ****         9.7500 -11.7500 -20.2500 Du        
  36983 ****         9.7500 -11.7500 -20.0000 Du        
  36984 ****         9.7500 -11.7500 -19.7500 Du        
  36985 ****         9.7500 -11.5000 -23.7500 Du        
  36986 ****         9.7500 -11.5000 -23.5000 Du        
  36987 ****         9.7500 -11.5000 -23.2500 Du        
  36988 ****         9.7500 -11.5000 -23.0000 Du        
  36989 ****         9.7500 -11.5000 -22.7500 Du        
  36990 ****         9.7500 -11.5000 -22.5000 Du        
  36991 ****         9.7500 -11.5000 -22.2500 Du        
  36992 ****         9.7500 -11.5000 -22.0000 Du        
  36993 ****         9.7500 -11.5000 -21.7500 Du        
  36994 ****         9.7500 -11.5000 -21.5000 Du        
  36995 ****         9.7500 -11.5000 -21.2500 Du        
  36996 ****         9.7500 -11.5000 -21.0000 Du        
  36997 ****         9.7500 -11.5000 -20.7500 Du        
  36998 ****         9.7500 -11.5000 -20.5000 Du        
  36999 ****         9.7500 -11.5000 -20.2500 Du        
  37000 ****         9.7500 -11.5000 -20.0000 Du        
  37001 ****         9.7500 -11.5000 -19.7500 Du        
  37002 ****         9.7500 -11.5000 -19.5000 Du        
  37003 ****         9.7500 -11.2500 -24.0000 Du        
  37004 ****         9.7500 -11.2500 -23.7500 Du        
  37005 ****         9.7500 -11.2500 -23.5000 Du        
  37006 ****         9.7500 -11.2500 -23.2500 Du        
  37007 ****         9.7500 -11.2500 -23.0000 Du        
  37008 ****         9.7500 -11.2500 -22.7500 Du        
  37009 ****         9.7500 -11.2500 -22.5000 Du        
  37010 ****         9.7500 -11.2500 -22.2500 Du        
  37011 ****         9.7500 -11.2500 -22.0000 Du        
  37012 ****         9.7500 -11.2500 -21.7500 Du        
  37013 ****         9.7500 -11.2500 -21.5000 Du        
  37014 ****         9.7500 -11.2500 -21.2500 Du        
  37015 ****         9.7500 -11.2500 -21.0000 Du        
  37016 ****         9.7500 -11.2500 -20.7500 Du        
  37017 ****         9.7500 -11.2500 -20.5000 Du        
  37018 ****         9.7500 -11.2500 -20.2500 Du        
  37019 ****         9.7500 -11.2500 -20.0000 Du        
  37020 ****         9.7500 -11.2500 -19.7500 Du        
  37021 ****         9.7500 -11.2500 -19.5000 Du        
  37022 ****         9.7500 -11.0000 -24.0000 Du        
  37023 ****         9.7500 -11.0000 -23.7500 Du        
  37024 ****         9.7500 -11.0000 -23.5000 Du        
  37025 ****         9.7500 -11.0000 -23.2500 Du        
  37026 ****         9.7500 -11.0000 -23.0000 Du        
  37027 ****         9.7500 -11.0000 -22.7500 Du        
  37028 ****         9.7500 -11.0000 -22.5000 Du        
  37029 ****         9.7500 -11.0000 -22.2500 Du        
  37030 ****         9.7500 -11.0000 -22.0000 Du        
  37031 ****         9.7500 -11.0000 -21.7500 Du        
  37032 ****         9.7500 -11.0000 -21.5000 Du        
  37033 ****         9.7500 -11.0000 -21.2500 Du        
  37034 ****         9.7500 -11.0000 -21.0000 Du        
  37035 ****         9.7500 -11.0000 -20.7500 Du        
  37036 ****         9.7500 -11.0000 -20.5000 Du        
  37037 ****         9.7500 -11.0000 -20.2500 Du        
  37038 ****         9.7500 -11.0000 -20.0000 Du        
  37039 ****         9.7500 -11.0000 -19.7500 Du        
  37040 ****         9.7500 -11.0000 -19.5000 Du        
  37041 ****         9.7500 -10.7500 -24.0000 Du        
  37042 ****         9.7500 -10.7500 -23.7500 Du        
  37043 ****         9.7500 -10.7500 -23.5000 Du        
  37044 ****         9.7500 -10.7500 -23.2500 Du        
  37045 ****         9.7500 -10.7500 -23.0000 Du        
  37046 ****         9.7500 -10.7500 -22.7500 Du        
  37047 ****         9.7500 -10.7500 -22.5000 Du        
  37048 ****         9.7500 -10.7500 -22.2500 Du        
  37049 ****         9.7500 -10.7500 -22.0000 Du        
  37050 ****         9.7500 -10.7500 -21.7500 Du        
  37051 ****         9.7500 -10.7500 -21.5000 Du        
  37052 ****         9.7500 -10.7500 -21.2500 Du        
  37053 ****         9.7500 -10.7500 -21.0000 Du        
  37054 ****         9.7500 -10.7500 -20.7500 Du        
  37055 ****         9.7500 -10.7500 -20.5000 Du        
  37056 ****         9.7500 -10.7500 -20.2500 Du        
  37057 ****         9.7500 -10.7500 -20.0000 Du        
  37058 ****         9.7500 -10.7500 -19.7500 Du        
  37059 ****         9.7500 -10.7500 -19.5000 Du        
  37060 ****         9.7500 -10.5000 -24.0000 Du        
  37061 ****         9.7500 -10.5000 -23.7500 Du        
  37062 ****         9.7500 -10.5000 -23.5000 Du        
  37063 ****         9.7500 -10.5000 -23.2500 Du        
  37064 ****         9.7500 -10.5000 -23.0000 Du        
  37065 ****         9.7500 -10.5000 -22.7500 Du        
  37066 ****         9.7500 -10.5000 -22.5000 Du        
  37067 ****         9.7500 -10.5000 -22.2500 Du        
  37068 ****         9.7500 -10.5000 -22.0000 Du        
  37069 ****         9.7500 -10.5000 -21.7500 Du        
  37070 ****         9.7500 -10.5000 -21.5000 Du        
  37071 ****         9.7500 -10.5000 -21.2500 Du        
  37072 ****         9.7500 -10.5000 -21.0000 Du        
  37073 ****         9.7500 -10.5000 -20.7500 Du        
  37074 ****         9.7500 -10.5000 -20.5000 Du        
  37075 ****         9.7500 -10.5000 -20.2500 Du        
  37076 ****         9.7500 -10.5000 -20.0000 Du        
  37077 ****         9.7500 -10.5000 -19.7500 Du        
  37078 ****         9.7500 -10.5000 -19.5000 Du        
  37079 ****         9.7500 -10.2500 -24.0000 Du        
  37080 ****         9.7500 -10.2500 -23.7500 Du        
  37081 ****         9.7500 -10.2500 -23.5000 Du        
  37082 ****         9.7500 -10.2500 -23.2500 Du        
  37083 ****         9.7500 -10.2500 -23.0000 Du        
  37084 ****         9.7500 -10.2500 -22.7500 Du        
  37085 ****         9.7500 -10.2500 -22.5000 Du        
  37086 ****         9.7500 -10.2500 -22.2500 Du        
  37087 ****         9.7500 -10.2500 -20.2500 Du        
  37088 ****         9.7500 -10.2500 -20.0000 Du        
  37089 ****         9.7500 -10.2500 -19.7500 Du        
  37090 ****         9.7500 -10.0000 -24.0000 Du        
  37091 ****         9.7500 -10.0000 -23.7500 Du        
  37092 ****         9.7500 -10.0000 -23.5000 Du        
  37093 ****         9.7500 -10.0000 -23.2500 Du        
  37094 ****         9.7500 -10.0000 -23.0000 Du        
  37095 ****         9.7500  -9.7500 -24.0000 Du        
  37096 ****         9.7500  -9.7500 -23.7500 Du        
  37097 ****         9.7500  -9.7500 -23.5000 Du        
  37098 ****         9.7500  -9.7500 -23.2500 Du        
  37099 ****         9.7500  -9.5000 -23.7500 Du        
  37100 ****         9.7500  -2.2500 -17.0000 Du        
  37101 ****         9.7500  -2.0000 -17.2500 Du        
  37102 ****         9.7500  -2.0000 -17.0000 Du        
  37103 ****         9.7500  -2.0000 -16.7500 Du        
  37104 ****         9.7500  -2.0000 -16.5000 Du        
  37105 ****         9.7500  -1.7500 -17.5000 Du        
  37106 ****         9.7500  -1.7500 -17.2500 Du        
  37107 ****         9.7500  -1.7500 -17.0000 Du        
  37108 ****        10.0000 -18.2500 -10.5000 Du        
  37109 ****        10.0000 -18.2500 -10.2500 Du        
  37110 ****        10.0000 -18.0000 -10.5000 Du        
  37111 ****        10.0000 -18.0000 -10.2500 Du        
  37112 ****        10.0000 -18.0000 -10.0000 Du        
  37113 ****        10.0000 -17.7500 -10.5000 Du        
  37114 ****        10.0000 -17.7500 -10.2500 Du        
  37115 ****        10.0000 -17.7500 -10.0000 Du        
  37116 ****        10.0000 -17.7500  -9.7500 Du        
  37117 ****        10.0000 -13.7500 -23.2500 Du        
  37118 ****        10.0000 -13.7500 -23.0000 Du        
  37119 ****        10.0000 -13.5000 -23.7500 Du        
  37120 ****        10.0000 -13.5000 -23.5000 Du        
  37121 ****        10.0000 -13.5000 -23.2500 Du        
  37122 ****        10.0000 -13.5000 -23.0000 Du        
  37123 ****        10.0000 -13.5000 -22.7500 Du        
  37124 ****        10.0000 -13.2500 -24.0000 Du        
  37125 ****        10.0000 -13.2500 -23.7500 Du        
  37126 ****        10.0000 -13.2500 -23.5000 Du        
  37127 ****        10.0000 -13.2500 -23.2500 Du        
  37128 ****        10.0000 -13.2500 -23.0000 Du        
  37129 ****        10.0000 -13.2500 -22.7500 Du        
  37130 ****        10.0000 -13.2500 -22.5000 Du        
  37131 ****        10.0000 -13.2500 -22.2500 Du        
  37132 ****        10.0000 -13.0000 -24.0000 Du        
  37133 ****        10.0000 -13.0000 -23.7500 Du        
  37134 ****        10.0000 -13.0000 -23.5000 Du        
  37135 ****        10.0000 -13.0000 -23.2500 Du        
  37136 ****        10.0000 -13.0000 -23.0000 Du        
  37137 ****        10.0000 -13.0000 -22.7500 Du        
  37138 ****        10.0000 -13.0000 -22.5000 Du        
  37139 ****        10.0000 -13.0000 -22.2500 Du        
  37140 ****        10.0000 -13.0000 -22.0000 Du        
  37141 ****        10.0000 -12.7500 -24.0000 Du        
  37142 ****        10.0000 -12.7500 -23.7500 Du        
  37143 ****        10.0000 -12.7500 -23.5000 Du        
  37144 ****        10.0000 -12.7500 -23.2500 Du        
  37145 ****        10.0000 -12.7500 -23.0000 Du        
  37146 ****        10.0000 -12.7500 -22.7500 Du        
  37147 ****        10.0000 -12.7500 -22.5000 Du        
  37148 ****        10.0000 -12.7500 -22.2500 Du        
  37149 ****        10.0000 -12.7500 -22.0000 Du        
  37150 ****        10.0000 -12.7500 -21.7500 Du        
  37151 ****        10.0000 -12.5000 -24.0000 Du        
  37152 ****        10.0000 -12.5000 -23.7500 Du        
  37153 ****        10.0000 -12.5000 -23.5000 Du        
  37154 ****        10.0000 -12.5000 -23.2500 Du        
  37155 ****        10.0000 -12.5000 -23.0000 Du        
  37156 ****        10.0000 -12.5000 -22.7500 Du        
  37157 ****        10.0000 -12.5000 -22.5000 Du        
  37158 ****        10.0000 -12.5000 -22.2500 Du        
  37159 ****        10.0000 -12.5000 -22.0000 Du        
  37160 ****        10.0000 -12.5000 -21.7500 Du        
  37161 ****        10.0000 -12.5000 -21.5000 Du        
  37162 ****        10.0000 -12.2500 -24.0000 Du        
  37163 ****        10.0000 -12.2500 -23.7500 Du        
  37164 ****        10.0000 -12.2500 -23.5000 Du        
  37165 ****        10.0000 -12.2500 -23.2500 Du        
  37166 ****        10.0000 -12.2500 -23.0000 Du        
  37167 ****        10.0000 -12.2500 -22.7500 Du        
  37168 ****        10.0000 -12.2500 -22.5000 Du        
  37169 ****        10.0000 -12.2500 -22.2500 Du        
  37170 ****        10.0000 -12.2500 -22.0000 Du        
  37171 ****        10.0000 -12.2500 -21.7500 Du        
  37172 ****        10.0000 -12.2500 -21.5000 Du        
  37173 ****        10.0000 -12.2500 -21.2500 Du        
  37174 ****        10.0000 -12.2500 -21.0000 Du        
  37175 ****        10.0000 -12.2500 -20.7500 Du        
  37176 ****        10.0000 -12.0000 -24.0000 Du        
  37177 ****        10.0000 -12.0000 -23.7500 Du        
  37178 ****        10.0000 -12.0000 -23.5000 Du        
  37179 ****        10.0000 -12.0000 -23.2500 Du        
  37180 ****        10.0000 -12.0000 -23.0000 Du        
  37181 ****        10.0000 -12.0000 -22.7500 Du        
  37182 ****        10.0000 -12.0000 -22.5000 Du        
  37183 ****        10.0000 -12.0000 -22.2500 Du        
  37184 ****        10.0000 -12.0000 -22.0000 Du        
  37185 ****        10.0000 -12.0000 -21.7500 Du        
  37186 ****        10.0000 -12.0000 -21.5000 Du        
  37187 ****        10.0000 -12.0000 -21.2500 Du        
  37188 ****        10.0000 -12.0000 -21.0000 Du        
  37189 ****        10.0000 -12.0000 -20.7500 Du        
  37190 ****        10.0000 -12.0000 -20.5000 Du        
  37191 ****        10.0000 -12.0000 -20.2500 Du        
  37192 ****        10.0000 -11.7500 -24.0000 Du        
  37193 ****        10.0000 -11.7500 -23.7500 Du        
  37194 ****        10.0000 -11.7500 -23.5000 Du        
  37195 ****        10.0000 -11.7500 -23.2500 Du        
  37196 ****        10.0000 -11.7500 -23.0000 Du        
  37197 ****        10.0000 -11.7500 -22.7500 Du        
  37198 ****        10.0000 -11.7500 -22.5000 Du        
  37199 ****        10.0000 -11.7500 -22.2500 Du        
  37200 ****        10.0000 -11.7500 -22.0000 Du        
  37201 ****        10.0000 -11.7500 -21.7500 Du        
  37202 ****        10.0000 -11.7500 -21.5000 Du        
  37203 ****        10.0000 -11.7500 -21.2500 Du        
  37204 ****        10.0000 -11.7500 -21.0000 Du        
  37205 ****        10.0000 -11.7500 -20.7500 Du        
  37206 ****        10.0000 -11.7500 -20.5000 Du        
  37207 ****        10.0000 -11.7500 -20.2500 Du        
  37208 ****        10.0000 -11.7500 -20.0000 Du        
  37209 ****        10.0000 -11.7500 -19.7500 Du        
  37210 ****        10.0000 -11.5000 -24.0000 Du        
  37211 ****        10.0000 -11.5000 -23.7500 Du        
  37212 ****        10.0000 -11.5000 -23.5000 Du        
  37213 ****        10.0000 -11.5000 -23.2500 Du        
  37214 ****        10.0000 -11.5000 -23.0000 Du        
  37215 ****        10.0000 -11.5000 -22.7500 Du        
  37216 ****        10.0000 -11.5000 -22.5000 Du        
  37217 ****        10.0000 -11.5000 -22.2500 Du        
  37218 ****        10.0000 -11.5000 -22.0000 Du        
  37219 ****        10.0000 -11.5000 -21.7500 Du        
  37220 ****        10.0000 -11.5000 -21.5000 Du        
  37221 ****        10.0000 -11.5000 -21.2500 Du        
  37222 ****        10.0000 -11.5000 -21.0000 Du        
  37223 ****        10.0000 -11.5000 -20.7500 Du        
  37224 ****        10.0000 -11.5000 -20.5000 Du        
  37225 ****        10.0000 -11.5000 -20.2500 Du        
  37226 ****        10.0000 -11.5000 -20.0000 Du        
  37227 ****        10.0000 -11.5000 -19.7500 Du        
  37228 ****        10.0000 -11.5000 -19.5000 Du        
  37229 ****        10.0000 -11.2500 -24.0000 Du        
  37230 ****        10.0000 -11.2500 -23.7500 Du        
  37231 ****        10.0000 -11.2500 -23.5000 Du        
  37232 ****        10.0000 -11.2500 -23.2500 Du        
  37233 ****        10.0000 -11.2500 -23.0000 Du        
  37234 ****        10.0000 -11.2500 -22.7500 Du        
  37235 ****        10.0000 -11.2500 -22.5000 Du        
  37236 ****        10.0000 -11.2500 -22.2500 Du        
  37237 ****        10.0000 -11.2500 -22.0000 Du        
  37238 ****        10.0000 -11.2500 -21.7500 Du        
  37239 ****        10.0000 -11.2500 -21.5000 Du        
  37240 ****        10.0000 -11.2500 -21.2500 Du        
  37241 ****        10.0000 -11.2500 -21.0000 Du        
  37242 ****        10.0000 -11.2500 -20.7500 Du        
  37243 ****        10.0000 -11.2500 -20.5000 Du        
  37244 ****        10.0000 -11.2500 -20.2500 Du        
  37245 ****        10.0000 -11.2500 -20.0000 Du        
  37246 ****        10.0000 -11.2500 -19.7500 Du        
  37247 ****        10.0000 -11.2500 -19.5000 Du        
  37248 ****        10.0000 -11.2500 -19.2500 Du        
  37249 ****        10.0000 -11.0000 -24.0000 Du        
  37250 ****        10.0000 -11.0000 -23.7500 Du        
  37251 ****        10.0000 -11.0000 -23.5000 Du        
  37252 ****        10.0000 -11.0000 -23.2500 Du        
  37253 ****        10.0000 -11.0000 -23.0000 Du        
  37254 ****        10.0000 -11.0000 -22.7500 Du        
  37255 ****        10.0000 -11.0000 -22.5000 Du        
  37256 ****        10.0000 -11.0000 -22.2500 Du        
  37257 ****        10.0000 -11.0000 -22.0000 Du        
  37258 ****        10.0000 -11.0000 -21.7500 Du        
  37259 ****        10.0000 -11.0000 -21.5000 Du        
  37260 ****        10.0000 -11.0000 -21.2500 Du        
  37261 ****        10.0000 -11.0000 -21.0000 Du        
  37262 ****        10.0000 -11.0000 -20.7500 Du        
  37263 ****        10.0000 -11.0000 -20.5000 Du        
  37264 ****        10.0000 -11.0000 -20.2500 Du        
  37265 ****        10.0000 -11.0000 -20.0000 Du        
  37266 ****        10.0000 -11.0000 -19.7500 Du        
  37267 ****        10.0000 -11.0000 -19.5000 Du        
  37268 ****        10.0000 -11.0000 -19.2500 Du        
  37269 ****        10.0000 -10.7500 -24.2500 Du        
  37270 ****        10.0000 -10.7500 -24.0000 Du        
  37271 ****        10.0000 -10.7500 -23.7500 Du        
  37272 ****        10.0000 -10.7500 -23.5000 Du        
  37273 ****        10.0000 -10.7500 -23.2500 Du        
  37274 ****        10.0000 -10.7500 -23.0000 Du        
  37275 ****        10.0000 -10.7500 -22.7500 Du        
  37276 ****        10.0000 -10.7500 -22.5000 Du        
  37277 ****        10.0000 -10.7500 -22.2500 Du        
  37278 ****        10.0000 -10.7500 -22.0000 Du        
  37279 ****        10.0000 -10.7500 -21.7500 Du        
  37280 ****        10.0000 -10.7500 -21.5000 Du        
  37281 ****        10.0000 -10.7500 -21.2500 Du        
  37282 ****        10.0000 -10.7500 -21.0000 Du        
  37283 ****        10.0000 -10.7500 -20.7500 Du        
  37284 ****        10.0000 -10.7500 -20.5000 Du        
  37285 ****        10.0000 -10.7500 -20.2500 Du        
  37286 ****        10.0000 -10.7500 -20.0000 Du        
  37287 ****        10.0000 -10.7500 -19.7500 Du        
  37288 ****        10.0000 -10.7500 -19.5000 Du        
  37289 ****        10.0000 -10.7500 -19.2500 Du        
  37290 ****        10.0000 -10.5000 -24.2500 Du        
  37291 ****        10.0000 -10.5000 -24.0000 Du        
  37292 ****        10.0000 -10.5000 -23.7500 Du        
  37293 ****        10.0000 -10.5000 -23.5000 Du        
  37294 ****        10.0000 -10.5000 -23.2500 Du        
  37295 ****        10.0000 -10.5000 -23.0000 Du        
  37296 ****        10.0000 -10.5000 -22.7500 Du        
  37297 ****        10.0000 -10.5000 -22.5000 Du        
  37298 ****        10.0000 -10.5000 -22.2500 Du        
  37299 ****        10.0000 -10.5000 -22.0000 Du        
  37300 ****        10.0000 -10.5000 -21.7500 Du        
  37301 ****        10.0000 -10.5000 -21.5000 Du        
  37302 ****        10.0000 -10.5000 -21.2500 Du        
  37303 ****        10.0000 -10.5000 -21.0000 Du        
  37304 ****        10.0000 -10.5000 -20.2500 Du        
  37305 ****        10.0000 -10.5000 -20.0000 Du        
  37306 ****        10.0000 -10.5000 -19.7500 Du        
  37307 ****        10.0000 -10.5000 -19.5000 Du        
  37308 ****        10.0000 -10.5000 -19.2500 Du        
  37309 ****        10.0000 -10.2500 -24.2500 Du        
  37310 ****        10.0000 -10.2500 -24.0000 Du        
  37311 ****        10.0000 -10.2500 -23.7500 Du        
  37312 ****        10.0000 -10.2500 -23.5000 Du        
  37313 ****        10.0000 -10.2500 -23.2500 Du        
  37314 ****        10.0000 -10.2500 -23.0000 Du        
  37315 ****        10.0000 -10.2500 -22.7500 Du        
  37316 ****        10.0000 -10.2500 -22.5000 Du        
  37317 ****        10.0000 -10.2500 -22.2500 Du        
  37318 ****        10.0000 -10.0000 -24.2500 Du        
  37319 ****        10.0000 -10.0000 -24.0000 Du        
  37320 ****        10.0000 -10.0000 -23.7500 Du        
  37321 ****        10.0000 -10.0000 -23.5000 Du        
  37322 ****        10.0000 -10.0000 -23.2500 Du        
  37323 ****        10.0000 -10.0000 -23.0000 Du        
  37324 ****        10.0000 -10.0000 -22.7500 Du        
  37325 ****        10.0000  -9.7500 -24.0000 Du        
  37326 ****        10.0000  -9.7500 -23.7500 Du        
  37327 ****        10.0000  -9.7500 -23.5000 Du        
  37328 ****        10.0000  -9.7500 -23.2500 Du        
  37329 ****        10.0000  -9.5000 -23.7500 Du        
  37330 ****        10.0000  -2.2500 -16.7500 Du        
  37331 ****        10.0000  -2.2500 -16.5000 Du        
  37332 ****        10.0000  -2.0000 -17.2500 Du        
  37333 ****        10.0000  -2.0000 -17.0000 Du        
  37334 ****        10.0000  -2.0000 -16.7500 Du        
  37335 ****        10.0000  -2.0000 -16.5000 Du        
  37336 ****        10.0000  -2.0000 -16.2500 Du        
  37337 ****        10.0000  -1.7500 -17.2500 Du        
  37338 ****        10.0000  -1.7500 -17.0000 Du        
  37339 ****        10.0000  -1.7500 -16.7500 Du        
  37340 ****        10.0000  -1.7500 -16.5000 Du        
  37341 ****        10.0000  -1.7500 -16.2500 Du        
  37342 ****        10.0000  -1.5000 -17.2500 Du        
  37343 ****        10.0000  -1.5000 -17.0000 Du        
  37344 ****        10.0000  -1.5000 -16.7500 Du        
  37345 ****        10.0000  -1.5000 -16.5000 Du        
  37346 ****        10.2500 -18.2500 -10.5000 Du        
  37347 ****        10.2500 -18.2500 -10.2500 Du        
  37348 ****        10.2500 -18.0000 -10.5000 Du        
  37349 ****        10.2500 -18.0000 -10.2500 Du        
  37350 ****        10.2500 -18.0000 -10.0000 Du        
  37351 ****        10.2500 -17.7500 -10.2500 Du        
  37352 ****        10.2500 -17.7500 -10.0000 Du        
  37353 ****        10.2500 -17.7500  -9.7500 Du        
  37354 ****        10.2500 -17.5000 -10.0000 Du        
  37355 ****        10.2500 -17.5000  -9.7500 Du        
  37356 ****        10.2500 -13.5000 -23.5000 Du        
  37357 ****        10.2500 -13.5000 -23.2500 Du        
  37358 ****        10.2500 -13.5000 -23.0000 Du        
  37359 ****        10.2500 -13.5000 -22.7500 Du        
  37360 ****        10.2500 -13.5000 -22.5000 Du        
  37361 ****        10.2500 -13.2500 -24.0000 Du        
  37362 ****        10.2500 -13.2500 -23.7500 Du        
  37363 ****        10.2500 -13.2500 -23.5000 Du        
  37364 ****        10.2500 -13.2500 -23.2500 Du        
  37365 ****        10.2500 -13.2500 -23.0000 Du        
  37366 ****        10.2500 -13.2500 -22.7500 Du        
  37367 ****        10.2500 -13.2500 -22.5000 Du        
  37368 ****        10.2500 -13.2500 -22.2500 Du        
  37369 ****        10.2500 -13.0000 -24.0000 Du        
  37370 ****        10.2500 -13.0000 -23.7500 Du        
  37371 ****        10.2500 -13.0000 -23.5000 Du        
  37372 ****        10.2500 -13.0000 -23.2500 Du        
  37373 ****        10.2500 -13.0000 -23.0000 Du        
  37374 ****        10.2500 -13.0000 -22.7500 Du        
  37375 ****        10.2500 -13.0000 -22.5000 Du        
  37376 ****        10.2500 -13.0000 -22.2500 Du        
  37377 ****        10.2500 -13.0000 -22.0000 Du        
  37378 ****        10.2500 -13.0000 -21.7500 Du        
  37379 ****        10.2500 -12.7500 -24.0000 Du        
  37380 ****        10.2500 -12.7500 -23.7500 Du        
  37381 ****        10.2500 -12.7500 -23.5000 Du        
  37382 ****        10.2500 -12.7500 -23.2500 Du        
  37383 ****        10.2500 -12.7500 -23.0000 Du        
  37384 ****        10.2500 -12.7500 -22.7500 Du        
  37385 ****        10.2500 -12.7500 -22.5000 Du        
  37386 ****        10.2500 -12.7500 -22.2500 Du        
  37387 ****        10.2500 -12.7500 -22.0000 Du        
  37388 ****        10.2500 -12.7500 -21.7500 Du        
  37389 ****        10.2500 -12.7500 -21.5000 Du        
  37390 ****        10.2500 -12.5000 -24.0000 Du        
  37391 ****        10.2500 -12.5000 -23.7500 Du        
  37392 ****        10.2500 -12.5000 -23.5000 Du        
  37393 ****        10.2500 -12.5000 -23.2500 Du        
  37394 ****        10.2500 -12.5000 -23.0000 Du        
  37395 ****        10.2500 -12.5000 -22.7500 Du        
  37396 ****        10.2500 -12.5000 -22.5000 Du        
  37397 ****        10.2500 -12.5000 -22.2500 Du        
  37398 ****        10.2500 -12.5000 -22.0000 Du        
  37399 ****        10.2500 -12.5000 -21.7500 Du        
  37400 ****        10.2500 -12.5000 -21.5000 Du        
  37401 ****        10.2500 -12.5000 -21.2500 Du        
  37402 ****        10.2500 -12.5000 -21.0000 Du        
  37403 ****        10.2500 -12.2500 -24.0000 Du        
  37404 ****        10.2500 -12.2500 -23.7500 Du        
  37405 ****        10.2500 -12.2500 -23.5000 Du        
  37406 ****        10.2500 -12.2500 -23.2500 Du        
  37407 ****        10.2500 -12.2500 -23.0000 Du        
  37408 ****        10.2500 -12.2500 -22.7500 Du        
  37409 ****        10.2500 -12.2500 -22.5000 Du        
  37410 ****        10.2500 -12.2500 -22.2500 Du        
  37411 ****        10.2500 -12.2500 -22.0000 Du        
  37412 ****        10.2500 -12.2500 -21.7500 Du        
  37413 ****        10.2500 -12.2500 -21.5000 Du        
  37414 ****        10.2500 -12.2500 -21.2500 Du        
  37415 ****        10.2500 -12.2500 -21.0000 Du        
  37416 ****        10.2500 -12.2500 -20.7500 Du        
  37417 ****        10.2500 -12.2500 -20.5000 Du        
  37418 ****        10.2500 -12.0000 -24.0000 Du        
  37419 ****        10.2500 -12.0000 -23.7500 Du        
  37420 ****        10.2500 -12.0000 -23.5000 Du        
  37421 ****        10.2500 -12.0000 -23.2500 Du        
  37422 ****        10.2500 -12.0000 -23.0000 Du        
  37423 ****        10.2500 -12.0000 -22.7500 Du        
  37424 ****        10.2500 -12.0000 -22.5000 Du        
  37425 ****        10.2500 -12.0000 -22.2500 Du        
  37426 ****        10.2500 -12.0000 -22.0000 Du        
  37427 ****        10.2500 -12.0000 -21.7500 Du        
  37428 ****        10.2500 -12.0000 -21.5000 Du        
  37429 ****        10.2500 -12.0000 -21.2500 Du        
  37430 ****        10.2500 -12.0000 -21.0000 Du        
  37431 ****        10.2500 -12.0000 -20.7500 Du        
  37432 ****        10.2500 -12.0000 -20.5000 Du        
  37433 ****        10.2500 -12.0000 -20.2500 Du        
  37434 ****        10.2500 -11.7500 -24.0000 Du        
  37435 ****        10.2500 -11.7500 -23.7500 Du        
  37436 ****        10.2500 -11.7500 -23.5000 Du        
  37437 ****        10.2500 -11.7500 -23.2500 Du        
  37438 ****        10.2500 -11.7500 -23.0000 Du        
  37439 ****        10.2500 -11.7500 -22.7500 Du        
  37440 ****        10.2500 -11.7500 -22.5000 Du        
  37441 ****        10.2500 -11.7500 -22.2500 Du        
  37442 ****        10.2500 -11.7500 -22.0000 Du        
  37443 ****        10.2500 -11.7500 -21.7500 Du        
  37444 ****        10.2500 -11.7500 -21.5000 Du        
  37445 ****        10.2500 -11.7500 -21.2500 Du        
  37446 ****        10.2500 -11.7500 -21.0000 Du        
  37447 ****        10.2500 -11.7500 -20.7500 Du        
  37448 ****        10.2500 -11.7500 -20.5000 Du        
  37449 ****        10.2500 -11.7500 -20.2500 Du        
  37450 ****        10.2500 -11.7500 -20.0000 Du        
  37451 ****        10.2500 -11.7500 -19.7500 Du        
  37452 ****        10.2500 -11.5000 -24.0000 Du        
  37453 ****        10.2500 -11.5000 -23.7500 Du        
  37454 ****        10.2500 -11.5000 -23.5000 Du        
  37455 ****        10.2500 -11.5000 -23.2500 Du        
  37456 ****        10.2500 -11.5000 -23.0000 Du        
  37457 ****        10.2500 -11.5000 -22.7500 Du        
  37458 ****        10.2500 -11.5000 -22.5000 Du        
  37459 ****        10.2500 -11.5000 -22.2500 Du        
  37460 ****        10.2500 -11.5000 -22.0000 Du        
  37461 ****        10.2500 -11.5000 -21.7500 Du        
  37462 ****        10.2500 -11.5000 -21.5000 Du        
  37463 ****        10.2500 -11.5000 -21.2500 Du        
  37464 ****        10.2500 -11.5000 -21.0000 Du        
  37465 ****        10.2500 -11.5000 -20.7500 Du        
  37466 ****        10.2500 -11.5000 -20.5000 Du        
  37467 ****        10.2500 -11.5000 -20.2500 Du        
  37468 ****        10.2500 -11.5000 -20.0000 Du        
  37469 ****        10.2500 -11.5000 -19.7500 Du        
  37470 ****        10.2500 -11.5000 -19.5000 Du        
  37471 ****        10.2500 -11.2500 -24.2500 Du        
  37472 ****        10.2500 -11.2500 -24.0000 Du        
  37473 ****        10.2500 -11.2500 -23.7500 Du        
  37474 ****        10.2500 -11.2500 -23.5000 Du        
  37475 ****        10.2500 -11.2500 -23.2500 Du        
  37476 ****        10.2500 -11.2500 -23.0000 Du        
  37477 ****        10.2500 -11.2500 -22.7500 Du        
  37478 ****        10.2500 -11.2500 -22.5000 Du        
  37479 ****        10.2500 -11.2500 -22.2500 Du        
  37480 ****        10.2500 -11.2500 -22.0000 Du        
  37481 ****        10.2500 -11.2500 -21.7500 Du        
  37482 ****        10.2500 -11.2500 -21.5000 Du        
  37483 ****        10.2500 -11.2500 -21.2500 Du        
  37484 ****        10.2500 -11.2500 -21.0000 Du        
  37485 ****        10.2500 -11.2500 -20.7500 Du        
  37486 ****        10.2500 -11.2500 -20.5000 Du        
  37487 ****        10.2500 -11.2500 -20.2500 Du        
  37488 ****        10.2500 -11.2500 -20.0000 Du        
  37489 ****        10.2500 -11.2500 -19.7500 Du        
  37490 ****        10.2500 -11.2500 -19.5000 Du        
  37491 ****        10.2500 -11.2500 -19.2500 Du        
  37492 ****        10.2500 -11.0000 -24.2500 Du        
  37493 ****        10.2500 -11.0000 -24.0000 Du        
  37494 ****        10.2500 -11.0000 -23.7500 Du        
  37495 ****        10.2500 -11.0000 -23.5000 Du        
  37496 ****        10.2500 -11.0000 -23.2500 Du        
  37497 ****        10.2500 -11.0000 -23.0000 Du        
  37498 ****        10.2500 -11.0000 -22.7500 Du        
  37499 ****        10.2500 -11.0000 -22.5000 Du        
  37500 ****        10.2500 -11.0000 -22.2500 Du        
  37501 ****        10.2500 -11.0000 -22.0000 Du        
  37502 ****        10.2500 -11.0000 -21.7500 Du        
  37503 ****        10.2500 -11.0000 -21.5000 Du        
  37504 ****        10.2500 -11.0000 -21.2500 Du        
  37505 ****        10.2500 -11.0000 -21.0000 Du        
  37506 ****        10.2500 -11.0000 -20.7500 Du        
  37507 ****        10.2500 -11.0000 -20.5000 Du        
  37508 ****        10.2500 -11.0000 -20.2500 Du        
  37509 ****        10.2500 -11.0000 -20.0000 Du        
  37510 ****        10.2500 -11.0000 -19.7500 Du        
  37511 ****        10.2500 -11.0000 -19.5000 Du        
  37512 ****        10.2500 -11.0000 -19.2500 Du        
  37513 ****        10.2500 -10.7500 -24.2500 Du        
  37514 ****        10.2500 -10.7500 -24.0000 Du        
  37515 ****        10.2500 -10.7500 -23.7500 Du        
  37516 ****        10.2500 -10.7500 -23.5000 Du        
  37517 ****        10.2500 -10.7500 -23.2500 Du        
  37518 ****        10.2500 -10.7500 -23.0000 Du        
  37519 ****        10.2500 -10.7500 -22.7500 Du        
  37520 ****        10.2500 -10.7500 -22.5000 Du        
  37521 ****        10.2500 -10.7500 -22.2500 Du        
  37522 ****        10.2500 -10.7500 -22.0000 Du        
  37523 ****        10.2500 -10.7500 -21.7500 Du        
  37524 ****        10.2500 -10.7500 -21.5000 Du        
  37525 ****        10.2500 -10.7500 -21.2500 Du        
  37526 ****        10.2500 -10.7500 -21.0000 Du        
  37527 ****        10.2500 -10.7500 -20.7500 Du        
  37528 ****        10.2500 -10.7500 -20.5000 Du        
  37529 ****        10.2500 -10.7500 -20.2500 Du        
  37530 ****        10.2500 -10.7500 -20.0000 Du        
  37531 ****        10.2500 -10.7500 -19.7500 Du        
  37532 ****        10.2500 -10.7500 -19.5000 Du        
  37533 ****        10.2500 -10.7500 -19.2500 Du        
  37534 ****        10.2500 -10.5000 -24.2500 Du        
  37535 ****        10.2500 -10.5000 -24.0000 Du        
  37536 ****        10.2500 -10.5000 -23.7500 Du        
  37537 ****        10.2500 -10.5000 -23.5000 Du        
  37538 ****        10.2500 -10.5000 -23.2500 Du        
  37539 ****        10.2500 -10.5000 -23.0000 Du        
  37540 ****        10.2500 -10.5000 -22.7500 Du        
  37541 ****        10.2500 -10.5000 -22.5000 Du        
  37542 ****        10.2500 -10.5000 -22.2500 Du        
  37543 ****        10.2500 -10.5000 -22.0000 Du        
  37544 ****        10.2500 -10.5000 -21.7500 Du        
  37545 ****        10.2500 -10.5000 -19.7500 Du        
  37546 ****        10.2500 -10.5000 -19.5000 Du        
  37547 ****        10.2500 -10.5000 -19.2500 Du        
  37548 ****        10.2500 -10.2500 -24.2500 Du        
  37549 ****        10.2500 -10.2500 -24.0000 Du        
  37550 ****        10.2500 -10.2500 -23.7500 Du        
  37551 ****        10.2500 -10.2500 -23.5000 Du        
  37552 ****        10.2500 -10.2500 -23.2500 Du        
  37553 ****        10.2500 -10.2500 -23.0000 Du        
  37554 ****        10.2500 -10.2500 -22.7500 Du        
  37555 ****        10.2500 -10.2500 -22.5000 Du        
  37556 ****        10.2500 -10.0000 -24.2500 Du        
  37557 ****        10.2500 -10.0000 -24.0000 Du        
  37558 ****        10.2500 -10.0000 -23.7500 Du        
  37559 ****        10.2500 -10.0000 -23.5000 Du        
  37560 ****        10.2500 -10.0000 -23.2500 Du        
  37561 ****        10.2500 -10.0000 -23.0000 Du        
  37562 ****        10.2500 -10.0000 -22.7500 Du        
  37563 ****        10.2500  -9.7500 -24.0000 Du        
  37564 ****        10.2500  -9.7500 -23.7500 Du        
  37565 ****        10.2500  -9.7500 -23.5000 Du        
  37566 ****        10.2500  -9.7500 -23.2500 Du        
  37567 ****        10.2500  -2.0000 -17.0000 Du        
  37568 ****        10.2500  -2.0000 -16.7500 Du        
  37569 ****        10.2500  -2.0000 -16.5000 Du        
  37570 ****        10.2500  -2.0000 -16.2500 Du        
  37571 ****        10.2500  -1.7500 -17.0000 Du        
  37572 ****        10.2500  -1.7500 -16.7500 Du        
  37573 ****        10.2500  -1.7500 -16.5000 Du        
  37574 ****        10.2500  -1.7500 -16.2500 Du        
  37575 ****        10.2500  -1.7500 -16.0000 Du        
  37576 ****        10.2500  -1.5000 -17.0000 Du        
  37577 ****        10.2500  -1.5000 -16.7500 Du        
  37578 ****        10.2500  -1.5000 -16.5000 Du        
  37579 ****        10.2500  -1.5000 -16.2500 Du        
  37580 ****        10.2500  -1.5000 -16.0000 Du        
  37581 ****        10.2500  -1.2500 -16.7500 Du        
  37582 ****        10.5000 -18.0000 -10.2500 Du        
  37583 ****        10.5000 -18.0000 -10.0000 Du        
  37584 ****        10.5000 -17.7500 -10.2500 Du        
  37585 ****        10.5000 -17.7500 -10.0000 Du        
  37586 ****        10.5000 -17.7500  -9.7500 Du        
  37587 ****        10.5000 -17.5000 -10.0000 Du        
  37588 ****        10.5000 -17.5000  -9.7500 Du        
  37589 ****        10.5000 -17.5000  -9.5000 Du        
  37590 ****        10.5000 -17.2500  -9.7500 Du        
  37591 ****        10.5000 -17.2500  -9.5000 Du        
  37592 ****        10.5000 -13.5000 -23.0000 Du        
  37593 ****        10.5000 -13.5000 -22.7500 Du        
  37594 ****        10.5000 -13.5000 -22.5000 Du        
  37595 ****        10.5000 -13.5000 -22.2500 Du        
  37596 ****        10.5000 -13.2500 -23.7500 Du        
  37597 ****        10.5000 -13.2500 -23.5000 Du        
  37598 ****        10.5000 -13.2500 -23.2500 Du        
  37599 ****        10.5000 -13.2500 -23.0000 Du        
  37600 ****        10.5000 -13.2500 -22.7500 Du        
  37601 ****        10.5000 -13.2500 -22.5000 Du        
  37602 ****        10.5000 -13.2500 -22.2500 Du        
  37603 ****        10.5000 -13.2500 -22.0000 Du        
  37604 ****        10.5000 -13.0000 -24.0000 Du        
  37605 ****        10.5000 -13.0000 -23.7500 Du        
  37606 ****        10.5000 -13.0000 -23.5000 Du        
  37607 ****        10.5000 -13.0000 -23.2500 Du        
  37608 ****        10.5000 -13.0000 -23.0000 Du        
  37609 ****        10.5000 -13.0000 -22.7500 Du        
  37610 ****        10.5000 -13.0000 -22.5000 Du        
  37611 ****        10.5000 -13.0000 -22.2500 Du        
  37612 ****        10.5000 -13.0000 -22.0000 Du        
  37613 ****        10.5000 -13.0000 -21.7500 Du        
  37614 ****        10.5000 -13.0000 -21.5000 Du        
  37615 ****        10.5000 -12.7500 -24.2500 Du        
  37616 ****        10.5000 -12.7500 -24.0000 Du        
  37617 ****        10.5000 -12.7500 -23.7500 Du        
  37618 ****        10.5000 -12.7500 -23.5000 Du        
  37619 ****        10.5000 -12.7500 -23.2500 Du        
  37620 ****        10.5000 -12.7500 -23.0000 Du        
  37621 ****        10.5000 -12.7500 -22.7500 Du        
  37622 ****        10.5000 -12.7500 -22.5000 Du        
  37623 ****        10.5000 -12.7500 -22.2500 Du        
  37624 ****        10.5000 -12.7500 -22.0000 Du        
  37625 ****        10.5000 -12.7500 -21.7500 Du        
  37626 ****        10.5000 -12.7500 -21.5000 Du        
  37627 ****        10.5000 -12.7500 -21.2500 Du        
  37628 ****        10.5000 -12.5000 -24.2500 Du        
  37629 ****        10.5000 -12.5000 -24.0000 Du        
  37630 ****        10.5000 -12.5000 -23.7500 Du        
  37631 ****        10.5000 -12.5000 -23.5000 Du        
  37632 ****        10.5000 -12.5000 -23.2500 Du        
  37633 ****        10.5000 -12.5000 -23.0000 Du        
  37634 ****        10.5000 -12.5000 -22.7500 Du        
  37635 ****        10.5000 -12.5000 -22.5000 Du        
  37636 ****        10.5000 -12.5000 -22.2500 Du        
  37637 ****        10.5000 -12.5000 -22.0000 Du        
  37638 ****        10.5000 -12.5000 -21.7500 Du        
  37639 ****        10.5000 -12.5000 -21.5000 Du        
  37640 ****        10.5000 -12.5000 -21.2500 Du        
  37641 ****        10.5000 -12.5000 -21.0000 Du        
  37642 ****        10.5000 -12.5000 -20.7500 Du        
  37643 ****        10.5000 -12.2500 -24.2500 Du        
  37644 ****        10.5000 -12.2500 -24.0000 Du        
  37645 ****        10.5000 -12.2500 -23.7500 Du        
  37646 ****        10.5000 -12.2500 -23.5000 Du        
  37647 ****        10.5000 -12.2500 -23.2500 Du        
  37648 ****        10.5000 -12.2500 -23.0000 Du        
  37649 ****        10.5000 -12.2500 -22.7500 Du        
  37650 ****        10.5000 -12.2500 -22.5000 Du        
  37651 ****        10.5000 -12.2500 -22.2500 Du        
  37652 ****        10.5000 -12.2500 -22.0000 Du        
  37653 ****        10.5000 -12.2500 -21.7500 Du        
  37654 ****        10.5000 -12.2500 -21.5000 Du        
  37655 ****        10.5000 -12.2500 -21.2500 Du        
  37656 ****        10.5000 -12.2500 -21.0000 Du        
  37657 ****        10.5000 -12.2500 -20.7500 Du        
  37658 ****        10.5000 -12.2500 -20.5000 Du        
  37659 ****        10.5000 -12.0000 -24.2500 Du        
  37660 ****        10.5000 -12.0000 -24.0000 Du        
  37661 ****        10.5000 -12.0000 -23.7500 Du        
  37662 ****        10.5000 -12.0000 -23.5000 Du        
  37663 ****        10.5000 -12.0000 -23.2500 Du        
  37664 ****        10.5000 -12.0000 -23.0000 Du        
  37665 ****        10.5000 -12.0000 -22.7500 Du        
  37666 ****        10.5000 -12.0000 -22.5000 Du        
  37667 ****        10.5000 -12.0000 -22.2500 Du        
  37668 ****        10.5000 -12.0000 -22.0000 Du        
  37669 ****        10.5000 -12.0000 -21.7500 Du        
  37670 ****        10.5000 -12.0000 -21.5000 Du        
  37671 ****        10.5000 -12.0000 -21.2500 Du        
  37672 ****        10.5000 -12.0000 -21.0000 Du        
  37673 ****        10.5000 -12.0000 -20.7500 Du        
  37674 ****        10.5000 -12.0000 -20.5000 Du        
  37675 ****        10.5000 -12.0000 -20.2500 Du        
  37676 ****        10.5000 -11.7500 -24.2500 Du        
  37677 ****        10.5000 -11.7500 -24.0000 Du        
  37678 ****        10.5000 -11.7500 -23.7500 Du        
  37679 ****        10.5000 -11.7500 -23.5000 Du        
  37680 ****        10.5000 -11.7500 -23.2500 Du        
  37681 ****        10.5000 -11.7500 -23.0000 Du        
  37682 ****        10.5000 -11.7500 -22.7500 Du        
  37683 ****        10.5000 -11.7500 -22.5000 Du        
  37684 ****        10.5000 -11.7500 -22.2500 Du        
  37685 ****        10.5000 -11.7500 -22.0000 Du        
  37686 ****        10.5000 -11.7500 -21.7500 Du        
  37687 ****        10.5000 -11.7500 -21.5000 Du        
  37688 ****        10.5000 -11.7500 -21.2500 Du        
  37689 ****        10.5000 -11.7500 -21.0000 Du        
  37690 ****        10.5000 -11.7500 -20.7500 Du        
  37691 ****        10.5000 -11.7500 -20.5000 Du        
  37692 ****        10.5000 -11.7500 -20.2500 Du        
  37693 ****        10.5000 -11.7500 -20.0000 Du        
  37694 ****        10.5000 -11.7500 -19.7500 Du        
  37695 ****        10.5000 -11.5000 -24.2500 Du        
  37696 ****        10.5000 -11.5000 -24.0000 Du        
  37697 ****        10.5000 -11.5000 -23.7500 Du        
  37698 ****        10.5000 -11.5000 -23.5000 Du        
  37699 ****        10.5000 -11.5000 -23.2500 Du        
  37700 ****        10.5000 -11.5000 -23.0000 Du        
  37701 ****        10.5000 -11.5000 -22.7500 Du        
  37702 ****        10.5000 -11.5000 -22.5000 Du        
  37703 ****        10.5000 -11.5000 -22.2500 Du        
  37704 ****        10.5000 -11.5000 -22.0000 Du        
  37705 ****        10.5000 -11.5000 -21.7500 Du        
  37706 ****        10.5000 -11.5000 -21.5000 Du        
  37707 ****        10.5000 -11.5000 -21.2500 Du        
  37708 ****        10.5000 -11.5000 -21.0000 Du        
  37709 ****        10.5000 -11.5000 -20.7500 Du        
  37710 ****        10.5000 -11.5000 -20.5000 Du        
  37711 ****        10.5000 -11.5000 -20.2500 Du        
  37712 ****        10.5000 -11.5000 -20.0000 Du        
  37713 ****        10.5000 -11.5000 -19.7500 Du        
  37714 ****        10.5000 -11.5000 -19.5000 Du        
  37715 ****        10.5000 -11.2500 -24.5000 Du        
  37716 ****        10.5000 -11.2500 -24.2500 Du        
  37717 ****        10.5000 -11.2500 -24.0000 Du        
  37718 ****        10.5000 -11.2500 -23.7500 Du        
  37719 ****        10.5000 -11.2500 -23.5000 Du        
  37720 ****        10.5000 -11.2500 -23.2500 Du        
  37721 ****        10.5000 -11.2500 -23.0000 Du        
  37722 ****        10.5000 -11.2500 -22.7500 Du        
  37723 ****        10.5000 -11.2500 -22.5000 Du        
  37724 ****        10.5000 -11.2500 -22.2500 Du        
  37725 ****        10.5000 -11.2500 -22.0000 Du        
  37726 ****        10.5000 -11.2500 -21.7500 Du        
  37727 ****        10.5000 -11.2500 -21.5000 Du        
  37728 ****        10.5000 -11.2500 -21.2500 Du        
  37729 ****        10.5000 -11.2500 -21.0000 Du        
  37730 ****        10.5000 -11.2500 -20.7500 Du        
  37731 ****        10.5000 -11.2500 -20.5000 Du        
  37732 ****        10.5000 -11.2500 -20.2500 Du        
  37733 ****        10.5000 -11.2500 -20.0000 Du        
  37734 ****        10.5000 -11.2500 -19.7500 Du        
  37735 ****        10.5000 -11.2500 -19.5000 Du        
  37736 ****        10.5000 -11.2500 -19.2500 Du        
  37737 ****        10.5000 -11.0000 -24.5000 Du        
  37738 ****        10.5000 -11.0000 -24.2500 Du        
  37739 ****        10.5000 -11.0000 -24.0000 Du        
  37740 ****        10.5000 -11.0000 -23.7500 Du        
  37741 ****        10.5000 -11.0000 -23.5000 Du        
  37742 ****        10.5000 -11.0000 -23.2500 Du        
  37743 ****        10.5000 -11.0000 -23.0000 Du        
  37744 ****        10.5000 -11.0000 -22.7500 Du        
  37745 ****        10.5000 -11.0000 -22.5000 Du        
  37746 ****        10.5000 -11.0000 -22.2500 Du        
  37747 ****        10.5000 -11.0000 -22.0000 Du        
  37748 ****        10.5000 -11.0000 -21.7500 Du        
  37749 ****        10.5000 -11.0000 -21.5000 Du        
  37750 ****        10.5000 -11.0000 -21.2500 Du        
  37751 ****        10.5000 -11.0000 -21.0000 Du        
  37752 ****        10.5000 -11.0000 -20.7500 Du        
  37753 ****        10.5000 -11.0000 -20.5000 Du        
  37754 ****        10.5000 -11.0000 -20.2500 Du        
  37755 ****        10.5000 -11.0000 -20.0000 Du        
  37756 ****        10.5000 -11.0000 -19.7500 Du        
  37757 ****        10.5000 -11.0000 -19.5000 Du        
  37758 ****        10.5000 -11.0000 -19.2500 Du        
  37759 ****        10.5000 -11.0000 -19.0000 Du        
  37760 ****        10.5000 -10.7500 -24.5000 Du        
  37761 ****        10.5000 -10.7500 -24.2500 Du        
  37762 ****        10.5000 -10.7500 -24.0000 Du        
  37763 ****        10.5000 -10.7500 -23.7500 Du        
  37764 ****        10.5000 -10.7500 -23.5000 Du        
  37765 ****        10.5000 -10.7500 -23.2500 Du        
  37766 ****        10.5000 -10.7500 -23.0000 Du        
  37767 ****        10.5000 -10.7500 -22.7500 Du        
  37768 ****        10.5000 -10.7500 -22.5000 Du        
  37769 ****        10.5000 -10.7500 -22.2500 Du        
  37770 ****        10.5000 -10.7500 -22.0000 Du        
  37771 ****        10.5000 -10.7500 -21.7500 Du        
  37772 ****        10.5000 -10.7500 -21.5000 Du        
  37773 ****        10.5000 -10.7500 -21.2500 Du        
  37774 ****        10.5000 -10.7500 -20.0000 Du        
  37775 ****        10.5000 -10.7500 -19.7500 Du        
  37776 ****        10.5000 -10.7500 -19.5000 Du        
  37777 ****        10.5000 -10.7500 -19.2500 Du        
  37778 ****        10.5000 -10.7500 -19.0000 Du        
  37779 ****        10.5000 -10.5000 -24.2500 Du        
  37780 ****        10.5000 -10.5000 -24.0000 Du        
  37781 ****        10.5000 -10.5000 -23.7500 Du        
  37782 ****        10.5000 -10.5000 -23.5000 Du        
  37783 ****        10.5000 -10.5000 -23.2500 Du        
  37784 ****        10.5000 -10.5000 -23.0000 Du        
  37785 ****        10.5000 -10.5000 -22.7500 Du        
  37786 ****        10.5000 -10.5000 -22.5000 Du        
  37787 ****        10.5000 -10.5000 -22.2500 Du        
  37788 ****        10.5000 -10.5000 -22.0000 Du        
  37789 ****        10.5000 -10.5000 -19.5000 Du        
  37790 ****        10.5000 -10.5000 -19.2500 Du        
  37791 ****        10.5000 -10.5000 -19.0000 Du        
  37792 ****        10.5000 -10.2500 -24.2500 Du        
  37793 ****        10.5000 -10.2500 -24.0000 Du        
  37794 ****        10.5000 -10.2500 -23.7500 Du        
  37795 ****        10.5000 -10.2500 -23.5000 Du        
  37796 ****        10.5000 -10.2500 -23.2500 Du        
  37797 ****        10.5000 -10.2500 -23.0000 Du        
  37798 ****        10.5000 -10.2500 -22.7500 Du        
  37799 ****        10.5000 -10.2500 -22.5000 Du        
  37800 ****        10.5000 -10.0000 -24.0000 Du        
  37801 ****        10.5000 -10.0000 -23.7500 Du        
  37802 ****        10.5000 -10.0000 -23.5000 Du        
  37803 ****        10.5000 -10.0000 -23.2500 Du        
  37804 ****        10.5000 -10.0000 -23.0000 Du        
  37805 ****        10.5000  -9.7500 -24.0000 Du        
  37806 ****        10.5000  -9.7500 -23.7500 Du        
  37807 ****        10.5000  -9.7500 -23.5000 Du        
  37808 ****        10.5000  -9.7500 -23.2500 Du        
  37809 ****        10.5000  -2.0000 -16.5000 Du        
  37810 ****        10.5000  -2.0000 -16.2500 Du        
  37811 ****        10.5000  -1.7500 -16.7500 Du        
  37812 ****        10.5000  -1.7500 -16.5000 Du        
  37813 ****        10.5000  -1.7500 -16.2500 Du        
  37814 ****        10.5000  -1.7500 -16.0000 Du        
  37815 ****        10.5000  -1.5000 -16.7500 Du        
  37816 ****        10.5000  -1.5000 -16.5000 Du        
  37817 ****        10.5000  -1.5000 -16.2500 Du        
  37818 ****        10.5000  -1.5000 -16.0000 Du        
  37819 ****        10.5000  -1.2500 -17.0000 Du        
  37820 ****        10.5000  -1.2500 -16.7500 Du        
  37821 ****        10.5000  -1.2500 -16.5000 Du        
  37822 ****        10.5000  -1.2500 -16.2500 Du        
  37823 ****        10.5000  -1.2500 -16.0000 Du        
  37824 ****        10.5000  -1.2500 -15.7500 Du        
  37825 ****        10.5000  -1.0000 -16.7500 Du        
  37826 ****        10.5000  -1.0000 -16.5000 Du        
  37827 ****        10.5000  -1.0000 -16.2500 Du        
  37828 ****        10.7500 -18.0000 -10.2500 Du        
  37829 ****        10.7500 -18.0000 -10.0000 Du        
  37830 ****        10.7500 -17.7500 -10.0000 Du        
  37831 ****        10.7500 -17.7500  -9.7500 Du        
  37832 ****        10.7500 -17.7500  -9.5000 Du        
  37833 ****        10.7500 -17.5000 -10.0000 Du        
  37834 ****        10.7500 -17.5000  -9.7500 Du        
  37835 ****        10.7500 -17.5000  -9.5000 Du        
  37836 ****        10.7500 -17.5000  -9.2500 Du        
  37837 ****        10.7500 -17.2500  -9.7500 Du        
  37838 ****        10.7500 -17.2500  -9.5000 Du        
  37839 ****        10.7500 -17.2500  -9.2500 Du        
  37840 ****        10.7500 -17.0000  -9.5000 Du        
  37841 ****        10.7500 -17.0000  -9.2500 Du        
  37842 ****        10.7500 -13.5000 -22.5000 Du        
  37843 ****        10.7500 -13.5000 -22.2500 Du        
  37844 ****        10.7500 -13.5000 -22.0000 Du        
  37845 ****        10.7500 -13.2500 -23.5000 Du        
  37846 ****        10.7500 -13.2500 -23.2500 Du        
  37847 ****        10.7500 -13.2500 -23.0000 Du        
  37848 ****        10.7500 -13.2500 -22.7500 Du        
  37849 ****        10.7500 -13.2500 -22.5000 Du        
  37850 ****        10.7500 -13.2500 -22.2500 Du        
  37851 ****        10.7500 -13.2500 -22.0000 Du        
  37852 ****        10.7500 -13.2500 -21.7500 Du        
  37853 ****        10.7500 -13.0000 -24.0000 Du        
  37854 ****        10.7500 -13.0000 -23.7500 Du        
  37855 ****        10.7500 -13.0000 -23.5000 Du        
  37856 ****        10.7500 -13.0000 -23.2500 Du        
  37857 ****        10.7500 -13.0000 -23.0000 Du        
  37858 ****        10.7500 -13.0000 -22.7500 Du        
  37859 ****        10.7500 -13.0000 -22.5000 Du        
  37860 ****        10.7500 -13.0000 -22.2500 Du        
  37861 ****        10.7500 -13.0000 -22.0000 Du        
  37862 ****        10.7500 -13.0000 -21.7500 Du        
  37863 ****        10.7500 -13.0000 -21.5000 Du        
  37864 ****        10.7500 -12.7500 -24.2500 Du        
  37865 ****        10.7500 -12.7500 -24.0000 Du        
  37866 ****        10.7500 -12.7500 -23.7500 Du        
  37867 ****        10.7500 -12.7500 -23.5000 Du        
  37868 ****        10.7500 -12.7500 -23.2500 Du        
  37869 ****        10.7500 -12.7500 -23.0000 Du        
  37870 ****        10.7500 -12.7500 -22.7500 Du        
  37871 ****        10.7500 -12.7500 -22.5000 Du        
  37872 ****        10.7500 -12.7500 -22.2500 Du        
  37873 ****        10.7500 -12.7500 -22.0000 Du        
  37874 ****        10.7500 -12.7500 -21.7500 Du        
  37875 ****        10.7500 -12.7500 -21.5000 Du        
  37876 ****        10.7500 -12.7500 -21.2500 Du        
  37877 ****        10.7500 -12.7500 -21.0000 Du        
  37878 ****        10.7500 -12.5000 -24.5000 Du        
  37879 ****        10.7500 -12.5000 -24.2500 Du        
  37880 ****        10.7500 -12.5000 -24.0000 Du        
  37881 ****        10.7500 -12.5000 -23.7500 Du        
  37882 ****        10.7500 -12.5000 -23.5000 Du        
  37883 ****        10.7500 -12.5000 -23.2500 Du        
  37884 ****        10.7500 -12.5000 -23.0000 Du        
  37885 ****        10.7500 -12.5000 -22.7500 Du        
  37886 ****        10.7500 -12.5000 -22.5000 Du        
  37887 ****        10.7500 -12.5000 -22.2500 Du        
  37888 ****        10.7500 -12.5000 -22.0000 Du        
  37889 ****        10.7500 -12.5000 -21.7500 Du        
  37890 ****        10.7500 -12.5000 -21.5000 Du        
  37891 ****        10.7500 -12.5000 -21.2500 Du        
  37892 ****        10.7500 -12.5000 -21.0000 Du        
  37893 ****        10.7500 -12.5000 -20.7500 Du        
  37894 ****        10.7500 -12.2500 -24.5000 Du        
  37895 ****        10.7500 -12.2500 -24.2500 Du        
  37896 ****        10.7500 -12.2500 -24.0000 Du        
  37897 ****        10.7500 -12.2500 -23.7500 Du        
  37898 ****        10.7500 -12.2500 -23.5000 Du        
  37899 ****        10.7500 -12.2500 -23.2500 Du        
  37900 ****        10.7500 -12.2500 -23.0000 Du        
  37901 ****        10.7500 -12.2500 -22.7500 Du        
  37902 ****        10.7500 -12.2500 -22.5000 Du        
  37903 ****        10.7500 -12.2500 -22.2500 Du        
  37904 ****        10.7500 -12.2500 -22.0000 Du        
  37905 ****        10.7500 -12.2500 -21.7500 Du        
  37906 ****        10.7500 -12.2500 -21.5000 Du        
  37907 ****        10.7500 -12.2500 -21.2500 Du        
  37908 ****        10.7500 -12.2500 -21.0000 Du        
  37909 ****        10.7500 -12.2500 -20.7500 Du        
  37910 ****        10.7500 -12.2500 -20.5000 Du        
  37911 ****        10.7500 -12.0000 -24.5000 Du        
  37912 ****        10.7500 -12.0000 -24.2500 Du        
  37913 ****        10.7500 -12.0000 -24.0000 Du        
  37914 ****        10.7500 -12.0000 -23.7500 Du        
  37915 ****        10.7500 -12.0000 -23.5000 Du        
  37916 ****        10.7500 -12.0000 -23.2500 Du        
  37917 ****        10.7500 -12.0000 -23.0000 Du        
  37918 ****        10.7500 -12.0000 -22.7500 Du        
  37919 ****        10.7500 -12.0000 -22.5000 Du        
  37920 ****        10.7500 -12.0000 -22.2500 Du        
  37921 ****        10.7500 -12.0000 -22.0000 Du        
  37922 ****        10.7500 -12.0000 -21.7500 Du        
  37923 ****        10.7500 -12.0000 -21.5000 Du        
  37924 ****        10.7500 -12.0000 -21.2500 Du        
  37925 ****        10.7500 -12.0000 -21.0000 Du        
  37926 ****        10.7500 -12.0000 -20.7500 Du        
  37927 ****        10.7500 -12.0000 -20.5000 Du        
  37928 ****        10.7500 -12.0000 -20.2500 Du        
  37929 ****        10.7500 -11.7500 -24.5000 Du        
  37930 ****        10.7500 -11.7500 -24.2500 Du        
  37931 ****        10.7500 -11.7500 -24.0000 Du        
  37932 ****        10.7500 -11.7500 -23.7500 Du        
  37933 ****        10.7500 -11.7500 -23.5000 Du        
  37934 ****        10.7500 -11.7500 -23.2500 Du        
  37935 ****        10.7500 -11.7500 -23.0000 Du        
  37936 ****        10.7500 -11.7500 -22.7500 Du        
  37937 ****        10.7500 -11.7500 -22.5000 Du        
  37938 ****        10.7500 -11.7500 -22.2500 Du        
  37939 ****        10.7500 -11.7500 -22.0000 Du        
  37940 ****        10.7500 -11.7500 -21.7500 Du        
  37941 ****        10.7500 -11.7500 -21.5000 Du        
  37942 ****        10.7500 -11.7500 -21.2500 Du        
  37943 ****        10.7500 -11.7500 -21.0000 Du        
  37944 ****        10.7500 -11.7500 -20.7500 Du        
  37945 ****        10.7500 -11.7500 -20.5000 Du        
  37946 ****        10.7500 -11.7500 -20.2500 Du        
  37947 ****        10.7500 -11.7500 -20.0000 Du        
  37948 ****        10.7500 -11.7500 -19.7500 Du        
  37949 ****        10.7500 -11.5000 -24.5000 Du        
  37950 ****        10.7500 -11.5000 -24.2500 Du        
  37951 ****        10.7500 -11.5000 -24.0000 Du        
  37952 ****        10.7500 -11.5000 -23.7500 Du        
  37953 ****        10.7500 -11.5000 -23.5000 Du        
  37954 ****        10.7500 -11.5000 -23.2500 Du        
  37955 ****        10.7500 -11.5000 -23.0000 Du        
  37956 ****        10.7500 -11.5000 -22.7500 Du        
  37957 ****        10.7500 -11.5000 -22.5000 Du        
  37958 ****        10.7500 -11.5000 -22.2500 Du        
  37959 ****        10.7500 -11.5000 -22.0000 Du        
  37960 ****        10.7500 -11.5000 -21.7500 Du        
  37961 ****        10.7500 -11.5000 -21.5000 Du        
  37962 ****        10.7500 -11.5000 -21.2500 Du        
  37963 ****        10.7500 -11.5000 -21.0000 Du        
  37964 ****        10.7500 -11.5000 -20.7500 Du        
  37965 ****        10.7500 -11.5000 -20.5000 Du        
  37966 ****        10.7500 -11.5000 -20.2500 Du        
  37967 ****        10.7500 -11.5000 -20.0000 Du        
  37968 ****        10.7500 -11.5000 -19.7500 Du        
  37969 ****        10.7500 -11.5000 -19.5000 Du        
  37970 ****        10.7500 -11.2500 -24.5000 Du        
  37971 ****        10.7500 -11.2500 -24.2500 Du        
  37972 ****        10.7500 -11.2500 -24.0000 Du        
  37973 ****        10.7500 -11.2500 -23.7500 Du        
  37974 ****        10.7500 -11.2500 -23.5000 Du        
  37975 ****        10.7500 -11.2500 -23.2500 Du        
  37976 ****        10.7500 -11.2500 -23.0000 Du        
  37977 ****        10.7500 -11.2500 -22.7500 Du        
  37978 ****        10.7500 -11.2500 -22.5000 Du        
  37979 ****        10.7500 -11.2500 -22.2500 Du        
  37980 ****        10.7500 -11.2500 -22.0000 Du        
  37981 ****        10.7500 -11.2500 -21.7500 Du        
  37982 ****        10.7500 -11.2500 -21.5000 Du        
  37983 ****        10.7500 -11.2500 -21.2500 Du        
  37984 ****        10.7500 -11.2500 -21.0000 Du        
  37985 ****        10.7500 -11.2500 -20.7500 Du        
  37986 ****        10.7500 -11.2500 -20.5000 Du        
  37987 ****        10.7500 -11.2500 -20.2500 Du        
  37988 ****        10.7500 -11.2500 -20.0000 Du        
  37989 ****        10.7500 -11.2500 -19.7500 Du        
  37990 ****        10.7500 -11.2500 -19.5000 Du        
  37991 ****        10.7500 -11.2500 -19.2500 Du        
  37992 ****        10.7500 -11.0000 -24.5000 Du        
  37993 ****        10.7500 -11.0000 -24.2500 Du        
  37994 ****        10.7500 -11.0000 -24.0000 Du        
  37995 ****        10.7500 -11.0000 -23.7500 Du        
  37996 ****        10.7500 -11.0000 -23.5000 Du        
  37997 ****        10.7500 -11.0000 -23.2500 Du        
  37998 ****        10.7500 -11.0000 -23.0000 Du        
  37999 ****        10.7500 -11.0000 -22.7500 Du        
  38000 ****        10.7500 -11.0000 -22.5000 Du        
  38001 ****        10.7500 -11.0000 -22.2500 Du        
  38002 ****        10.7500 -11.0000 -22.0000 Du        
  38003 ****        10.7500 -11.0000 -21.7500 Du        
  38004 ****        10.7500 -11.0000 -21.5000 Du        
  38005 ****        10.7500 -11.0000 -21.2500 Du        
  38006 ****        10.7500 -11.0000 -21.0000 Du        
  38007 ****        10.7500 -11.0000 -20.7500 Du        
  38008 ****        10.7500 -11.0000 -20.5000 Du        
  38009 ****        10.7500 -11.0000 -20.2500 Du        
  38010 ****        10.7500 -11.0000 -20.0000 Du        
  38011 ****        10.7500 -11.0000 -19.7500 Du        
  38012 ****        10.7500 -11.0000 -19.5000 Du        
  38013 ****        10.7500 -11.0000 -19.2500 Du        
  38014 ****        10.7500 -10.7500 -24.5000 Du        
  38015 ****        10.7500 -10.7500 -24.2500 Du        
  38016 ****        10.7500 -10.7500 -24.0000 Du        
  38017 ****        10.7500 -10.7500 -23.7500 Du        
  38018 ****        10.7500 -10.7500 -23.5000 Du        
  38019 ****        10.7500 -10.7500 -23.2500 Du        
  38020 ****        10.7500 -10.7500 -23.0000 Du        
  38021 ****        10.7500 -10.7500 -22.7500 Du        
  38022 ****        10.7500 -10.7500 -22.5000 Du        
  38023 ****        10.7500 -10.7500 -22.2500 Du        
  38024 ****        10.7500 -10.7500 -22.0000 Du        
  38025 ****        10.7500 -10.7500 -21.7500 Du        
  38026 ****        10.7500 -10.7500 -19.5000 Du        
  38027 ****        10.7500 -10.7500 -19.2500 Du        
  38028 ****        10.7500 -10.5000 -24.2500 Du        
  38029 ****        10.7500 -10.5000 -24.0000 Du        
  38030 ****        10.7500 -10.5000 -23.7500 Du        
  38031 ****        10.7500 -10.5000 -23.5000 Du        
  38032 ****        10.7500 -10.5000 -23.2500 Du        
  38033 ****        10.7500 -10.5000 -23.0000 Du        
  38034 ****        10.7500 -10.5000 -22.7500 Du        
  38035 ****        10.7500 -10.5000 -22.5000 Du        
  38036 ****        10.7500 -10.5000 -22.2500 Du        
  38037 ****        10.7500 -10.2500 -24.2500 Du        
  38038 ****        10.7500 -10.2500 -24.0000 Du        
  38039 ****        10.7500 -10.2500 -23.7500 Du        
  38040 ****        10.7500 -10.2500 -23.5000 Du        
  38041 ****        10.7500 -10.2500 -23.2500 Du        
  38042 ****        10.7500 -10.2500 -23.0000 Du        
  38043 ****        10.7500 -10.2500 -22.7500 Du        
  38044 ****        10.7500 -10.0000 -24.0000 Du        
  38045 ****        10.7500 -10.0000 -23.7500 Du        
  38046 ****        10.7500 -10.0000 -23.5000 Du        
  38047 ****        10.7500 -10.0000 -23.2500 Du        
  38048 ****        10.7500 -10.0000 -23.0000 Du        
  38049 ****        10.7500  -9.7500 -23.5000 Du        
  38050 ****        10.7500  -2.0000 -16.5000 Du        
  38051 ****        10.7500  -2.0000 -16.2500 Du        
  38052 ****        10.7500  -1.7500 -16.5000 Du        
  38053 ****        10.7500  -1.7500 -16.2500 Du        
  38054 ****        10.7500  -1.7500 -16.0000 Du        
  38055 ****        10.7500  -1.5000 -16.7500 Du        
  38056 ****        10.7500  -1.5000 -16.5000 Du        
  38057 ****        10.7500  -1.5000 -16.2500 Du        
  38058 ****        10.7500  -1.5000 -16.0000 Du        
  38059 ****        10.7500  -1.5000 -15.7500 Du        
  38060 ****        10.7500  -1.2500 -16.7500 Du        
  38061 ****        10.7500  -1.2500 -16.5000 Du        
  38062 ****        10.7500  -1.2500 -16.2500 Du        
  38063 ****        10.7500  -1.2500 -16.0000 Du        
  38064 ****        10.7500  -1.2500 -15.7500 Du        
  38065 ****        10.7500  -1.2500 -15.5000 Du        
  38066 ****        10.7500  -1.0000 -16.7500 Du        
  38067 ****        10.7500  -1.0000 -16.5000 Du        
  38068 ****        10.7500  -1.0000 -16.2500 Du        
  38069 ****        10.7500  -1.0000 -16.0000 Du        
  38070 ****        10.7500  -1.0000 -15.7500 Du        
  38071 ****        10.7500  -1.0000 -15.5000 Du        
  38072 ****        10.7500  -0.7500 -16.7500 Du        
  38073 ****        10.7500  -0.7500 -16.5000 Du        
  38074 ****        10.7500  -0.7500 -16.2500 Du        
  38075 ****        10.7500  -0.7500 -16.0000 Du        
  38076 ****        10.7500  -0.7500 -15.7500 Du        
  38077 ****        11.0000 -18.0000 -10.0000 Du        
  38078 ****        11.0000 -17.7500 -10.0000 Du        
  38079 ****        11.0000 -17.7500  -9.7500 Du        
  38080 ****        11.0000 -17.7500  -9.5000 Du        
  38081 ****        11.0000 -17.5000  -9.7500 Du        
  38082 ****        11.0000 -17.5000  -9.5000 Du        
  38083 ****        11.0000 -17.5000  -9.2500 Du        
  38084 ****        11.0000 -17.5000  -9.0000 Du        
  38085 ****        11.0000 -17.2500  -9.7500 Du        
  38086 ****        11.0000 -17.2500  -9.5000 Du        
  38087 ****        11.0000 -17.2500  -9.2500 Du        
  38088 ****        11.0000 -17.2500  -9.0000 Du        
  38089 ****        11.0000 -17.0000  -9.5000 Du        
  38090 ****        11.0000 -17.0000  -9.2500 Du        
  38091 ****        11.0000 -17.0000  -9.0000 Du        
  38092 ****        11.0000 -16.7500  -9.2500 Du        
  38093 ****        11.0000 -16.7500  -9.0000 Du        
  38094 ****        11.0000 -13.2500 -23.0000 Du        
  38095 ****        11.0000 -13.2500 -22.7500 Du        
  38096 ****        11.0000 -13.2500 -22.5000 Du        
  38097 ****        11.0000 -13.2500 -22.2500 Du        
  38098 ****        11.0000 -13.2500 -22.0000 Du        
  38099 ****        11.0000 -13.0000 -23.7500 Du        
  38100 ****        11.0000 -13.0000 -23.5000 Du        
  38101 ****        11.0000 -13.0000 -23.2500 Du        
  38102 ****        11.0000 -13.0000 -23.0000 Du        
  38103 ****        11.0000 -13.0000 -22.7500 Du        
  38104 ****        11.0000 -13.0000 -22.5000 Du        
  38105 ****        11.0000 -13.0000 -22.2500 Du        
  38106 ****        11.0000 -13.0000 -22.0000 Du        
  38107 ****        11.0000 -13.0000 -21.7500 Du        
  38108 ****        11.0000 -12.7500 -24.2500 Du        
  38109 ****        11.0000 -12.7500 -24.0000 Du        
  38110 ****        11.0000 -12.7500 -23.7500 Du        
  38111 ****        11.0000 -12.7500 -23.5000 Du        
  38112 ****        11.0000 -12.7500 -23.2500 Du        
  38113 ****        11.0000 -12.7500 -23.0000 Du        
  38114 ****        11.0000 -12.7500 -22.7500 Du        
  38115 ****        11.0000 -12.7500 -22.5000 Du        
  38116 ****        11.0000 -12.7500 -22.2500 Du        
  38117 ****        11.0000 -12.7500 -22.0000 Du        
  38118 ****        11.0000 -12.7500 -21.7500 Du        
  38119 ****        11.0000 -12.7500 -21.5000 Du        
  38120 ****        11.0000 -12.5000 -24.5000 Du        
  38121 ****        11.0000 -12.5000 -24.2500 Du        
  38122 ****        11.0000 -12.5000 -24.0000 Du        
  38123 ****        11.0000 -12.5000 -23.7500 Du        
  38124 ****        11.0000 -12.5000 -23.5000 Du        
  38125 ****        11.0000 -12.5000 -23.2500 Du        
  38126 ****        11.0000 -12.5000 -23.0000 Du        
  38127 ****        11.0000 -12.5000 -22.7500 Du        
  38128 ****        11.0000 -12.5000 -22.5000 Du        
  38129 ****        11.0000 -12.5000 -22.2500 Du        
  38130 ****        11.0000 -12.5000 -22.0000 Du        
  38131 ****        11.0000 -12.5000 -21.7500 Du        
  38132 ****        11.0000 -12.5000 -21.5000 Du        
  38133 ****        11.0000 -12.5000 -21.2500 Du        
  38134 ****        11.0000 -12.2500 -24.7500 Du        
  38135 ****        11.0000 -12.2500 -24.5000 Du        
  38136 ****        11.0000 -12.2500 -24.2500 Du        
  38137 ****        11.0000 -12.2500 -24.0000 Du        
  38138 ****        11.0000 -12.2500 -23.7500 Du        
  38139 ****        11.0000 -12.2500 -23.5000 Du        
  38140 ****        11.0000 -12.2500 -23.2500 Du        
  38141 ****        11.0000 -12.2500 -23.0000 Du        
  38142 ****        11.0000 -12.2500 -22.7500 Du        
  38143 ****        11.0000 -12.2500 -22.5000 Du        
  38144 ****        11.0000 -12.2500 -22.2500 Du        
  38145 ****        11.0000 -12.2500 -22.0000 Du        
  38146 ****        11.0000 -12.2500 -21.7500 Du        
  38147 ****        11.0000 -12.2500 -21.5000 Du        
  38148 ****        11.0000 -12.2500 -21.2500 Du        
  38149 ****        11.0000 -12.2500 -21.0000 Du        
  38150 ****        11.0000 -12.0000 -24.7500 Du        
  38151 ****        11.0000 -12.0000 -24.5000 Du        
  38152 ****        11.0000 -12.0000 -24.2500 Du        
  38153 ****        11.0000 -12.0000 -24.0000 Du        
  38154 ****        11.0000 -12.0000 -23.7500 Du        
  38155 ****        11.0000 -12.0000 -23.5000 Du        
  38156 ****        11.0000 -12.0000 -23.2500 Du        
  38157 ****        11.0000 -12.0000 -23.0000 Du        
  38158 ****        11.0000 -12.0000 -22.7500 Du        
  38159 ****        11.0000 -12.0000 -22.5000 Du        
  38160 ****        11.0000 -12.0000 -22.2500 Du        
  38161 ****        11.0000 -12.0000 -22.0000 Du        
  38162 ****        11.0000 -12.0000 -21.7500 Du        
  38163 ****        11.0000 -12.0000 -21.5000 Du        
  38164 ****        11.0000 -12.0000 -21.2500 Du        
  38165 ****        11.0000 -12.0000 -21.0000 Du        
  38166 ****        11.0000 -12.0000 -20.7500 Du        
  38167 ****        11.0000 -12.0000 -20.5000 Du        
  38168 ****        11.0000 -11.7500 -24.7500 Du        
  38169 ****        11.0000 -11.7500 -24.5000 Du        
  38170 ****        11.0000 -11.7500 -24.2500 Du        
  38171 ****        11.0000 -11.7500 -24.0000 Du        
  38172 ****        11.0000 -11.7500 -23.7500 Du        
  38173 ****        11.0000 -11.7500 -23.5000 Du        
  38174 ****        11.0000 -11.7500 -23.2500 Du        
  38175 ****        11.0000 -11.7500 -23.0000 Du        
  38176 ****        11.0000 -11.7500 -22.7500 Du        
  38177 ****        11.0000 -11.7500 -22.5000 Du        
  38178 ****        11.0000 -11.7500 -22.2500 Du        
  38179 ****        11.0000 -11.7500 -22.0000 Du        
  38180 ****        11.0000 -11.7500 -21.7500 Du        
  38181 ****        11.0000 -11.7500 -21.5000 Du        
  38182 ****        11.0000 -11.7500 -21.2500 Du        
  38183 ****        11.0000 -11.7500 -21.0000 Du        
  38184 ****        11.0000 -11.7500 -20.7500 Du        
  38185 ****        11.0000 -11.7500 -20.5000 Du        
  38186 ****        11.0000 -11.7500 -20.2500 Du        
  38187 ****        11.0000 -11.7500 -20.0000 Du        
  38188 ****        11.0000 -11.5000 -24.7500 Du        
  38189 ****        11.0000 -11.5000 -24.5000 Du        
  38190 ****        11.0000 -11.5000 -24.2500 Du        
  38191 ****        11.0000 -11.5000 -24.0000 Du        
  38192 ****        11.0000 -11.5000 -23.7500 Du        
  38193 ****        11.0000 -11.5000 -23.5000 Du        
  38194 ****        11.0000 -11.5000 -23.2500 Du        
  38195 ****        11.0000 -11.5000 -23.0000 Du        
  38196 ****        11.0000 -11.5000 -22.7500 Du        
  38197 ****        11.0000 -11.5000 -22.5000 Du        
  38198 ****        11.0000 -11.5000 -22.2500 Du        
  38199 ****        11.0000 -11.5000 -22.0000 Du        
  38200 ****        11.0000 -11.5000 -21.7500 Du        
  38201 ****        11.0000 -11.5000 -21.5000 Du        
  38202 ****        11.0000 -11.5000 -21.2500 Du        
  38203 ****        11.0000 -11.5000 -21.0000 Du        
  38204 ****        11.0000 -11.5000 -20.7500 Du        
  38205 ****        11.0000 -11.5000 -20.5000 Du        
  38206 ****        11.0000 -11.5000 -20.2500 Du        
  38207 ****        11.0000 -11.5000 -20.0000 Du        
  38208 ****        11.0000 -11.5000 -19.7500 Du        
  38209 ****        11.0000 -11.2500 -24.7500 Du        
  38210 ****        11.0000 -11.2500 -24.5000 Du        
  38211 ****        11.0000 -11.2500 -24.2500 Du        
  38212 ****        11.0000 -11.2500 -24.0000 Du        
  38213 ****        11.0000 -11.2500 -23.7500 Du        
  38214 ****        11.0000 -11.2500 -23.5000 Du        
  38215 ****        11.0000 -11.2500 -23.2500 Du        
  38216 ****        11.0000 -11.2500 -23.0000 Du        
  38217 ****        11.0000 -11.2500 -22.7500 Du        
  38218 ****        11.0000 -11.2500 -22.5000 Du        
  38219 ****        11.0000 -11.2500 -22.2500 Du        
  38220 ****        11.0000 -11.2500 -22.0000 Du        
  38221 ****        11.0000 -11.2500 -21.7500 Du        
  38222 ****        11.0000 -11.2500 -21.5000 Du        
  38223 ****        11.0000 -11.2500 -21.2500 Du        
  38224 ****        11.0000 -11.2500 -21.0000 Du        
  38225 ****        11.0000 -11.2500 -20.7500 Du        
  38226 ****        11.0000 -11.2500 -20.5000 Du        
  38227 ****        11.0000 -11.2500 -20.2500 Du        
  38228 ****        11.0000 -11.2500 -20.0000 Du        
  38229 ****        11.0000 -11.2500 -19.7500 Du        
  38230 ****        11.0000 -11.2500 -19.5000 Du        
  38231 ****        11.0000 -11.0000 -24.5000 Du        
  38232 ****        11.0000 -11.0000 -24.2500 Du        
  38233 ****        11.0000 -11.0000 -24.0000 Du        
  38234 ****        11.0000 -11.0000 -23.7500 Du        
  38235 ****        11.0000 -11.0000 -23.5000 Du        
  38236 ****        11.0000 -11.0000 -23.2500 Du        
  38237 ****        11.0000 -11.0000 -23.0000 Du        
  38238 ****        11.0000 -11.0000 -22.7500 Du        
  38239 ****        11.0000 -11.0000 -22.5000 Du        
  38240 ****        11.0000 -11.0000 -22.2500 Du        
  38241 ****        11.0000 -11.0000 -22.0000 Du        
  38242 ****        11.0000 -11.0000 -21.7500 Du        
  38243 ****        11.0000 -11.0000 -21.5000 Du        
  38244 ****        11.0000 -10.7500 -24.2500 Du        
  38245 ****        11.0000 -10.7500 -24.0000 Du        
  38246 ****        11.0000 -10.7500 -23.7500 Du        
  38247 ****        11.0000 -10.7500 -23.5000 Du        
  38248 ****        11.0000 -10.7500 -23.2500 Du        
  38249 ****        11.0000 -10.7500 -23.0000 Du        
  38250 ****        11.0000 -10.7500 -22.7500 Du        
  38251 ****        11.0000 -10.7500 -22.5000 Du        
  38252 ****        11.0000 -10.7500 -22.2500 Du        
  38253 ****        11.0000 -10.7500 -22.0000 Du        
  38254 ****        11.0000 -10.5000 -24.2500 Du        
  38255 ****        11.0000 -10.5000 -24.0000 Du        
  38256 ****        11.0000 -10.5000 -23.7500 Du        
  38257 ****        11.0000 -10.5000 -23.5000 Du        
  38258 ****        11.0000 -10.5000 -23.2500 Du        
  38259 ****        11.0000 -10.5000 -23.0000 Du        
  38260 ****        11.0000 -10.5000 -22.7500 Du        
  38261 ****        11.0000 -10.5000 -22.5000 Du        
  38262 ****        11.0000 -10.2500 -24.0000 Du        
  38263 ****        11.0000 -10.2500 -23.7500 Du        
  38264 ****        11.0000 -10.2500 -23.5000 Du        
  38265 ****        11.0000 -10.2500 -23.2500 Du        
  38266 ****        11.0000 -10.2500 -23.0000 Du        
  38267 ****        11.0000 -10.2500 -22.7500 Du        
  38268 ****        11.0000 -10.0000 -23.7500 Du        
  38269 ****        11.0000 -10.0000 -23.5000 Du        
  38270 ****        11.0000 -10.0000 -23.2500 Du        
  38271 ****        11.0000  -2.0000 -16.2500 Du        
  38272 ****        11.0000  -1.7500 -16.5000 Du        
  38273 ****        11.0000  -1.7500 -16.2500 Du        
  38274 ****        11.0000  -1.7500 -16.0000 Du        
  38275 ****        11.0000  -1.5000 -16.5000 Du        
  38276 ****        11.0000  -1.5000 -16.2500 Du        
  38277 ****        11.0000  -1.5000 -16.0000 Du        
  38278 ****        11.0000  -1.2500 -16.7500 Du        
  38279 ****        11.0000  -1.2500 -16.5000 Du        
  38280 ****        11.0000  -1.2500 -16.2500 Du        
  38281 ****        11.0000  -1.2500 -16.0000 Du        
  38282 ****        11.0000  -1.0000 -16.7500 Du        
  38283 ****        11.0000  -1.0000 -16.5000 Du        
  38284 ****        11.0000  -1.0000 -16.2500 Du        
  38285 ****        11.0000  -1.0000 -16.0000 Du        
  38286 ****        11.0000  -0.7500 -16.7500 Du        
  38287 ****        11.0000  -0.7500 -16.5000 Du        
  38288 ****        11.0000  -0.7500 -16.2500 Du        
  38289 ****        11.0000  -0.7500 -16.0000 Du        
  38290 ****        11.0000  -0.5000 -16.7500 Du        
  38291 ****        11.0000  -0.5000 -16.5000 Du        
  38292 ****        11.0000  -0.5000 -16.2500 Du        
  38293 ****        11.0000  -0.5000 -16.0000 Du        
  38294 ****        11.0000  -0.2500 -16.7500 Du        
  38295 ****        11.0000  -0.2500 -16.5000 Du        
  38296 ****        11.0000  -0.2500 -16.2500 Du        
  38297 ****        11.2500 -18.0000  -9.7500 Du        
  38298 ****        11.2500 -17.7500  -9.7500 Du        
  38299 ****        11.2500 -17.7500  -9.5000 Du        
  38300 ****        11.2500 -17.7500  -9.2500 Du        
  38301 ****        11.2500 -17.5000  -9.7500 Du        
  38302 ****        11.2500 -17.5000  -9.5000 Du        
  38303 ****        11.2500 -17.5000  -9.2500 Du        
  38304 ****        11.2500 -17.5000  -9.0000 Du        
  38305 ****        11.2500 -17.2500  -9.5000 Du        
  38306 ****        11.2500 -17.2500  -9.2500 Du        
  38307 ****        11.2500 -17.2500  -9.0000 Du        
  38308 ****        11.2500 -17.2500  -8.7500 Du        
  38309 ****        11.2500 -17.0000  -9.5000 Du        
  38310 ****        11.2500 -17.0000  -9.2500 Du        
  38311 ****        11.2500 -17.0000  -9.0000 Du        
  38312 ****        11.2500 -17.0000  -8.7500 Du        
  38313 ****        11.2500 -16.7500  -9.2500 Du        
  38314 ****        11.2500 -16.7500  -9.0000 Du        
  38315 ****        11.2500 -12.7500 -24.0000 Du        
  38316 ****        11.2500 -12.7500 -23.7500 Du        
  38317 ****        11.2500 -12.7500 -23.5000 Du        
  38318 ****        11.2500 -12.7500 -23.2500 Du        
  38319 ****        11.2500 -12.7500 -23.0000 Du        
  38320 ****        11.2500 -12.7500 -22.7500 Du        
  38321 ****        11.2500 -12.7500 -22.5000 Du        
  38322 ****        11.2500 -12.7500 -22.2500 Du        
  38323 ****        11.2500 -12.5000 -24.5000 Du        
  38324 ****        11.2500 -12.5000 -24.2500 Du        
  38325 ****        11.2500 -12.5000 -24.0000 Du        
  38326 ****        11.2500 -12.5000 -23.7500 Du        
  38327 ****        11.2500 -12.5000 -23.5000 Du        
  38328 ****        11.2500 -12.5000 -23.2500 Du        
  38329 ****        11.2500 -12.5000 -23.0000 Du        
  38330 ****        11.2500 -12.5000 -22.7500 Du        
  38331 ****        11.2500 -12.5000 -22.5000 Du        
  38332 ****        11.2500 -12.5000 -22.2500 Du        
  38333 ****        11.2500 -12.5000 -22.0000 Du        
  38334 ****        11.2500 -12.2500 -24.7500 Du        
  38335 ****        11.2500 -12.2500 -24.5000 Du        
  38336 ****        11.2500 -12.2500 -24.2500 Du        
  38337 ****        11.2500 -12.2500 -24.0000 Du        
  38338 ****        11.2500 -12.2500 -23.7500 Du        
  38339 ****        11.2500 -12.2500 -23.5000 Du        
  38340 ****        11.2500 -12.2500 -23.2500 Du        
  38341 ****        11.2500 -12.2500 -23.0000 Du        
  38342 ****        11.2500 -12.2500 -22.7500 Du        
  38343 ****        11.2500 -12.2500 -22.5000 Du        
  38344 ****        11.2500 -12.2500 -22.2500 Du        
  38345 ****        11.2500 -12.2500 -22.0000 Du        
  38346 ****        11.2500 -12.2500 -21.7500 Du        
  38347 ****        11.2500 -12.0000 -24.7500 Du        
  38348 ****        11.2500 -12.0000 -24.5000 Du        
  38349 ****        11.2500 -12.0000 -24.2500 Du        
  38350 ****        11.2500 -12.0000 -24.0000 Du        
  38351 ****        11.2500 -12.0000 -23.7500 Du        
  38352 ****        11.2500 -12.0000 -23.5000 Du        
  38353 ****        11.2500 -12.0000 -23.2500 Du        
  38354 ****        11.2500 -12.0000 -23.0000 Du        
  38355 ****        11.2500 -12.0000 -22.7500 Du        
  38356 ****        11.2500 -12.0000 -22.5000 Du        
  38357 ****        11.2500 -12.0000 -22.2500 Du        
  38358 ****        11.2500 -12.0000 -22.0000 Du        
  38359 ****        11.2500 -12.0000 -21.7500 Du        
  38360 ****        11.2500 -11.7500 -24.7500 Du        
  38361 ****        11.2500 -11.7500 -24.5000 Du        
  38362 ****        11.2500 -11.7500 -24.2500 Du        
  38363 ****        11.2500 -11.7500 -24.0000 Du        
  38364 ****        11.2500 -11.7500 -23.7500 Du        
  38365 ****        11.2500 -11.7500 -23.5000 Du        
  38366 ****        11.2500 -11.7500 -23.2500 Du        
  38367 ****        11.2500 -11.7500 -23.0000 Du        
  38368 ****        11.2500 -11.7500 -22.7500 Du        
  38369 ****        11.2500 -11.7500 -22.5000 Du        
  38370 ****        11.2500 -11.7500 -22.2500 Du        
  38371 ****        11.2500 -11.7500 -22.0000 Du        
  38372 ****        11.2500 -11.7500 -21.7500 Du        
  38373 ****        11.2500 -11.5000 -24.7500 Du        
  38374 ****        11.2500 -11.5000 -24.5000 Du        
  38375 ****        11.2500 -11.5000 -24.2500 Du        
  38376 ****        11.2500 -11.5000 -24.0000 Du        
  38377 ****        11.2500 -11.5000 -23.7500 Du        
  38378 ****        11.2500 -11.5000 -23.5000 Du        
  38379 ****        11.2500 -11.5000 -23.2500 Du        
  38380 ****        11.2500 -11.5000 -23.0000 Du        
  38381 ****        11.2500 -11.5000 -22.7500 Du        
  38382 ****        11.2500 -11.5000 -22.5000 Du        
  38383 ****        11.2500 -11.5000 -22.2500 Du        
  38384 ****        11.2500 -11.5000 -22.0000 Du        
  38385 ****        11.2500 -11.5000 -21.7500 Du        
  38386 ****        11.2500 -11.2500 -24.5000 Du        
  38387 ****        11.2500 -11.2500 -24.2500 Du        
  38388 ****        11.2500 -11.2500 -24.0000 Du        
  38389 ****        11.2500 -11.2500 -23.7500 Du        
  38390 ****        11.2500 -11.2500 -23.5000 Du        
  38391 ****        11.2500 -11.2500 -23.2500 Du        
  38392 ****        11.2500 -11.2500 -23.0000 Du        
  38393 ****        11.2500 -11.2500 -22.7500 Du        
  38394 ****        11.2500 -11.2500 -22.5000 Du        
  38395 ****        11.2500 -11.2500 -22.2500 Du        
  38396 ****        11.2500 -11.2500 -22.0000 Du        
  38397 ****        11.2500 -11.2500 -21.7500 Du        
  38398 ****        11.2500 -11.0000 -24.5000 Du        
  38399 ****        11.2500 -11.0000 -24.2500 Du        
  38400 ****        11.2500 -11.0000 -24.0000 Du        
  38401 ****        11.2500 -11.0000 -23.7500 Du        
  38402 ****        11.2500 -11.0000 -23.5000 Du        
  38403 ****        11.2500 -11.0000 -23.2500 Du        
  38404 ****        11.2500 -11.0000 -23.0000 Du        
  38405 ****        11.2500 -11.0000 -22.7500 Du        
  38406 ****        11.2500 -11.0000 -22.5000 Du        
  38407 ****        11.2500 -11.0000 -22.2500 Du        
  38408 ****        11.2500 -11.0000 -22.0000 Du        
  38409 ****        11.2500 -10.7500 -24.2500 Du        
  38410 ****        11.2500 -10.7500 -24.0000 Du        
  38411 ****        11.2500 -10.7500 -23.7500 Du        
  38412 ****        11.2500 -10.7500 -23.5000 Du        
  38413 ****        11.2500 -10.7500 -23.2500 Du        
  38414 ****        11.2500 -10.7500 -23.0000 Du        
  38415 ****        11.2500 -10.7500 -22.7500 Du        
  38416 ****        11.2500 -10.7500 -22.5000 Du        
  38417 ****        11.2500 -10.7500 -22.2500 Du        
  38418 ****        11.2500 -10.5000 -24.0000 Du        
  38419 ****        11.2500 -10.5000 -23.7500 Du        
  38420 ****        11.2500 -10.5000 -23.5000 Du        
  38421 ****        11.2500 -10.5000 -23.2500 Du        
  38422 ****        11.2500 -10.5000 -23.0000 Du        
  38423 ****        11.2500 -10.5000 -22.7500 Du        
  38424 ****        11.2500 -10.2500 -23.7500 Du        
  38425 ****        11.2500 -10.2500 -23.5000 Du        
  38426 ****        11.2500 -10.2500 -23.2500 Du        
  38427 ****        11.2500  -1.7500 -16.2500 Du        
  38428 ****        11.2500  -1.7500 -16.0000 Du        
  38429 ****        11.2500  -1.5000 -16.5000 Du        
  38430 ****        11.2500  -1.5000 -16.2500 Du        
  38431 ****        11.2500  -1.5000 -16.0000 Du        
  38432 ****        11.2500  -1.2500 -16.5000 Du        
  38433 ****        11.2500  -1.2500 -16.2500 Du        
  38434 ****        11.2500  -1.2500 -16.0000 Du        
  38435 ****        11.2500  -1.0000 -16.7500 Du        
  38436 ****        11.2500  -1.0000 -16.5000 Du        
  38437 ****        11.2500  -1.0000 -16.2500 Du        
  38438 ****        11.2500  -1.0000 -16.0000 Du        
  38439 ****        11.2500  -0.7500 -16.7500 Du        
  38440 ****        11.2500  -0.7500 -16.5000 Du        
  38441 ****        11.2500  -0.7500 -16.2500 Du        
  38442 ****        11.2500  -0.7500 -16.0000 Du        
  38443 ****        11.2500  -0.5000 -16.7500 Du        
  38444 ****        11.2500  -0.5000 -16.5000 Du        
  38445 ****        11.2500  -0.5000 -16.2500 Du        
  38446 ****        11.2500  -0.5000 -16.0000 Du        
  38447 ****        11.2500  -0.2500 -16.7500 Du        
  38448 ****        11.2500  -0.2500 -16.5000 Du        
  38449 ****        11.2500  -0.2500 -16.2500 Du        
  38450 ****        11.2500  -0.2500 -16.0000 Du        
  38451 ****        11.5000 -18.0000  -9.7500 Du        
  38452 ****        11.5000 -17.7500  -9.7500 Du        
  38453 ****        11.5000 -17.7500  -9.5000 Du        
  38454 ****        11.5000 -17.7500  -9.2500 Du        
  38455 ****        11.5000 -17.7500  -9.0000 Du        
  38456 ****        11.5000 -17.5000  -9.5000 Du        
  38457 ****        11.5000 -17.5000  -9.2500 Du        
  38458 ****        11.5000 -17.5000  -9.0000 Du        
  38459 ****        11.5000 -17.5000  -8.7500 Du        
  38460 ****        11.5000 -17.2500  -9.2500 Du        
  38461 ****        11.5000 -17.2500  -9.0000 Du        
  38462 ****        11.5000 -17.2500  -8.7500 Du        
  38463 ****        11.5000 -17.0000  -9.0000 Du        
  38464 ****        11.5000 -17.0000  -8.7500 Du        
  38465 ****        11.5000 -12.5000 -23.7500 Du        
  38466 ****        11.5000 -12.2500 -23.7500 Du        
  38467 ****        11.5000 -12.2500 -23.5000 Du        
  38468 ****        11.5000 -12.2500 -23.2500 Du        
  38469 ****        11.5000 -12.2500 -23.0000 Du        
  38470 ****        11.5000 -12.2500 -22.7500 Du        
  38471 ****        11.5000 -12.0000 -23.7500 Du        
  38472 ****        11.5000 -12.0000 -23.5000 Du        
  38473 ****        11.5000 -12.0000 -23.2500 Du        
  38474 ****        11.5000 -12.0000 -23.0000 Du        
  38475 ****        11.5000 -12.0000 -22.7500 Du        
  38476 ****        11.5000 -12.0000 -22.5000 Du        
  38477 ****        11.5000 -12.0000 -22.2500 Du        
  38478 ****        11.5000 -11.7500 -23.7500 Du        
  38479 ****        11.5000 -11.7500 -23.5000 Du        
  38480 ****        11.5000 -11.7500 -23.2500 Du        
  38481 ****        11.5000 -11.7500 -23.0000 Du        
  38482 ****        11.5000 -11.7500 -22.7500 Du        
  38483 ****        11.5000 -11.7500 -22.5000 Du        
  38484 ****        11.5000 -11.7500 -22.2500 Du        
  38485 ****        11.5000 -11.5000 -23.7500 Du        
  38486 ****        11.5000 -11.5000 -23.5000 Du        
  38487 ****        11.5000 -11.5000 -23.2500 Du        
  38488 ****        11.5000 -11.5000 -23.0000 Du        
  38489 ****        11.5000 -11.5000 -22.7500 Du        
  38490 ****        11.5000 -11.5000 -22.5000 Du        
  38491 ****        11.5000 -11.5000 -22.2500 Du        
  38492 ****        11.5000 -11.2500 -23.7500 Du        
  38493 ****        11.5000 -11.2500 -23.5000 Du        
  38494 ****        11.5000 -11.2500 -23.2500 Du        
  38495 ****        11.5000 -11.2500 -23.0000 Du        
  38496 ****        11.5000 -11.2500 -22.7500 Du        
  38497 ****        11.5000 -11.2500 -22.5000 Du        
  38498 ****        11.5000 -11.2500 -22.2500 Du        
  38499 ****        11.5000 -11.0000 -23.7500 Du        
  38500 ****        11.5000 -11.0000 -23.5000 Du        
  38501 ****        11.5000 -11.0000 -23.2500 Du        
  38502 ****        11.5000 -11.0000 -23.0000 Du        
  38503 ****        11.5000 -11.0000 -22.7500 Du        
  38504 ****        11.5000 -11.0000 -22.5000 Du        
  38505 ****        11.5000 -11.0000 -22.2500 Du        
  38506 ****        11.5000 -10.7500 -23.7500 Du        
  38507 ****        11.5000 -10.7500 -23.5000 Du        
  38508 ****        11.5000 -10.7500 -23.2500 Du        
  38509 ****        11.5000 -10.7500 -23.0000 Du        
  38510 ****        11.5000 -10.7500 -22.7500 Du        
  38511 ****        11.5000 -10.5000 -23.2500 Du        
  38512 ****        11.5000  -1.7500 -16.2500 Du        
  38513 ****        11.5000  -1.7500 -16.0000 Du        
  38514 ****        11.5000  -1.5000 -16.2500 Du        
  38515 ****        11.5000  -1.5000 -16.0000 Du        
  38516 ****        11.5000  -1.2500 -16.2500 Du        
  38517 ****        11.5000  -1.2500 -16.0000 Du        
  38518 ****        11.7500 -18.0000  -9.7500 Du        
  38519 ****        11.7500 -18.0000  -9.5000 Du        
  38520 ****        11.7500 -18.0000  -9.2500 Du        
  38521 ****        11.7500 -17.7500  -9.5000 Du        
  38522 ****        11.7500 -17.7500  -9.2500 Du        
  38523 ****        11.7500 -17.7500  -9.0000 Du        
  38524 ****        11.7500 -17.7500  -8.7500 Du        
  38525 ****        11.7500 -17.5000  -9.2500 Du        
  38526 ****        11.7500 -17.5000  -9.0000 Du        
  38527 ****        11.7500 -17.5000  -8.7500 Du        
  38528 ****        11.7500 -17.2500  -9.0000 Du        
  38529 ****        11.7500 -17.2500  -8.7500 Du        
  38530 ****        11.7500 -12.0000 -23.7500 Du        
  38531 ****        11.7500 -12.0000 -23.5000 Du        
  38532 ****        11.7500 -12.0000 -23.2500 Du        
  38533 ****        11.7500 -11.7500 -23.7500 Du        
  38534 ****        11.7500 -11.7500 -23.5000 Du        
  38535 ****        11.7500 -11.7500 -23.2500 Du        
  38536 ****        11.7500 -11.7500 -23.0000 Du        
  38537 ****        11.7500 -11.5000 -23.7500 Du        
  38538 ****        11.7500 -11.5000 -23.5000 Du        
  38539 ****        11.7500 -11.5000 -23.2500 Du        
  38540 ****        11.7500 -11.5000 -23.0000 Du        
  38541 ****        11.7500 -11.2500 -23.7500 Du        
  38542 ****        11.7500 -11.2500 -23.5000 Du        
  38543 ****        11.7500 -11.2500 -23.2500 Du        
  38544 ****        11.7500 -11.2500 -23.0000 Du        
  38545 ****        11.7500 -11.0000 -23.7500 Du        
  38546 ****        11.7500 -11.0000 -23.5000 Du        
  38547 ****        11.7500 -11.0000 -23.2500 Du        
  38548 ****        11.7500 -11.0000 -23.0000 Du        
  38549 ****        11.7500  -1.7500 -16.0000 Du        
  38550 ****        11.7500  -1.5000 -16.0000 Du        
  38551 ****        11.7500  -1.2500 -16.2500 Du        
  38552 ****        11.7500  -1.2500 -16.0000 Du        
  38553 ****        12.0000 -18.0000  -9.5000 Du        
  38554 ****        12.0000 -18.0000  -9.2500 Du        
  38555 ****        12.0000 -18.0000  -9.0000 Du        
  38556 ****        12.0000 -18.0000  -8.7500 Du        
  38557 ****        12.0000 -17.7500  -9.2500 Du        
  38558 ****        12.0000 -17.7500  -9.0000 Du        
  38559 ****        12.0000 -17.7500  -8.7500 Du        
  38560 ****        12.0000 -17.7500  -8.5000 Du        
  38561 ****        12.0000 -17.5000  -9.0000 Du        
  38562 ****        12.0000 -17.5000  -8.7500 Du        
  38563 ****        12.0000 -17.5000  -8.5000 Du        
  38564 ****        12.2500 -18.2500  -9.2500 Du        
  38565 ****        12.2500 -18.0000  -9.2500 Du        
  38566 ****        12.2500 -18.0000  -9.0000 Du        
  38567 ****        12.2500 -18.0000  -8.7500 Du        
  38568 ****        12.2500 -18.0000  -8.5000 Du        
  38569 ****        12.2500 -18.0000  -8.2500 Du        
  38570 ****        12.2500 -17.7500  -9.0000 Du        
  38571 ****        12.2500 -17.7500  -8.7500 Du        
  38572 ****        12.2500 -17.7500  -8.5000 Du        
  38573 ****        12.2500 -17.7500  -8.2500 Du        
