#       Name:                CT1002167954
#       Creating user name   hitesit
#       Creation time:       Sun Apr 16 02:23:25 2023


#       File generated by GOLD software.
#

@<TRIPOS>MOLECULE
CT1002167954|ligand_prepared|mol2|1|dock8
    29    30     1
SMALL
NO_CHARGES


@<TRIPOS>ATOM
      1 C1          -7.5741 -15.0726 -18.4564 C.3            1 RES1               0.0000
      2 C2          -7.9377 -16.1471 -17.4114 C.ar           1 RES1               0.0000
      3 C3          -6.7123 -15.7694 -19.5053 C.2            1 RES1               0.0000
      4 C4          -8.8961 -14.5359 -18.9941 C.2            1 RES1               0.0000
      5 C5          -6.7755 -13.8820 -17.8766 C.3            1 RES1               0.0000
      6 C6          -7.8295 -17.5000 -17.7190 C.ar           1 RES1               0.0000
      7 C7          -8.3793 -15.8014 -16.1370 C.ar           1 RES1               0.0000
      8 N8          -7.2814 -16.0343 -20.7160 N.am           1 RES1               0.0000
      9 O9          -5.5635 -16.1165 -19.2604 O.2            1 RES1               0.0000
     10 N10         -9.1963 -14.7701 -20.3104 N.am           1 RES1               0.0000
     11 O11         -9.6879 -13.9267 -18.2855 O.2            1 RES1               0.0000
     12 C12         -6.2822 -12.9032 -18.9306 C.3            1 RES1               0.0000
     13 C13         -8.1484 -18.4722 -16.7854 C.ar           1 RES1               0.0000
     14 C14         -8.6979 -16.7752 -15.2050 C.ar           1 RES1               0.0000
     15 C15         -8.4630 -15.5215 -21.1878 C.2            1 RES1               0.0000
     16 C16         -8.5824 -18.1106 -15.5279 C.ar           1 RES1               0.0000
     17 O17         -8.8259 -15.7323 -22.3415 O.2            1 RES1               0.0000
     18 H18         -7.4125 -13.3428 -17.1647 H              1 RES1               0.0000
     19 H19         -5.9112 -14.2718 -17.3248 H              1 RES1               0.0000
     20 H20         -7.4920 -17.8037 -18.7043 H              1 RES1               0.0000
     21 H21         -8.4789 -14.7570 -15.8612 H              1 RES1               0.0000
     22 H22         -6.7823 -16.6728 -21.3272 H              1 RES1               0.0000
     23 H23        -10.0452 -14.3448 -20.6695 H              1 RES1               0.0000
     24 H24         -5.7284 -12.0876 -18.4704 H              1 RES1               0.0000
     25 H25         -5.6252 -13.4004 -19.6413 H              1 RES1               0.0000
     26 H26         -7.1176 -12.4769 -19.4821 H              1 RES1               0.0000
     27 H27         -8.0570 -19.5217 -17.0449 H              1 RES1               0.0000
     28 H28         -9.0397 -16.4860 -14.2167 H              1 RES1               0.0000
     29 H29         -8.8317 -18.8723 -14.7966 H              1 RES1               0.0000
@<TRIPOS>BOND
    1    1    2 1     
    2    1    3 1     
    3    1    4 1     
    4    1    5 1     
    5    2    6 ar    
    6    2    7 ar    
    7    3    8 1     
    8    3    9 2     
    9    4   10 1     
   10    4   11 2     
   11    5   12 1     
   12    5   18 1     
   13    5   19 1     
   14    6   13 ar    
   15    6   20 1     
   16    7   14 ar    
   17    7   21 1     
   18    8   15 1     
   19    8   22 1     
   20   10   15 1     
   21   10   23 1     
   22   12   24 1     
   23   12   25 1     
   24   12   26 1     
   25   13   16 ar    
   26   13   27 1     
   27   14   16 ar    
   28   14   28 1     
   29   15   17 2     
   30   16   29 1     
@<TRIPOS>SUBSTRUCTURE
      1 RES1           1
@<TRIPOS>SET
DONOR_HYDROGENS      STATIC     ATOMS    <user>   **** ""
2 22 23
ATOM$RED        STATIC     ATOMS    COLORGROUP SYSTEM
2 22 23
@<TRIPOS>COMMENT
> <Gold.Version>
2022.3.0

> <Gold.Id.Protein>
unknown|7kl0_clean|pdb

> <Gold.Protein.RotatedTorsions>
[ 6433 6412 6411 6409 ] final   76.96 input   60.01 | X-H torsion
[ 1391 1375 1376 1377 ] final  -96.40 input  130.72 | X-H torsion
[ 1421 1411 1412 1413 ] final  -32.93 input  114.05 | X-H torsion
[ 6231 6210 6209 6207 ] final  152.17 input   60.00 | X-H torsion
[ 7222 7206 7205 7202 ] final   24.09 input   60.00 | X-H torsion
[ 1362 1344 1345 1346 ] final   74.81 input   95.07 | X-H torsion
[ 5430 5408 5407 5405 ] final -165.64 input   60.00 | X-H torsion
[  580  562  563  564 ] final  -69.01 input   55.02 | X-H torsion
[ 1326 1306 1307 1308 ] final  -44.16 input  117.83 | X-H torsion
[  608  597  598  599 ] final  -42.90 input   37.41 | X-H torsion
[  546  536  537  538 ] final  143.33 input  119.99 | X-H torsion
[ 4227 4194 4193 4192 ] final  -53.85 input   60.00 | X-H torsion
[ 1262 1249 1250 1251 ] final  115.97 input  103.51 | X-H torsion
[ 1425 1416 1415 1412 ] final  106.52 input   60.01 | X-H torsion
[ 1504 1492 1493 1494 ] final  159.37 input  118.60 | X-H torsion
[ 1535 1518 1519 1520 ] final   57.59 input  116.53 | X-H torsion
[  528  521  522  523 ] final  -31.52 input   38.54 | X-H torsion
[ 5354 5333 5331 5328 ] final  -80.77 input   59.99 | X-H torsion
[  504  482  483  484 ] final  171.37 input   40.33 | X-H torsion
[  612  602  601  598 ] final  -60.94 input   59.99 | X-H torsion
[  636  620  621  622 ] final   65.62 input   33.60 | X-H torsion
[  668  652  653  654 ] final   90.84 input   67.24 | X-H torsion
[ 6843 6822 6821 6819 ] final -124.52 input   59.97 | X-H torsion
[ 1596 1580 1579 1578 ] final  -68.21 input   59.99 | X-H torsion
[ 5797 5776 5775 5773 ] final  -68.31 input   60.02 | X-H torsion
[ 6661 6649 6650 6651 ] final   89.99 input   84.69 | X-H torsion
[ 6691 6674 6675 6676 ] final   84.39 input  117.08 | X-H torsion
[ 6727 6709 6710 6711 ] final -167.01 input  123.04 | X-H torsion
[ 6635 6620 6621 6622 ] final  129.32 input  122.94 | X-H torsion
[ 1613 1589 1588 1587 ] final -126.02 input   59.99 | X-H torsion
[ 4214 4203 4202 4201 ] final -124.66 input   60.00 | X-H torsion
[ 8535 1347 1346 1345 ] final   60.05 input   -0.00 | X-H torsion
[ 8582  539  538  537 ] final   49.56 input    0.00 | X-H torsion
[ 8586 1252 1251 1250 ] final  175.28 input    0.00 | X-H torsion
[ 8588 1378 1377 1376 ] final  144.40 input   -0.00 | X-H torsion
[ 8593 1279 1278 1277 ] final -161.39 input    0.00 | X-H torsion
[ 8596 1309 1308 1307 ] final  -61.97 input    0.00 | X-H torsion
[ 8602  565  564  563 ] final  131.61 input    0.00 | X-H torsion
[ 8625  524  523  522 ] final -125.62 input    0.00 | X-H torsion
[ 8635 1414 1413 1412 ] final  152.70 input    0.00 | X-H torsion
[ 8638 1495 1494 1493 ] final  -21.67 input    0.00 | X-H torsion
[ 8642  600  599  598 ] final   -4.75 input    0.00 | X-H torsion
[ 8650  485  484  483 ] final   92.29 input    0.00 | X-H torsion
[ 8661  466  465  464 ] final  -97.53 input   -0.00 | X-H torsion
[ 8712 6623 6622 6621 ] final  100.76 input    0.00 | X-H torsion
[ 8729 6598 6597 6596 ] final  -51.00 input   -0.00 | X-H torsion
[ 8732 6652 6651 6650 ] final -138.19 input   -0.00 | X-H torsion

> <Gold.Protein.ActiveResidues>
 GLU18   GLY20   LYS21   GLY22   ALA23   PHE24   SER25   VAL26   VAL27   ARG28  
 ILE44   ASN45   THR46   LYS47   LYS48   LEU49   SER50   ARG52   ASP53   HIS54  
 LYS56   ARG59   GLY95   GLU96   LEU97   PHE98   GLU99   ASP100  ILE101  VAL102 
 ALA103  GLU105  TYR106  HIS133  ARG134  ASN135  LEU136  LYS137  PRO138  GLU139 
 ASN140  LEU142  ASP156  GLY158  LEU159  ILE161  TRP170  PHE171  GLY172  PHE173 
 ALA174  GLY175  THR176  PRO177  GLY178  TYR179  LEU180  VAL184  LEU185  LYS187 
 TYR190  VAL201  ILE202  TYR204  ILE205  LEU206  VAL208  GLY209  TYR210  PRO211 
 PRO212  PHE213  TRP214  ASP215  GLU216  ASP217  GLN218  HIS219  LEU221  TYR222 
 GLN224  ILE225  ALA229  TYR230  ASP231  PHE232  PRO233  SER234  PRO235  GLU236 
 TRP237 

> <Gold.Protein.RotatedAtoms>
   -6.4934  -22.5731  -21.7754 H   0  0  0  0  0  0  0  0  0  0  0  0  # atno 504  bound_to 482 
   -9.1278  -19.5352  -20.0494 H   0  0  0  0  0  0  0  0  0  0  0  0  # atno 528  bound_to 521 
  -11.7807  -16.2081  -20.8416 H   0  0  0  0  0  0  0  0  0  0  0  0  # atno 546  bound_to 536 
  -12.9077  -17.4745  -18.1325 H   0  0  0  0  0  0  0  0  0  0  0  0  # atno 580  bound_to 562 
  -13.2405  -19.8781  -17.6722 H   0  0  0  0  0  0  0  0  0  0  0  0  # atno 608  bound_to 597 
  -13.3279  -19.5044  -21.0930 H   0  0  0  0  0  0  0  0  0  0  0  0  # atno 612  bound_to 602 
  -13.1149  -23.6476  -19.3087 H   0  0  0  0  0  0  0  0  0  0  0  0  # atno 636  bound_to 620 
   -9.5456  -24.6144  -21.7510 H   0  0  0  0  0  0  0  0  0  0  0  0  # atno 668  bound_to 652 
  -16.9019  -21.8852  -16.9034 H   0  0  0  0  0  0  0  0  0  0  0  0  # atno 1262 bound_to 1249
  -22.5010  -20.2264  -13.9340 H   0  0  0  0  0  0  0  0  0  0  0  0  # atno 1326 bound_to 1306
  -21.3961  -18.1681  -12.6930 H   0  0  0  0  0  0  0  0  0  0  0  0  # atno 1362 bound_to 1344
  -22.6062  -16.1989  -13.4344 H   0  0  0  0  0  0  0  0  0  0  0  0  # atno 1391 bound_to 1375
  -24.4361  -14.8131  -16.2228 H   0  0  0  0  0  0  0  0  0  0  0  0  # atno 1421 bound_to 1411
  -24.4960  -11.2393  -19.1034 H   0  0  0  0  0  0  0  0  0  0  0  0  # atno 1425 bound_to 1416
  -24.1800  -12.3216  -20.5383 H   0  0  0  0  0  0  0  0  0  0  0  0  # atno 1504 bound_to 1492
  -25.6131  -14.9008  -21.1866 H   0  0  0  0  0  0  0  0  0  0  0  0  # atno 1535 bound_to 1518
    8.4625   -4.7855  -21.7656 H   0  0  0  0  0  0  0  0  0  0  0  0  # atno 1596 bound_to 1580
    8.6881   -5.6270  -23.1757 H   0  0  0  0  0  0  0  0  0  0  0  0  # atno 1597 bound_to 1580
    7.5892   -6.1637  -22.0566 H   0  0  0  0  0  0  0  0  0  0  0  0  # atno 1598 bound_to 1580
  -18.4689  -11.1710  -26.0373 H   0  0  0  0  0  0  0  0  0  0  0  0  # atno 1613 bound_to 1589
  -19.2186  -11.2100  -24.5591 H   0  0  0  0  0  0  0  0  0  0  0  0  # atno 1614 bound_to 1589
  -18.1873  -12.4314  -24.9985 H   0  0  0  0  0  0  0  0  0  0  0  0  # atno 1615 bound_to 1589
   -5.8634  -14.1933  -29.5841 H   0  0  0  0  0  0  0  0  0  0  0  0  # atno 4214 bound_to 4203
   -5.6451  -12.8550  -30.5378 H   0  0  0  0  0  0  0  0  0  0  0  0  # atno 4215 bound_to 4203
   -7.1661  -13.2679  -30.0231 H   0  0  0  0  0  0  0  0  0  0  0  0  # atno 4216 bound_to 4203
   -4.1873  -12.2918  -15.3575 H   0  0  0  0  0  0  0  0  0  0  0  0  # atno 4227 bound_to 4194
   -3.0644  -11.0733  -15.3112 H   0  0  0  0  0  0  0  0  0  0  0  0  # atno 4228 bound_to 4194
   -2.6980  -12.5107  -16.0508 H   0  0  0  0  0  0  0  0  0  0  0  0  # atno 4229 bound_to 4194
   -3.0382   -9.4132  -15.7975 H   0  0  0  0  0  0  0  0  0  0  0  0  # atno 5354 bound_to 5333
   -8.2184  -12.1553  -10.7405 H   0  0  0  0  0  0  0  0  0  0  0  0  # atno 5430 bound_to 5408
    6.3667   -0.1028  -13.0669 H   0  0  0  0  0  0  0  0  0  0  0  0  # atno 5797 bound_to 5776
  -16.8979   -6.6137   -1.0433 H   0  0  0  0  0  0  0  0  0  0  0  0  # atno 6231 bound_to 6210
  -20.2049   -8.8997   -2.5010 H   0  0  0  0  0  0  0  0  0  0  0  0  # atno 6433 bound_to 6412
    5.1037   -0.3462  -30.7748 H   0  0  0  0  0  0  0  0  0  0  0  0  # atno 6635 bound_to 6620
    3.2559    1.3453  -29.7022 H   0  0  0  0  0  0  0  0  0  0  0  0  # atno 6661 bound_to 6649
   -0.7361    1.5267  -27.6444 H   0  0  0  0  0  0  0  0  0  0  0  0  # atno 6691 bound_to 6674
   -3.1730    2.4692  -28.5493 H   0  0  0  0  0  0  0  0  0  0  0  0  # atno 6727 bound_to 6709
   -5.8270   -1.1547  -17.5388 H   0  0  0  0  0  0  0  0  0  0  0  0  # atno 6843 bound_to 6822
  -24.7055   -7.2526    3.8218 H   0  0  0  0  0  0  0  0  0  0  0  0  # atno 7222 bound_to 7206
  -23.5414  -14.0789  -12.4063 LP  0  0  0  0  0  0  0  0  0  0  0  0  # atno 8535 bound_to 1347
  -24.9633  -14.9855  -12.8015 LP  0  0  0  0  0  0  0  0  0  0  0  0  # atno 8536 bound_to 1347
  -18.7422   -8.7768   -1.7979 LP  0  0  0  0  0  0  0  0  0  0  0  0  # atno 8539 bound_to 6412
  -19.7150  -10.0412   -1.4494 LP  0  0  0  0  0  0  0  0  0  0  0  0  # atno 8540 bound_to 6412
  -23.8468  -17.3757  -13.8386 LP  0  0  0  0  0  0  0  0  0  0  0  0  # atno 8545 bound_to 1375
  -23.2546  -13.5472  -15.9456 LP  0  0  0  0  0  0  0  0  0  0  0  0  # atno 8546 bound_to 1411
  -17.2167   -7.8622   -2.0373 LP  0  0  0  0  0  0  0  0  0  0  0  0  # atno 8553 bound_to 6210
  -16.6967   -6.4402   -2.6489 LP  0  0  0  0  0  0  0  0  0  0  0  0  # atno 8554 bound_to 6210
  -25.4752   -8.2018    4.8962 LP  0  0  0  0  0  0  0  0  0  0  0  0  # atno 8565 bound_to 7206
  -26.2688   -6.9706    4.1744 LP  0  0  0  0  0  0  0  0  0  0  0  0  # atno 8566 bound_to 7206
  -22.5548  -18.6317  -11.4657 LP  0  0  0  0  0  0  0  0  0  0  0  0  # atno 8581 bound_to 1344
  -12.2400  -15.6534  -16.0759 LP  0  0  0  0  0  0  0  0  0  0  0  0  # atno 8582 bound_to 539 
  -12.2576  -17.3841  -16.0097 LP  0  0  0  0  0  0  0  0  0  0  0  0  # atno 8583 bound_to 539 
   -9.0324  -11.5627   -9.4614 LP  0  0  0  0  0  0  0  0  0  0  0  0  # atno 8584 bound_to 5408
   -7.7756  -12.5799   -9.2327 LP  0  0  0  0  0  0  0  0  0  0  0  0  # atno 8585 bound_to 5408
  -20.2390  -19.4190  -16.0898 LP  0  0  0  0  0  0  0  0  0  0  0  0  # atno 8586 bound_to 1252
  -18.5307  -19.6993  -16.0332 LP  0  0  0  0  0  0  0  0  0  0  0  0  # atno 8587 bound_to 1252
  -26.1475  -14.5292  -14.7171 LP  0  0  0  0  0  0  0  0  0  0  0  0  # atno 8588 bound_to 1378
  -25.9240  -16.1792  -15.1939 LP  0  0  0  0  0  0  0  0  0  0  0  0  # atno 8589 bound_to 1378
  -14.3268  -16.5619  -18.6195 LP  0  0  0  0  0  0  0  0  0  0  0  0  # atno 8592 bound_to 562 
  -24.1320  -19.3405  -13.5291 LP  0  0  0  0  0  0  0  0  0  0  0  0  # atno 8593 bound_to 1279
  -24.4482  -20.0585  -15.0733 LP  0  0  0  0  0  0  0  0  0  0  0  0  # atno 8594 bound_to 1279
  -21.1345  -21.1350  -13.3162 LP  0  0  0  0  0  0  0  0  0  0  0  0  # atno 8595 bound_to 1306
  -24.8512  -19.0006  -11.7450 LP  0  0  0  0  0  0  0  0  0  0  0  0  # atno 8596 bound_to 1309
  -24.1991  -18.1853  -10.3630 LP  0  0  0  0  0  0  0  0  0  0  0  0  # atno 8597 bound_to 1309
  -16.2029  -20.8036  -18.2404 LP  0  0  0  0  0  0  0  0  0  0  0  0  # atno 8602 bound_to 565 
  -16.0126  -20.4195  -16.5622 LP  0  0  0  0  0  0  0  0  0  0  0  0  # atno 8603 bound_to 565 
  -14.2595  -19.2178  -18.9344 LP  0  0  0  0  0  0  0  0  0  0  0  0  # atno 8604 bound_to 597 
  -11.0884  -18.3600  -18.0121 LP  0  0  0  0  0  0  0  0  0  0  0  0  # atno 8625 bound_to 524 
   -9.4807  -18.2402  -18.6453 LP  0  0  0  0  0  0  0  0  0  0  0  0  # atno 8626 bound_to 524 
  -11.4248  -17.5525  -19.7686 LP  0  0  0  0  0  0  0  0  0  0  0  0  # atno 8627 bound_to 536 
  -18.3430  -22.6652  -17.5209 LP  0  0  0  0  0  0  0  0  0  0  0  0  # atno 8630 bound_to 1249
  -23.8947  -12.6850  -18.6605 LP  0  0  0  0  0  0  0  0  0  0  0  0  # atno 8631 bound_to 1416
  -23.0186  -11.3268  -18.4271 LP  0  0  0  0  0  0  0  0  0  0  0  0  # atno 8632 bound_to 1416
  -26.1955  -15.1086  -18.8047 LP  0  0  0  0  0  0  0  0  0  0  0  0  # atno 8635 bound_to 1414
  -24.6036  -14.4709  -18.5613 LP  0  0  0  0  0  0  0  0  0  0  0  0  # atno 8636 bound_to 1414
  -25.3110  -13.2787  -21.4804 LP  0  0  0  0  0  0  0  0  0  0  0  0  # atno 8637 bound_to 1492
  -22.6884  -15.9403  -22.9068 LP  0  0  0  0  0  0  0  0  0  0  0  0  # atno 8638 bound_to 1495
  -23.6030  -17.2791  -22.2977 LP  0  0  0  0  0  0  0  0  0  0  0  0  # atno 8639 bound_to 1495
  -24.2977  -15.9305  -20.6555 LP  0  0  0  0  0  0  0  0  0  0  0  0  # atno 8640 bound_to 1518
   -9.7709  -20.3666  -21.4588 LP  0  0  0  0  0  0  0  0  0  0  0  0  # atno 8641 bound_to 521 
  -11.4540  -20.2330  -18.8162 LP  0  0  0  0  0  0  0  0  0  0  0  0  # atno 8642 bound_to 600 
  -10.4424  -21.6372  -18.8876 LP  0  0  0  0  0  0  0  0  0  0  0  0  # atno 8643 bound_to 600 
   -2.6248  -10.0543  -14.3596 LP  0  0  0  0  0  0  0  0  0  0  0  0  # atno 8648 bound_to 5333
   -1.9793   -8.6329  -14.8389 LP  0  0  0  0  0  0  0  0  0  0  0  0  # atno 8649 bound_to 5333
   -8.6655  -19.8505  -23.5248 LP  0  0  0  0  0  0  0  0  0  0  0  0  # atno 8650 bound_to 485 
   -7.6716  -18.7250  -22.6614 LP  0  0  0  0  0  0  0  0  0  0  0  0  # atno 8651 bound_to 485 
   -7.4055  -21.7263  -23.0136 LP  0  0  0  0  0  0  0  0  0  0  0  0  # atno 8652 bound_to 482 
   -8.4974  -24.2649  -21.3031 LP  0  0  0  0  0  0  0  0  0  0  0  0  # atno 8661 bound_to 466 
   -6.9860  -24.3039  -20.4581 LP  0  0  0  0  0  0  0  0  0  0  0  0  # atno 8662 bound_to 466 
  -13.7450  -20.3936  -22.3906 LP  0  0  0  0  0  0  0  0  0  0  0  0  # atno 8663 bound_to 602 
  -12.4707  -20.8354  -21.4700 LP  0  0  0  0  0  0  0  0  0  0  0  0  # atno 8664 bound_to 602 
  -12.2602  -22.1831  -19.7698 LP  0  0  0  0  0  0  0  0  0  0  0  0  # atno 8665 bound_to 620 
  -10.8922  -25.2828  -20.8534 LP  0  0  0  0  0  0  0  0  0  0  0  0  # atno 8672 bound_to 652 
   -7.2453   -1.6724  -18.1458 LP  0  0  0  0  0  0  0  0  0  0  0  0  # atno 8689 bound_to 6822
   -6.6687   -2.3065  -16.7559 LP  0  0  0  0  0  0  0  0  0  0  0  0  # atno 8690 bound_to 6822
    2.7881   -0.0068  -26.3258 LP  0  0  0  0  0  0  0  0  0  0  0  0  # atno 8712 bound_to 6623
    1.9250   -1.2120  -27.2216 LP  0  0  0  0  0  0  0  0  0  0  0  0  # atno 8713 bound_to 6623
    5.0629    0.5894  -13.7508 LP  0  0  0  0  0  0  0  0  0  0  0  0  # atno 8722 bound_to 5776
    4.9245   -0.8526  -12.9971 LP  0  0  0  0  0  0  0  0  0  0  0  0  # atno 8723 bound_to 5776
    2.8863    0.2128  -28.4114 LP  0  0  0  0  0  0  0  0  0  0  0  0  # atno 8724 bound_to 6649
    0.1953    0.9435  -29.0098 LP  0  0  0  0  0  0  0  0  0  0  0  0  # atno 8725 bound_to 6674
   -1.8518    2.4878  -29.6980 LP  0  0  0  0  0  0  0  0  0  0  0  0  # atno 8728 bound_to 6709
    1.2750   -1.1256  -30.9654 LP  0  0  0  0  0  0  0  0  0  0  0  0  # atno 8729 bound_to 6598
    2.2030   -2.3640  -30.1875 LP  0  0  0  0  0  0  0  0  0  0  0  0  # atno 8730 bound_to 6598
    3.4145   -0.8207  -30.8500 LP  0  0  0  0  0  0  0  0  0  0  0  0  # atno 8731 bound_to 6620
   -0.4492    1.9234  -30.9973 LP  0  0  0  0  0  0  0  0  0  0  0  0  # atno 8732 bound_to 6652
    1.1705    1.3099  -31.0131 LP  0  0  0  0  0  0  0  0  0  0  0  0  # atno 8733 bound_to 6652

> <Gold.Score>
     Fitness  S(hb_ext) S(vdw_ext)  S(hb_int)    S(int)      intcor
     25.55       0.00      19.54       0.00      -1.31      -0.76

> <Gold.Goldscore.Fitness>
25.5525

> <Gold.Goldscore.Internal.Vdw>
-1.6309

> <Gold.Goldscore.Internal.Torsion>
-0.4376

> <Gold.Goldscore.External.Vdw>
19.5363

> <Gold.Goldscore.Internal.HBond>
0.0000

> <Gold.Goldscore.External.HBond>
0.0000

> <Gold.Goldscore.Internal.Correction>
-0.7585

> <Gold.Goldscore.Internal.Vdw.Weighted>
-1.6309

> <Gold.Goldscore.Internal.Torsion.Weighted>
-0.4376

> <Gold.Goldscore.External.Vdw.Weighted>
26.8625

> <Gold.Goldscore.Internal.HBond.Weighted>
0.0000

> <Gold.Goldscore.External.HBond.Weighted>
0.0000

> <Gold.Goldscore.Internal.Correction.Weighted>
-0.7585

> <Gold.Rescore>
     Score     S(PLP)   S(hbond)     S(cho)   S(metal)  DE(clash)   DE(tors)     intcor
     22.67     -24.98       0.00       0.00       0.00       1.66       0.33       ----

> <Gold.PLP.Fitness>
22.6743

> <Gold.PLP.PLP>
-24.9845

> <Gold.PLP.part.hbond>
-0.2252

> <Gold.PLP.part.metal>
0.0000

> <Gold.PLP.part.buried>
-2.3427

> <Gold.PLP.part.nonpolar>
-23.7731

> <Gold.PLP.part.repulsive>
0.1118

> <Gold.PLP.ligand.clash>
1.6584

> <Gold.PLP.ligand.torsion>
0.3259

> <Gold.PLP.Chemscore.Hbond>
0.0000

> <Gold.PLP.Chemscore.CHOScore>
0.0000

> <Gold.PLP.Chemscore.Metal>
0.0000

> <Gold.PLP.Chemscore.Internal.Correction>
   9.000000E+99

