#       Name:                CT1002167954
#       Creating user name   hitesit
#       Creation time:       Sun Apr 16 02:23:13 2023


#       File generated by GOLD software.
#

@<TRIPOS>MOLECULE
CT1002167954|ligand_prepared|mol2|1|dock3
    29    30     1
SMALL
NO_CHARGES


@<TRIPOS>ATOM
      1 C1         -15.0251 -16.5040 -23.2362 C.3            1 RES1               0.0000
      2 C2         -16.5473 -16.7438 -23.3013 C.ar           1 RES1               0.0000
      3 C3         -14.4735 -17.5200 -22.2404 C.2            1 RES1               0.0000
      4 C4         -14.5042 -16.6807 -24.6582 C.2            1 RES1               0.0000
      5 C5         -14.6359 -15.0859 -22.7577 C.3            1 RES1               0.0000
      6 C6         -17.3733 -15.8686 -24.0003 C.ar           1 RES1               0.0000
      7 C7         -17.1387 -17.8353 -22.6708 C.ar           1 RES1               0.0000
      8 N8         -13.7767 -18.5805 -22.7401 N.am           1 RES1               0.0000
      9 O9         -14.6806 -17.4134 -21.0379 O.2            1 RES1               0.0000
     10 N10        -13.6613 -17.7320 -24.9073 N.am           1 RES1               0.0000
     11 O11        -14.8293 -15.9288 -25.5689 O.2            1 RES1               0.0000
     12 C12        -13.1354 -14.8434 -22.7153 C.3            1 RES1               0.0000
     13 C13        -18.7406 -16.0785 -24.0690 C.ar           1 RES1               0.0000
     14 C14        -18.5063 -18.0432 -22.7406 C.ar           1 RES1               0.0000
     15 C15        -13.2983 -18.7078 -24.0194 C.2            1 RES1               0.0000
     16 C16        -19.3079 -17.1660 -23.4397 C.ar           1 RES1               0.0000
     17 O17        -12.5795 -19.6524 -24.3328 O.2            1 RES1               0.0000
     18 H18        -15.0939 -14.3487 -23.4286 H              1 RES1               0.0000
     19 H19        -15.0477 -14.9267 -21.7534 H              1 RES1               0.0000
     20 H20        -16.9451 -15.0059 -24.4998 H              1 RES1               0.0000
     21 H21        -16.5278 -18.5378 -22.1143 H              1 RES1               0.0000
     22 H22        -13.5946 -19.3501 -22.1039 H              1 RES1               0.0000
     23 H23        -13.2677 -17.7926 -25.8410 H              1 RES1               0.0000
     24 H24        -12.9173 -13.8339 -22.3729 H              1 RES1               0.0000
     25 H25        -12.6505 -15.5431 -22.0377 H              1 RES1               0.0000
     26 H26        -12.6964 -14.9685 -23.7029 H              1 RES1               0.0000
     27 H27        -19.3672 -15.3845 -24.6193 H              1 RES1               0.0000
     28 H28        -18.9486 -18.9001 -22.2433 H              1 RES1               0.0000
     29 H29        -20.3790 -17.3304 -23.4940 H              1 RES1               0.0000
@<TRIPOS>BOND
    1    1    2 1     
    2    1    3 1     
    3    1    4 1     
    4    1    5 1     
    5    2    6 ar    
    6    2    7 ar    
    7    3    8 1     
    8    3    9 2     
    9    4   10 1     
   10    4   11 2     
   11    5   12 1     
   12    5   18 1     
   13    5   19 1     
   14    6   13 ar    
   15    6   20 1     
   16    7   14 ar    
   17    7   21 1     
   18    8   15 1     
   19    8   22 1     
   20   10   15 1     
   21   10   23 1     
   22   12   24 1     
   23   12   25 1     
   24   12   26 1     
   25   13   16 ar    
   26   13   27 1     
   27   14   16 ar    
   28   14   28 1     
   29   15   17 2     
   30   16   29 1     
@<TRIPOS>SUBSTRUCTURE
      1 RES1           1
@<TRIPOS>SET
DONOR_HYDROGENS      STATIC     ATOMS    <user>   **** ""
2 22 23
ATOM$RED        STATIC     ATOMS    COLORGROUP SYSTEM
2 22 23
@<TRIPOS>COMMENT
> <Gold.Version>
2022.3.0

> <Gold.Id.Protein>
unknown|7kl0_clean|pdb

> <Gold.Protein.RotatedTorsions>
[ 6433 6412 6411 6409 ] final   85.87 input   60.01 | X-H torsion
[ 1391 1375 1376 1377 ] final -130.77 input  130.72 | X-H torsion
[ 1421 1411 1412 1413 ] final  -19.17 input  114.05 | X-H torsion
[ 6231 6210 6209 6207 ] final   19.40 input   60.00 | X-H torsion
[ 7222 7206 7205 7202 ] final -106.25 input   60.00 | X-H torsion
[ 1362 1344 1345 1346 ] final  -29.04 input   95.07 | X-H torsion
[ 5430 5408 5407 5405 ] final -162.11 input   60.00 | X-H torsion
[  580  562  563  564 ] final   39.79 input   55.02 | X-H torsion
[ 1326 1306 1307 1308 ] final   32.56 input  117.83 | X-H torsion
[  608  597  598  599 ] final -175.62 input   37.41 | X-H torsion
[  546  536  537  538 ] final   12.53 input  119.99 | X-H torsion
[ 4227 4194 4193 4192 ] final  118.33 input   60.00 | X-H torsion
[ 1262 1249 1250 1251 ] final -114.11 input  103.51 | X-H torsion
[ 1425 1416 1415 1412 ] final   57.62 input   60.01 | X-H torsion
[ 1504 1492 1493 1494 ] final  -79.77 input  118.60 | X-H torsion
[ 1535 1518 1519 1520 ] final -153.99 input  116.53 | X-H torsion
[  528  521  522  523 ] final   99.10 input   38.54 | X-H torsion
[ 5354 5333 5331 5328 ] final  -91.68 input   59.99 | X-H torsion
[  504  482  483  484 ] final -157.97 input   40.33 | X-H torsion
[  612  602  601  598 ] final   35.08 input   59.99 | X-H torsion
[  636  620  621  622 ] final  -28.27 input   33.60 | X-H torsion
[  668  652  653  654 ] final  -58.26 input   67.24 | X-H torsion
[ 6843 6822 6821 6819 ] final  162.65 input   59.97 | X-H torsion
[ 1596 1580 1579 1578 ] final  -63.58 input   59.99 | X-H torsion
[ 5797 5776 5775 5773 ] final  174.76 input   60.02 | X-H torsion
[ 6661 6649 6650 6651 ] final   71.83 input   84.69 | X-H torsion
[ 6691 6674 6675 6676 ] final  163.44 input  117.08 | X-H torsion
[ 6727 6709 6710 6711 ] final  -51.49 input  123.04 | X-H torsion
[ 6635 6620 6621 6622 ] final   29.34 input  122.94 | X-H torsion
[ 1613 1589 1588 1587 ] final   99.43 input   59.99 | X-H torsion
[ 4214 4203 4202 4201 ] final  156.16 input   60.00 | X-H torsion
[ 8535 1347 1346 1345 ] final  125.09 input   -0.00 | X-H torsion
[ 8582  539  538  537 ] final   46.31 input    0.00 | X-H torsion
[ 8586 1252 1251 1250 ] final   89.17 input    0.00 | X-H torsion
[ 8588 1378 1377 1376 ] final  -98.17 input   -0.00 | X-H torsion
[ 8593 1279 1278 1277 ] final -106.21 input    0.00 | X-H torsion
[ 8596 1309 1308 1307 ] final  164.94 input    0.00 | X-H torsion
[ 8602  565  564  563 ] final -133.21 input    0.00 | X-H torsion
[ 8625  524  523  522 ] final   59.05 input    0.00 | X-H torsion
[ 8635 1414 1413 1412 ] final   43.17 input    0.00 | X-H torsion
[ 8638 1495 1494 1493 ] final -134.77 input    0.00 | X-H torsion
[ 8642  600  599  598 ] final   82.66 input    0.00 | X-H torsion
[ 8650  485  484  483 ] final  -32.41 input    0.00 | X-H torsion
[ 8661  466  465  464 ] final  -11.69 input   -0.00 | X-H torsion
[ 8712 6623 6622 6621 ] final   62.52 input    0.00 | X-H torsion
[ 8729 6598 6597 6596 ] final   16.72 input   -0.00 | X-H torsion
[ 8732 6652 6651 6650 ] final   75.04 input   -0.00 | X-H torsion

> <Gold.Protein.ActiveResidues>
 GLU18   GLY20   LYS21   GLY22   ALA23   PHE24   SER25   VAL26   VAL27   ARG28  
 ILE44   ASN45   THR46   LYS47   LYS48   LEU49   SER50   ARG52   ASP53   HIS54  
 LYS56   ARG59   GLY95   GLU96   LEU97   PHE98   GLU99   ASP100  ILE101  VAL102 
 ALA103  GLU105  TYR106  HIS133  ARG134  ASN135  LEU136  LYS137  PRO138  GLU139 
 ASN140  LEU142  ASP156  GLY158  LEU159  ILE161  TRP170  PHE171  GLY172  PHE173 
 ALA174  GLY175  THR176  PRO177  GLY178  TYR179  LEU180  VAL184  LEU185  LYS187 
 TYR190  VAL201  ILE202  TYR204  ILE205  LEU206  VAL208  GLY209  TYR210  PRO211 
 PRO212  PHE213  TRP214  ASP215  GLU216  ASP217  GLN218  HIS219  LEU221  TYR222 
 GLN224  ILE225  ALA229  TYR230  ASP231  PHE232  PRO233  SER234  PRO235  GLU236 
 TRP237 

> <Gold.Protein.RotatedAtoms>
   -6.8891  -22.8296  -21.8376 H   0  0  0  0  0  0  0  0  0  0  0  0  # atno 504  bound_to 482 
  -10.2114  -20.4568  -20.8733 H   0  0  0  0  0  0  0  0  0  0  0  0  # atno 528  bound_to 521 
  -12.1354  -17.5384  -19.9519 H   0  0  0  0  0  0  0  0  0  0  0  0  # atno 546  bound_to 536 
  -14.0144  -17.4157  -19.0901 H   0  0  0  0  0  0  0  0  0  0  0  0  # atno 580  bound_to 562 
  -14.6437  -19.5193  -18.4282 H   0  0  0  0  0  0  0  0  0  0  0  0  # atno 608  bound_to 597 
  -12.4406  -20.5732  -21.1823 H   0  0  0  0  0  0  0  0  0  0  0  0  # atno 612  bound_to 602 
  -12.8102  -23.0221  -20.4301 H   0  0  0  0  0  0  0  0  0  0  0  0  # atno 636  bound_to 620 
  -10.5299  -25.5171  -20.6726 H   0  0  0  0  0  0  0  0  0  0  0  0  # atno 668  bound_to 652 
  -17.8609  -23.1448  -17.2237 H   0  0  0  0  0  0  0  0  0  0  0  0  # atno 1262 bound_to 1249
  -21.5009  -19.8476  -13.6318 H   0  0  0  0  0  0  0  0  0  0  0  0  # atno 1326 bound_to 1306
  -22.7484  -18.4912  -12.5187 H   0  0  0  0  0  0  0  0  0  0  0  0  # atno 1362 bound_to 1344
  -22.3587  -16.6246  -13.6395 H   0  0  0  0  0  0  0  0  0  0  0  0  # atno 1391 bound_to 1375
  -24.3510  -14.8137  -16.4200 H   0  0  0  0  0  0  0  0  0  0  0  0  # atno 1421 bound_to 1411
  -24.6378  -12.0005  -19.0763 H   0  0  0  0  0  0  0  0  0  0  0  0  # atno 1425 bound_to 1416
  -24.7788  -12.7514  -21.9194 H   0  0  0  0  0  0  0  0  0  0  0  0  # atno 1504 bound_to 1492
  -24.5743  -15.9183  -20.2639 H   0  0  0  0  0  0  0  0  0  0  0  0  # atno 1535 bound_to 1518
    8.5131   -4.7629  -21.8196 H   0  0  0  0  0  0  0  0  0  0  0  0  # atno 1596 bound_to 1580
    8.6460   -5.6909  -23.1865 H   0  0  0  0  0  0  0  0  0  0  0  0  # atno 1597 bound_to 1580
    7.5809   -6.1224  -21.9918 H   0  0  0  0  0  0  0  0  0  0  0  0  # atno 1598 bound_to 1580
  -18.3095  -12.4099  -24.7898 H   0  0  0  0  0  0  0  0  0  0  0  0  # atno 1613 bound_to 1589
  -18.3250  -11.3622  -26.0745 H   0  0  0  0  0  0  0  0  0  0  0  0  # atno 1614 bound_to 1589
  -19.2405  -11.0399  -24.7306 H   0  0  0  0  0  0  0  0  0  0  0  0  # atno 1615 bound_to 1589
   -7.0196  -13.8143  -29.6696 H   0  0  0  0  0  0  0  0  0  0  0  0  # atno 4214 bound_to 4203
   -5.3772  -13.8545  -29.8909 H   0  0  0  0  0  0  0  0  0  0  0  0  # atno 4215 bound_to 4203
   -6.2784  -12.6479  -30.5841 H   0  0  0  0  0  0  0  0  0  0  0  0  # atno 4216 bound_to 4203
   -2.4823  -11.5158  -15.7277 H   0  0  0  0  0  0  0  0  0  0  0  0  # atno 4227 bound_to 4194
   -3.4495  -12.8523  -15.8873 H   0  0  0  0  0  0  0  0  0  0  0  0  # atno 4228 bound_to 4194
   -4.0177  -11.5066  -15.1041 H   0  0  0  0  0  0  0  0  0  0  0  0  # atno 4229 bound_to 4194
   -3.0995   -9.5668  -15.7310 H   0  0  0  0  0  0  0  0  0  0  0  0  # atno 5354 bound_to 5333
   -8.1742  -12.1911  -10.7307 H   0  0  0  0  0  0  0  0  0  0  0  0  # atno 5430 bound_to 5408
    5.1105    0.6069  -13.7470 H   0  0  0  0  0  0  0  0  0  0  0  0  # atno 5797 bound_to 5776
  -17.1801   -7.8132   -2.2374 H   0  0  0  0  0  0  0  0  0  0  0  0  # atno 6231 bound_to 6210
  -20.2835   -9.0162   -2.4630 H   0  0  0  0  0  0  0  0  0  0  0  0  # atno 6433 bound_to 6412
    3.8448    0.2127  -30.6937 H   0  0  0  0  0  0  0  0  0  0  0  0  # atno 6635 bound_to 6620
    3.0701    1.1794  -29.8398 H   0  0  0  0  0  0  0  0  0  0  0  0  # atno 6661 bound_to 6649
   -0.2409    0.5142  -27.8040 H   0  0  0  0  0  0  0  0  0  0  0  0  # atno 6691 bound_to 6674
   -2.6225    1.9864  -29.8653 H   0  0  0  0  0  0  0  0  0  0  0  0  # atno 6727 bound_to 6709
   -6.6731   -1.1980  -18.2585 H   0  0  0  0  0  0  0  0  0  0  0  0  # atno 6843 bound_to 6822
  -25.6378   -8.1583    4.9164 H   0  0  0  0  0  0  0  0  0  0  0  0  # atno 7222 bound_to 7206
  -23.8858  -14.1185  -13.2706 LP  0  0  0  0  0  0  0  0  0  0  0  0  # atno 8535 bound_to 1347
  -24.6189  -14.9460  -11.9372 LP  0  0  0  0  0  0  0  0  0  0  0  0  # atno 8536 bound_to 1347
  -18.7963   -8.6799   -1.8936 LP  0  0  0  0  0  0  0  0  0  0  0  0  # atno 8539 bound_to 6412
  -19.5818  -10.0208   -1.3919 LP  0  0  0  0  0  0  0  0  0  0  0  0  # atno 8540 bound_to 6412
  -24.0808  -16.9732  -13.6447 LP  0  0  0  0  0  0  0  0  0  0  0  0  # atno 8545 bound_to 1375
  -23.3360  -13.5466  -15.7570 LP  0  0  0  0  0  0  0  0  0  0  0  0  # atno 8546 bound_to 1411
  -16.6621   -6.2935   -2.5028 LP  0  0  0  0  0  0  0  0  0  0  0  0  # atno 8553 bound_to 6210
  -16.9670   -6.8011   -0.9810 LP  0  0  0  0  0  0  0  0  0  0  0  0  # atno 8554 bound_to 6210
  -26.1757   -6.8802    4.0651 LP  0  0  0  0  0  0  0  0  0  0  0  0  # atno 8565 bound_to 7206
  -24.6296   -7.3804    3.9034 LP  0  0  0  0  0  0  0  0  0  0  0  0  # atno 8566 bound_to 7206
  -21.2476  -18.3194  -11.6343 LP  0  0  0  0  0  0  0  0  0  0  0  0  # atno 8581 bound_to 1344
  -12.1937  -15.6559  -16.0925 LP  0  0  0  0  0  0  0  0  0  0  0  0  # atno 8582 bound_to 539 
  -12.3039  -17.3816  -15.9931 LP  0  0  0  0  0  0  0  0  0  0  0  0  # atno 8583 bound_to 539 
   -9.0468  -11.5487   -9.5159 LP  0  0  0  0  0  0  0  0  0  0  0  0  # atno 8584 bound_to 5408
   -7.8056  -12.5578   -9.1881 LP  0  0  0  0  0  0  0  0  0  0  0  0  # atno 8585 bound_to 5408
  -19.4563  -19.7989  -16.8906 LP  0  0  0  0  0  0  0  0  0  0  0  0  # atno 8586 bound_to 1252
  -19.3133  -19.3194  -15.2324 LP  0  0  0  0  0  0  0  0  0  0  0  0  # atno 8587 bound_to 1252
  -26.2950  -15.5783  -15.7508 LP  0  0  0  0  0  0  0  0  0  0  0  0  # atno 8588 bound_to 1378
  -25.7765  -15.1300  -14.1602 LP  0  0  0  0  0  0  0  0  0  0  0  0  # atno 8589 bound_to 1378
  -13.2765  -16.6177  -17.7108 LP  0  0  0  0  0  0  0  0  0  0  0  0  # atno 8592 bound_to 562 
  -23.9125  -18.9294  -14.1820 LP  0  0  0  0  0  0  0  0  0  0  0  0  # atno 8593 bound_to 1279
  -24.6678  -20.4697  -14.4204 LP  0  0  0  0  0  0  0  0  0  0  0  0  # atno 8594 bound_to 1279
  -22.0926  -21.4980  -13.6058 LP  0  0  0  0  0  0  0  0  0  0  0  0  # atno 8595 bound_to 1306
  -24.3114  -17.7679  -10.9002 LP  0  0  0  0  0  0  0  0  0  0  0  0  # atno 8596 bound_to 1309
  -24.7389  -19.4179  -11.2079 LP  0  0  0  0  0  0  0  0  0  0  0  0  # atno 8597 bound_to 1309
  -15.5608  -21.2618  -17.2339 LP  0  0  0  0  0  0  0  0  0  0  0  0  # atno 8602 bound_to 565 
  -16.6547  -19.9613  -17.5687 LP  0  0  0  0  0  0  0  0  0  0  0  0  # atno 8603 bound_to 565 
  -12.9071  -19.5637  -18.2056 LP  0  0  0  0  0  0  0  0  0  0  0  0  # atno 8604 bound_to 597 
   -9.4782  -18.1749  -18.6190 LP  0  0  0  0  0  0  0  0  0  0  0  0  # atno 8625 bound_to 524 
  -11.0908  -18.4253  -18.0385 LP  0  0  0  0  0  0  0  0  0  0  0  0  # atno 8626 bound_to 524 
  -11.0886  -16.2917  -20.6119 LP  0  0  0  0  0  0  0  0  0  0  0  0  # atno 8627 bound_to 536 
  -17.4183  -21.4506  -17.2120 LP  0  0  0  0  0  0  0  0  0  0  0  0  # atno 8630 bound_to 1249
  -23.2192  -12.4039  -18.3888 LP  0  0  0  0  0  0  0  0  0  0  0  0  # atno 8631 bound_to 1416
  -23.5512  -10.8410  -18.7262 LP  0  0  0  0  0  0  0  0  0  0  0  0  # atno 8632 bound_to 1416
  -25.0572  -15.1322  -17.9650 LP  0  0  0  0  0  0  0  0  0  0  0  0  # atno 8635 bound_to 1414
  -25.7419  -14.4474  -19.4010 LP  0  0  0  0  0  0  0  0  0  0  0  0  # atno 8636 bound_to 1414
  -24.7421  -12.8703  -20.1680 LP  0  0  0  0  0  0  0  0  0  0  0  0  # atno 8637 bound_to 1492
  -23.8727  -16.7561  -23.0494 LP  0  0  0  0  0  0  0  0  0  0  0  0  # atno 8638 bound_to 1495
  -22.4187  -16.4633  -22.1550 LP  0  0  0  0  0  0  0  0  0  0  0  0  # atno 8639 bound_to 1495
  -25.2934  -14.9553  -21.5399 LP  0  0  0  0  0  0  0  0  0  0  0  0  # atno 8640 bound_to 1518
   -8.7499  -19.4983  -20.6825 LP  0  0  0  0  0  0  0  0  0  0  0  0  # atno 8641 bound_to 521 
  -11.1011  -21.0401  -18.0060 LP  0  0  0  0  0  0  0  0  0  0  0  0  # atno 8642 bound_to 600 
  -10.7952  -20.8302  -19.6978 LP  0  0  0  0  0  0  0  0  0  0  0  0  # atno 8643 bound_to 600 
   -2.5074   -9.9563  -14.2657 LP  0  0  0  0  0  0  0  0  0  0  0  0  # atno 8648 bound_to 5333
   -2.0350   -8.5762  -14.9997 LP  0  0  0  0  0  0  0  0  0  0  0  0  # atno 8649 bound_to 5333
   -7.3428  -19.4274  -22.8727 LP  0  0  0  0  0  0  0  0  0  0  0  0  # atno 8650 bound_to 485 
   -8.9943  -19.1481  -23.3135 LP  0  0  0  0  0  0  0  0  0  0  0  0  # atno 8651 bound_to 485 
   -7.0293  -21.4824  -22.9545 LP  0  0  0  0  0  0  0  0  0  0  0  0  # atno 8652 bound_to 482 
   -7.5490  -24.9612  -21.3853 LP  0  0  0  0  0  0  0  0  0  0  0  0  # atno 8661 bound_to 466 
   -7.9344  -23.6075  -20.3759 LP  0  0  0  0  0  0  0  0  0  0  0  0  # atno 8662 bound_to 466 
  -13.6138  -19.4586  -21.3549 LP  0  0  0  0  0  0  0  0  0  0  0  0  # atno 8663 bound_to 602 
  -13.4953  -20.6944  -22.4157 LP  0  0  0  0  0  0  0  0  0  0  0  0  # atno 8664 bound_to 602 
  -12.5480  -22.7740  -18.7103 LP  0  0  0  0  0  0  0  0  0  0  0  0  # atno 8665 bound_to 620 
   -9.9412  -24.4107  -21.8953 LP  0  0  0  0  0  0  0  0  0  0  0  0  # atno 8672 bound_to 652 
   -7.2429   -2.3359  -17.2442 LP  0  0  0  0  0  0  0  0  0  0  0  0  # atno 8689 bound_to 6822
   -5.8191   -1.5994  -16.9326 LP  0  0  0  0  0  0  0  0  0  0  0  0  # atno 8690 bound_to 6822
    3.1030   -0.4778  -26.3547 LP  0  0  0  0  0  0  0  0  0  0  0  0  # atno 8712 bound_to 6623
    1.6101   -0.7410  -27.1926 LP  0  0  0  0  0  0  0  0  0  0  0  0  # atno 8713 bound_to 6623
    4.8850   -0.8302  -13.0185 LP  0  0  0  0  0  0  0  0  0  0  0  0  # atno 8722 bound_to 5776
    6.3685   -0.1482  -13.0440 LP  0  0  0  0  0  0  0  0  0  0  0  0  # atno 8723 bound_to 5776
    3.0623    0.3699  -28.2810 LP  0  0  0  0  0  0  0  0  0  0  0  0  # atno 8724 bound_to 6649
   -0.2798    1.9149  -28.8567 LP  0  0  0  0  0  0  0  0  0  0  0  0  # atno 8725 bound_to 6674
   -2.3839    2.9545  -28.4260 LP  0  0  0  0  0  0  0  0  0  0  0  0  # atno 8728 bound_to 6709
    1.5452   -1.9456  -31.3963 LP  0  0  0  0  0  0  0  0  0  0  0  0  # atno 8729 bound_to 6598
    1.9327   -1.5440  -29.7566 LP  0  0  0  0  0  0  0  0  0  0  0  0  # atno 8730 bound_to 6598
    4.6093   -1.3511  -30.9269 LP  0  0  0  0  0  0  0  0  0  0  0  0  # atno 8731 bound_to 6620
    0.8699    0.9170  -31.0382 LP  0  0  0  0  0  0  0  0  0  0  0  0  # atno 8732 bound_to 6652
   -0.1487    2.3163  -30.9722 LP  0  0  0  0  0  0  0  0  0  0  0  0  # atno 8733 bound_to 6652

> <Gold.Score>
     Fitness  S(hb_ext) S(vdw_ext)  S(hb_int)    S(int)      intcor
     36.82       3.79      25.43       0.00      -1.94      -0.76

> <Gold.Goldscore.Fitness>
36.8220

> <Gold.Goldscore.Internal.Vdw>
-2.3249

> <Gold.Goldscore.Internal.Torsion>
-0.3686

> <Gold.Goldscore.External.Vdw>
25.4308

> <Gold.Goldscore.Internal.HBond>
0.0000

> <Gold.Goldscore.External.HBond>
3.7898

> <Gold.Goldscore.Internal.Correction>
-0.7585

> <Gold.Goldscore.Hbonds>
donor molecule, donor type, donor heavy atom, donor atom, acceptor molecule, acceptor atom, score
      P1  H   562   580       L1     9  0.99
      L1  H     8    22       P1   602  0.91

> <Gold.Goldscore.Internal.Vdw.Weighted>
-2.3249

> <Gold.Goldscore.Internal.Torsion.Weighted>
-0.3686

> <Gold.Goldscore.External.Vdw.Weighted>
34.9673

> <Gold.Goldscore.Internal.HBond.Weighted>
0.0000

> <Gold.Goldscore.External.HBond.Weighted>
3.7898

> <Gold.Goldscore.Internal.Correction.Weighted>
-0.7585

> <Gold.Rescore>
     Score     S(PLP)   S(hbond)     S(cho)   S(metal)  DE(clash)   DE(tors)     intcor
     33.15     -30.26       1.43       0.00       0.00       1.33       0.04       ----

> <Gold.PLP.Fitness>
33.1483

> <Gold.PLP.PLP>
-30.2639

> <Gold.PLP.part.hbond>
-3.2190

> <Gold.PLP.part.metal>
0.0000

> <Gold.PLP.part.buried>
-4.2560

> <Gold.PLP.part.nonpolar>
-25.2111

> <Gold.PLP.part.repulsive>
0.2673

> <Gold.PLP.ligand.clash>
1.3305

> <Gold.PLP.ligand.torsion>
0.0376

> <Gold.PLP.Chemscore.Hbond>
1.4300

> <Gold.PLP.Chemscore.CHOScore>
0.0000

> <Gold.PLP.Chemscore.Metal>
0.0000

> <Gold.Chemscore.Hbonds>
donor molecule, donor type, donor heavy atom, donor atom, acceptor molecule, acceptor atom, score
      L1  H     8    22       P1   602  0.18
      P1  H   562   580       L1     9  1.00

> <Gold.PLP.Chemscore.Internal.Correction>
   9.000000E+99

