#       Name:                CT1002167954
#       Creating user name   hitesit
#       Creation time:       Sun Apr 16 02:23:21 2023


#       File generated by GOLD software.
#

@<TRIPOS>MOLECULE
CT1002167954|ligand_prepared|mol2|1|dock6
    29    30     1
SMALL
NO_CHARGES


@<TRIPOS>ATOM
      1 C1          -6.5909 -15.3492 -18.4720 C.3            1 RES1               0.0000
      2 C2          -7.5033 -15.9916 -17.4073 C.ar           1 RES1               0.0000
      3 C3          -5.1975 -15.2761 -17.8545 C.2            1 RES1               0.0000
      4 C4          -6.6791 -16.2425 -19.7045 C.2            1 RES1               0.0000
      5 C5          -7.0209 -13.9222 -18.8846 C.3            1 RES1               0.0000
      6 C6          -8.6807 -15.3642 -17.0111 C.ar           1 RES1               0.0000
      7 C7          -7.1828 -17.2103 -16.8152 C.ar           1 RES1               0.0000
      8 N8          -4.2588 -16.1556 -18.3074 N.am           1 RES1               0.0000
      9 O9          -4.9375 -14.4853 -16.9561 O.2            1 RES1               0.0000
     10 N10         -5.5492 -16.9129 -20.0938 N.am           1 RES1               0.0000
     11 O11         -7.7212 -16.3849 -20.3322 O.2            1 RES1               0.0000
     12 C12         -6.0580 -13.2460 -19.8477 C.3            1 RES1               0.0000
     13 C13         -9.5092 -15.9358 -16.0598 C.ar           1 RES1               0.0000
     14 C14         -8.0127 -17.7801 -15.8637 C.ar           1 RES1               0.0000
     15 C15         -4.3511 -16.9339 -19.4332 C.2            1 RES1               0.0000
     16 C16         -9.1761 -17.1441 -15.4858 C.ar           1 RES1               0.0000
     17 O17         -3.3969 -17.6048 -19.8160 O.2            1 RES1               0.0000
     18 H18         -8.0114 -13.9735 -19.3533 H              1 RES1               0.0000
     19 H19         -7.1088 -13.3050 -17.9819 H              1 RES1               0.0000
     20 H20         -8.9580 -14.4115 -17.4500 H              1 RES1               0.0000
     21 H21         -6.2721 -17.7281 -17.0963 H              1 RES1               0.0000
     22 H22         -3.4096 -16.2427 -17.7582 H              1 RES1               0.0000
     23 H23         -5.6064 -17.4455 -20.9560 H              1 RES1               0.0000
     24 H24         -6.4066 -12.2480 -20.1047 H              1 RES1               0.0000
     25 H25         -5.0686 -13.1556 -19.4041 H              1 RES1               0.0000
     26 H26         -5.9658 -13.8201 -20.7675 H              1 RES1               0.0000
     27 H27        -10.4230 -15.4306 -15.7648 H              1 RES1               0.0000
     28 H28         -7.7463 -18.7310 -15.4142 H              1 RES1               0.0000
     29 H29         -9.8255 -17.5919 -14.7408 H              1 RES1               0.0000
@<TRIPOS>BOND
    1    1    2 1     
    2    1    3 1     
    3    1    4 1     
    4    1    5 1     
    5    2    6 ar    
    6    2    7 ar    
    7    3    8 1     
    8    3    9 2     
    9    4   10 1     
   10    4   11 2     
   11    5   12 1     
   12    5   18 1     
   13    5   19 1     
   14    6   13 ar    
   15    6   20 1     
   16    7   14 ar    
   17    7   21 1     
   18    8   15 1     
   19    8   22 1     
   20   10   15 1     
   21   10   23 1     
   22   12   24 1     
   23   12   25 1     
   24   12   26 1     
   25   13   16 ar    
   26   13   27 1     
   27   14   16 ar    
   28   14   28 1     
   29   15   17 2     
   30   16   29 1     
@<TRIPOS>SUBSTRUCTURE
      1 RES1           1
@<TRIPOS>SET
DONOR_HYDROGENS      STATIC     ATOMS    <user>   **** ""
2 22 23
ATOM$RED        STATIC     ATOMS    COLORGROUP SYSTEM
2 22 23
@<TRIPOS>COMMENT
> <Gold.Version>
2022.3.0

> <Gold.Id.Protein>
unknown|7kl0_clean|pdb

> <Gold.Protein.RotatedTorsions>
[ 6433 6412 6411 6409 ] final   81.74 input   60.01 | X-H torsion
[ 1391 1375 1376 1377 ] final  -18.92 input  130.72 | X-H torsion
[ 1421 1411 1412 1413 ] final  -29.83 input  114.05 | X-H torsion
[ 6231 6210 6209 6207 ] final  126.73 input   60.00 | X-H torsion
[ 7222 7206 7205 7202 ] final  129.86 input   60.00 | X-H torsion
[ 1362 1344 1345 1346 ] final -135.31 input   95.07 | X-H torsion
[ 5430 5408 5407 5405 ] final   37.69 input   60.00 | X-H torsion
[  580  562  563  564 ] final  -79.24 input   55.02 | X-H torsion
[ 1326 1306 1307 1308 ] final -179.58 input  117.83 | X-H torsion
[  608  597  598  599 ] final   47.74 input   37.41 | X-H torsion
[  546  536  537  538 ] final  -93.05 input  119.99 | X-H torsion
[ 4227 4194 4193 4192 ] final  135.69 input   60.00 | X-H torsion
[ 1262 1249 1250 1251 ] final   90.81 input  103.51 | X-H torsion
[ 1425 1416 1415 1412 ] final -169.18 input   60.01 | X-H torsion
[ 1504 1492 1493 1494 ] final -134.37 input  118.60 | X-H torsion
[ 1535 1518 1519 1520 ] final  -75.80 input  116.53 | X-H torsion
[  528  521  522  523 ] final  -49.51 input   38.54 | X-H torsion
[ 5354 5333 5331 5328 ] final -116.17 input   59.99 | X-H torsion
[  504  482  483  484 ] final   27.47 input   40.33 | X-H torsion
[  612  602  601  598 ] final  -68.82 input   59.99 | X-H torsion
[  636  620  621  622 ] final  -69.44 input   33.60 | X-H torsion
[  668  652  653  654 ] final  -60.44 input   67.24 | X-H torsion
[ 6843 6822 6821 6819 ] final -155.31 input   59.97 | X-H torsion
[ 1596 1580 1579 1578 ] final  128.09 input   59.99 | X-H torsion
[ 5797 5776 5775 5773 ] final  -29.62 input   60.02 | X-H torsion
[ 6661 6649 6650 6651 ] final  -49.57 input   84.69 | X-H torsion
[ 6691 6674 6675 6676 ] final  151.59 input  117.08 | X-H torsion
[ 6727 6709 6710 6711 ] final -123.11 input  123.04 | X-H torsion
[ 6635 6620 6621 6622 ] final  -71.31 input  122.94 | X-H torsion
[ 1613 1589 1588 1587 ] final   51.92 input   59.99 | X-H torsion
[ 4214 4203 4202 4201 ] final -164.61 input   60.00 | X-H torsion
[ 8535 1347 1346 1345 ] final   25.77 input   -0.00 | X-H torsion
[ 8582  539  538  537 ] final  -31.73 input    0.00 | X-H torsion
[ 8586 1252 1251 1250 ] final  164.70 input    0.00 | X-H torsion
[ 8588 1378 1377 1376 ] final  162.67 input   -0.00 | X-H torsion
[ 8593 1279 1278 1277 ] final    7.75 input    0.00 | X-H torsion
[ 8596 1309 1308 1307 ] final    9.44 input    0.00 | X-H torsion
[ 8602  565  564  563 ] final   60.12 input    0.00 | X-H torsion
[ 8625  524  523  522 ] final   38.25 input    0.00 | X-H torsion
[ 8635 1414 1413 1412 ] final  127.48 input    0.00 | X-H torsion
[ 8638 1495 1494 1493 ] final   -5.41 input    0.00 | X-H torsion
[ 8642  600  599  598 ] final  -63.67 input    0.00 | X-H torsion
[ 8650  485  484  483 ] final  -65.49 input    0.00 | X-H torsion
[ 8661  466  465  464 ] final -134.73 input   -0.00 | X-H torsion
[ 8712 6623 6622 6621 ] final  149.28 input    0.00 | X-H torsion
[ 8729 6598 6597 6596 ] final  -79.78 input   -0.00 | X-H torsion
[ 8732 6652 6651 6650 ] final   35.90 input   -0.00 | X-H torsion

> <Gold.Protein.ActiveResidues>
 GLU18   GLY20   LYS21   GLY22   ALA23   PHE24   SER25   VAL26   VAL27   ARG28  
 ILE44   ASN45   THR46   LYS47   LYS48   LEU49   SER50   ARG52   ASP53   HIS54  
 LYS56   ARG59   GLY95   GLU96   LEU97   PHE98   GLU99   ASP100  ILE101  VAL102 
 ALA103  GLU105  TYR106  HIS133  ARG134  ASN135  LEU136  LYS137  PRO138  GLU139 
 ASN140  LEU142  ASP156  GLY158  LEU159  ILE161  TRP170  PHE171  GLY172  PHE173 
 ALA174  GLY175  THR176  PRO177  GLY178  TYR179  LEU180  VAL184  LEU185  LYS187 
 TYR190  VAL201  ILE202  TYR204  ILE205  LEU206  VAL208  GLY209  TYR210  PRO211 
 PRO212  PHE213  TRP214  ASP215  GLU216  ASP217  GLN218  HIS219  LEU221  TYR222 
 GLN224  ILE225  ALA229  TYR230  ASP231  PHE232  PRO233  SER234  PRO235  GLU236 
 TRP237 

> <Gold.Protein.RotatedAtoms>
   -6.9788  -21.3966  -22.9186 H   0  0  0  0  0  0  0  0  0  0  0  0  # atno 504  bound_to 482 
   -8.9385  -19.4497  -20.2414 H   0  0  0  0  0  0  0  0  0  0  0  0  # atno 528  bound_to 521 
  -10.7981  -17.0190  -19.8920 H   0  0  0  0  0  0  0  0  0  0  0  0  # atno 546  bound_to 536 
  -12.8961  -17.3660  -18.0147 H   0  0  0  0  0  0  0  0  0  0  0  0  # atno 580  bound_to 562 
  -13.0397  -19.2983  -18.7819 H   0  0  0  0  0  0  0  0  0  0  0  0  # atno 608  bound_to 597 
  -13.4267  -19.4766  -21.1706 H   0  0  0  0  0  0  0  0  0  0  0  0  # atno 612  bound_to 602 
  -12.4568  -22.5039  -20.3307 H   0  0  0  0  0  0  0  0  0  0  0  0  # atno 636  bound_to 620 
  -10.5614  -25.5073  -20.6798 H   0  0  0  0  0  0  0  0  0  0  0  0  # atno 668  bound_to 652 
  -17.1132  -21.5848  -17.0295 H   0  0  0  0  0  0  0  0  0  0  0  0  # atno 1262 bound_to 1249
  -21.6535  -21.5455  -13.3984 H   0  0  0  0  0  0  0  0  0  0  0  0  # atno 1326 bound_to 1306
  -22.1794  -18.5637  -11.2152 H   0  0  0  0  0  0  0  0  0  0  0  0  # atno 1362 bound_to 1344
  -23.7277  -16.1060  -13.3347 H   0  0  0  0  0  0  0  0  0  0  0  0  # atno 1391 bound_to 1375
  -24.4197  -14.8166  -16.2684 H   0  0  0  0  0  0  0  0  0  0  0  0  # atno 1421 bound_to 1411
  -23.3743  -10.9237  -18.6340 H   0  0  0  0  0  0  0  0  0  0  0  0  # atno 1425 bound_to 1416
  -24.2474  -12.2636  -21.5180 H   0  0  0  0  0  0  0  0  0  0  0  0  # atno 1504 bound_to 1492
  -24.2379  -15.7889  -21.3334 H   0  0  0  0  0  0  0  0  0  0  0  0  # atno 1535 bound_to 1518
    7.8614   -6.3231  -22.6957 H   0  0  0  0  0  0  0  0  0  0  0  0  # atno 1596 bound_to 1580
    7.9638   -5.2045  -21.4768 H   0  0  0  0  0  0  0  0  0  0  0  0  # atno 1597 bound_to 1580
    8.9142   -5.0498  -22.8262 H   0  0  0  0  0  0  0  0  0  0  0  0  # atno 1598 bound_to 1580
  -18.8015  -12.0108  -24.3503 H   0  0  0  0  0  0  0  0  0  0  0  0  # atno 1613 bound_to 1589
  -18.0262  -12.0243  -25.8156 H   0  0  0  0  0  0  0  0  0  0  0  0  # atno 1614 bound_to 1589
  -19.0473  -10.7768  -25.4291 H   0  0  0  0  0  0  0  0  0  0  0  0  # atno 1615 bound_to 1589
   -6.5116  -14.1701  -29.5018 H   0  0  0  0  0  0  0  0  0  0  0  0  # atno 4214 bound_to 4203
   -5.2973  -13.3347  -30.2606 H   0  0  0  0  0  0  0  0  0  0  0  0  # atno 4215 bound_to 4203
   -6.8658  -12.8117  -30.3824 H   0  0  0  0  0  0  0  0  0  0  0  0  # atno 4216 bound_to 4203
   -2.4223  -11.7677  -15.8556 H   0  0  0  0  0  0  0  0  0  0  0  0  # atno 4227 bound_to 4194
   -3.7079  -12.8101  -15.7655 H   0  0  0  0  0  0  0  0  0  0  0  0  # atno 4228 bound_to 4194
   -3.8191  -11.2970  -15.0981 H   0  0  0  0  0  0  0  0  0  0  0  0  # atno 4229 bound_to 4194
   -3.1623   -9.8769  -15.4907 H   0  0  0  0  0  0  0  0  0  0  0  0  # atno 5354 bound_to 5333
   -8.7389  -11.8146   -9.0141 H   0  0  0  0  0  0  0  0  0  0  0  0  # atno 5430 bound_to 5408
    6.1167   -0.6234  -12.8414 H   0  0  0  0  0  0  0  0  0  0  0  0  # atno 5797 bound_to 5776
  -17.0296   -6.9987   -0.9765 H   0  0  0  0  0  0  0  0  0  0  0  0  # atno 6231 bound_to 6210
  -20.2491   -8.9613   -2.4824 H   0  0  0  0  0  0  0  0  0  0  0  0  # atno 6433 bound_to 6412
    3.5136   -1.1264  -30.8337 H   0  0  0  0  0  0  0  0  0  0  0  0  # atno 6635 bound_to 6620
    2.5201    0.0644  -28.8772 H   0  0  0  0  0  0  0  0  0  0  0  0  # atno 6661 bound_to 6649
   -0.3394    0.6210  -27.6899 H   0  0  0  0  0  0  0  0  0  0  0  0  # atno 6691 bound_to 6674
   -3.2971    2.0837  -29.0774 H   0  0  0  0  0  0  0  0  0  0  0  0  # atno 6727 bound_to 6709
   -6.1023   -1.0467  -17.9384 H   0  0  0  0  0  0  0  0  0  0  0  0  # atno 6843 bound_to 6822
  -26.1309   -6.8572    4.0252 H   0  0  0  0  0  0  0  0  0  0  0  0  # atno 7222 bound_to 7206
  -23.7062  -14.2958  -11.9747 LP  0  0  0  0  0  0  0  0  0  0  0  0  # atno 8535 bound_to 1347
  -24.7985  -14.7686  -13.2330 LP  0  0  0  0  0  0  0  0  0  0  0  0  # atno 8536 bound_to 1347
  -18.7688   -8.7233   -1.8490 LP  0  0  0  0  0  0  0  0  0  0  0  0  # atno 8539 bound_to 6412
  -19.6439  -10.0327   -1.4171 LP  0  0  0  0  0  0  0  0  0  0  0  0  # atno 8540 bound_to 6412
  -22.7864  -17.4636  -13.9329 LP  0  0  0  0  0  0  0  0  0  0  0  0  # atno 8545 bound_to 1375
  -23.2703  -13.5438  -15.9020 LP  0  0  0  0  0  0  0  0  0  0  0  0  # atno 8546 bound_to 1411
  -17.1393   -7.7335   -2.4244 LP  0  0  0  0  0  0  0  0  0  0  0  0  # atno 8553 bound_to 6210
  -16.6414   -6.1812   -2.3291 LP  0  0  0  0  0  0  0  0  0  0  0  0  # atno 8554 bound_to 6210
  -24.6106   -7.4306    3.9378 LP  0  0  0  0  0  0  0  0  0  0  0  0  # atno 8565 bound_to 7206
  -25.6982   -8.1399    4.9280 LP  0  0  0  0  0  0  0  0  0  0  0  0  # atno 8566 bound_to 7206
  -21.7976  -18.2493  -12.8942 LP  0  0  0  0  0  0  0  0  0  0  0  0  # atno 8581 bound_to 1344
  -11.4420  -16.4070  -16.3369 LP  0  0  0  0  0  0  0  0  0  0  0  0  # atno 8582 bound_to 539 
  -13.0556  -16.6304  -15.7486 LP  0  0  0  0  0  0  0  0  0  0  0  0  # atno 8583 bound_to 539 
   -7.6073  -12.6900   -9.7906 LP  0  0  0  0  0  0  0  0  0  0  0  0  # atno 8584 bound_to 5408
   -8.6768  -11.7954  -10.6407 LP  0  0  0  0  0  0  0  0  0  0  0  0  # atno 8585 bound_to 5408
  -20.2269  -19.4672  -16.2416 LP  0  0  0  0  0  0  0  0  0  0  0  0  # atno 8586 bound_to 1252
  -18.5427  -19.6510  -15.8815 LP  0  0  0  0  0  0  0  0  0  0  0  0  # atno 8587 bound_to 1252
  -26.2516  -14.5157  -14.9713 LP  0  0  0  0  0  0  0  0  0  0  0  0  # atno 8588 bound_to 1378
  -25.8198  -16.1927  -14.9397 LP  0  0  0  0  0  0  0  0  0  0  0  0  # atno 8589 bound_to 1378
  -14.3378  -16.6648  -18.7314 LP  0  0  0  0  0  0  0  0  0  0  0  0  # atno 8592 bound_to 562 
  -24.3794  -19.9223  -15.1333 LP  0  0  0  0  0  0  0  0  0  0  0  0  # atno 8593 bound_to 1279
  -24.2009  -19.4768  -13.4691 LP  0  0  0  0  0  0  0  0  0  0  0  0  # atno 8594 bound_to 1279
  -21.9464  -19.8713  -13.8294 LP  0  0  0  0  0  0  0  0  0  0  0  0  # atno 8595 bound_to 1306
  -24.6175  -19.4322  -10.8613 LP  0  0  0  0  0  0  0  0  0  0  0  0  # atno 8596 bound_to 1309
  -24.4328  -17.7537  -11.2468 LP  0  0  0  0  0  0  0  0  0  0  0  0  # atno 8597 bound_to 1309
  -16.6506  -20.0369  -17.7550 LP  0  0  0  0  0  0  0  0  0  0  0  0  # atno 8602 bound_to 565 
  -15.5649  -21.1862  -17.0475 LP  0  0  0  0  0  0  0  0  0  0  0  0  # atno 8603 bound_to 565 
  -14.4531  -19.7767  -17.8648 LP  0  0  0  0  0  0  0  0  0  0  0  0  # atno 8604 bound_to 597 
   -9.5297  -18.4665  -18.7194 LP  0  0  0  0  0  0  0  0  0  0  0  0  # atno 8625 bound_to 524 
  -11.0393  -18.1337  -17.9381 LP  0  0  0  0  0  0  0  0  0  0  0  0  # atno 8626 bound_to 524 
  -12.3561  -16.7840  -20.6686 LP  0  0  0  0  0  0  0  0  0  0  0  0  # atno 8627 bound_to 536 
  -18.1393  -22.9549  -17.3993 LP  0  0  0  0  0  0  0  0  0  0  0  0  # atno 8630 bound_to 1249
  -24.6646  -11.7899  -19.1159 LP  0  0  0  0  0  0  0  0  0  0  0  0  # atno 8631 bound_to 1416
  -23.3786  -12.5398  -18.4446 LP  0  0  0  0  0  0  0  0  0  0  0  0  # atno 8632 bound_to 1416
  -26.0852  -15.2812  -18.4869 LP  0  0  0  0  0  0  0  0  0  0  0  0  # atno 8635 bound_to 1414
  -24.7140  -14.2983  -18.8791 LP  0  0  0  0  0  0  0  0  0  0  0  0  # atno 8636 bound_to 1414
  -25.2470  -13.3338  -20.5495 LP  0  0  0  0  0  0  0  0  0  0  0  0  # atno 8637 bound_to 1492
  -22.5400  -16.0024  -22.7221 LP  0  0  0  0  0  0  0  0  0  0  0  0  # atno 8638 bound_to 1495
  -23.7513  -17.2170  -22.4823 LP  0  0  0  0  0  0  0  0  0  0  0  0  # atno 8639 bound_to 1495
  -25.6159  -15.0792  -20.5147 LP  0  0  0  0  0  0  0  0  0  0  0  0  # atno 8640 bound_to 1518
   -9.9492  -20.4472  -21.2780 LP  0  0  0  0  0  0  0  0  0  0  0  0  # atno 8641 bound_to 521 
  -11.0977  -20.4555  -19.5573 LP  0  0  0  0  0  0  0  0  0  0  0  0  # atno 8642 bound_to 600 
  -10.7986  -21.4147  -18.1465 LP  0  0  0  0  0  0  0  0  0  0  0  0  # atno 8643 bound_to 600 
   -2.2558   -9.6657  -14.1555 LP  0  0  0  0  0  0  0  0  0  0  0  0  # atno 8648 bound_to 5333
   -2.2233   -8.5547  -15.3518 LP  0  0  0  0  0  0  0  0  0  0  0  0  # atno 8649 bound_to 5333
   -7.4588  -18.9783  -22.7051 LP  0  0  0  0  0  0  0  0  0  0  0  0  # atno 8650 bound_to 485 
   -8.8783  -19.5972  -23.4811 LP  0  0  0  0  0  0  0  0  0  0  0  0  # atno 8651 bound_to 485 
   -6.9440  -22.8448  -21.9268 LP  0  0  0  0  0  0  0  0  0  0  0  0  # atno 8652 bound_to 482 
   -8.4937  -23.8577  -20.9298 LP  0  0  0  0  0  0  0  0  0  0  0  0  # atno 8661 bound_to 466 
   -6.9897  -24.7111  -20.8315 LP  0  0  0  0  0  0  0  0  0  0  0  0  # atno 8662 bound_to 466 
  -13.6719  -20.4981  -22.4136 LP  0  0  0  0  0  0  0  0  0  0  0  0  # atno 8663 bound_to 602 
  -12.4444  -20.7590  -21.3688 LP  0  0  0  0  0  0  0  0  0  0  0  0  # atno 8664 bound_to 602 
  -12.8819  -23.2635  -18.8042 LP  0  0  0  0  0  0  0  0  0  0  0  0  # atno 8665 bound_to 620 
   -9.9108  -24.4202  -21.8884 LP  0  0  0  0  0  0  0  0  0  0  0  0  # atno 8672 bound_to 652 
   -7.4019   -2.0189  -17.8202 LP  0  0  0  0  0  0  0  0  0  0  0  0  # atno 8689 bound_to 6822
   -6.2349   -2.0688  -16.6790 LP  0  0  0  0  0  0  0  0  0  0  0  0  # atno 8690 bound_to 6822
    2.1491    0.2034  -26.5583 LP  0  0  0  0  0  0  0  0  0  0  0  0  # atno 8712 bound_to 6623
    2.5640   -1.4221  -26.9891 LP  0  0  0  0  0  0  0  0  0  0  0  0  # atno 8713 bound_to 6623
    5.6719    0.7036  -13.6710 LP  0  0  0  0  0  0  0  0  0  0  0  0  # atno 8722 bound_to 5776
    4.5676   -0.4421  -13.3041 LP  0  0  0  0  0  0  0  0  0  0  0  0  # atno 8723 bound_to 5776
    3.5834    1.4263  -29.1929 LP  0  0  0  0  0  0  0  0  0  0  0  0  # atno 8724 bound_to 6649
   -0.1853    1.8124  -28.9661 LP  0  0  0  0  0  0  0  0  0  0  0  0  # atno 8725 bound_to 6674
   -1.7319    2.8605  -29.1876 LP  0  0  0  0  0  0  0  0  0  0  0  0  # atno 8728 bound_to 6709
    1.3416   -0.9754  -30.5674 LP  0  0  0  0  0  0  0  0  0  0  0  0  # atno 8729 bound_to 6598
    2.1364   -2.5142  -30.5855 LP  0  0  0  0  0  0  0  0  0  0  0  0  # atno 8730 bound_to 6598
    4.9237   -0.0803  -30.7940 LP  0  0  0  0  0  0  0  0  0  0  0  0  # atno 8731 bound_to 6620
    1.1977    1.3947  -31.0081 LP  0  0  0  0  0  0  0  0  0  0  0  0  # atno 8732 bound_to 6652
   -0.4765    1.8386  -31.0023 LP  0  0  0  0  0  0  0  0  0  0  0  0  # atno 8733 bound_to 6652

> <Gold.Score>
     Fitness  S(hb_ext) S(vdw_ext)  S(hb_int)    S(int)      intcor
     26.32       5.84      15.46       0.00      -0.78      -0.76

> <Gold.Goldscore.Fitness>
26.3183

> <Gold.Goldscore.Internal.Vdw>
-1.1327

> <Gold.Goldscore.Internal.Torsion>
-0.4061

> <Gold.Goldscore.External.Vdw>
15.4579

> <Gold.Goldscore.Internal.HBond>
0.0000

> <Gold.Goldscore.External.HBond>
5.8440

> <Gold.Goldscore.Internal.Correction>
-0.7585

> <Gold.Goldscore.Hbonds>
donor molecule, donor type, donor heavy atom, donor atom, acceptor molecule, acceptor atom, score
      P1  H  4194  4228       L1     9  0.97

> <Gold.Goldscore.Internal.Vdw.Weighted>
-1.1327

> <Gold.Goldscore.Internal.Torsion.Weighted>
-0.4061

> <Gold.Goldscore.External.Vdw.Weighted>
21.2546

> <Gold.Goldscore.Internal.HBond.Weighted>
0.0000

> <Gold.Goldscore.External.HBond.Weighted>
5.8440

> <Gold.Goldscore.Internal.Correction.Weighted>
-0.7585

> <Gold.Rescore>
     Score     S(PLP)   S(hbond)     S(cho)   S(metal)  DE(clash)   DE(tors)     intcor
     17.91     -18.30       0.00       0.00       0.00       0.00       0.19       ----

> <Gold.PLP.Fitness>
17.9150

> <Gold.PLP.PLP>
-18.3043

> <Gold.PLP.part.hbond>
0.0000

> <Gold.PLP.part.metal>
0.0000

> <Gold.PLP.part.buried>
-0.1635

> <Gold.PLP.part.nonpolar>
-20.9688

> <Gold.PLP.part.repulsive>
0.2515

> <Gold.PLP.ligand.clash>
0.0000

> <Gold.PLP.ligand.torsion>
0.1946

> <Gold.PLP.Chemscore.Hbond>
0.0000

> <Gold.PLP.Chemscore.CHOScore>
0.0000

> <Gold.PLP.Chemscore.Metal>
0.0000

> <Gold.Chemscore.Hbonds>
donor molecule, donor type, donor heavy atom, donor atom, acceptor molecule, acceptor atom, score
      P1  H  4194  4228       L1     9  0.26

> <Gold.PLP.Chemscore.Internal.Correction>
   9.000000E+99

