#       Name:                CT1002167954
#       Creating user name   hitesit
#       Creation time:       Sun Apr 16 20:33:10 2023


#       File generated by GOLD software.
#

@<TRIPOS>MOLECULE
CT1002167954|ligand_prepared|mol2|1|dock6
    29    30     1
SMALL
NO_CHARGES


@<TRIPOS>ATOM
      1 C1         245.3128 -13.4443  41.1194 C.3            1 RES1               0.0000
      2 C2         243.8356 -13.7101  40.7641 C.ar           1 RES1               0.0000
      3 C3         246.0685 -13.3878  39.7950 C.2            1 RES1               0.0000
      4 C4         245.3342 -12.1373  41.9042 C.2            1 RES1               0.0000
      5 C5         245.9504 -14.5423  42.0022 C.3            1 RES1               0.0000
      6 C6         243.0537 -12.7112  40.1918 C.ar           1 RES1               0.0000
      7 C7         243.2428 -14.9477  40.9998 C.ar           1 RES1               0.0000
      8 N8         246.4784 -12.1644  39.3532 N.am           1 RES1               0.0000
      9 O9         246.2671 -14.3964  39.1290 O.2            1 RES1               0.0000
     10 N10        245.9632 -11.0591  41.3388 N.am           1 RES1               0.0000
     11 O11        244.7977 -12.0268  42.9998 O.2            1 RES1               0.0000
     12 C12        247.3483 -14.1997  42.4926 C.3            1 RES1               0.0000
     13 C13        241.7278 -12.9420  39.8643 C.ar           1 RES1               0.0000
     14 C14        241.9167 -15.1763  40.6716 C.ar           1 RES1               0.0000
     15 C15        246.5096 -11.0049  40.0855 C.2            1 RES1               0.0000
     16 C16        241.1586 -14.1746  40.1035 C.ar           1 RES1               0.0000
     17 O17        247.0096  -9.9821  39.6261 O.2            1 RES1               0.0000
     18 H18        245.3040 -14.7161  42.8714 H              1 RES1               0.0000
     19 H19        245.9968 -15.4752  41.4270 H              1 RES1               0.0000
     20 H20        243.4836 -11.7341  39.9984 H              1 RES1               0.0000
     21 H21        243.8197 -15.7501  41.4468 H              1 RES1               0.0000
     22 H22        246.7906 -12.1062  38.3891 H              1 RES1               0.0000
     23 H23        246.0305 -10.2191  41.9048 H              1 RES1               0.0000
     24 H24        247.7492 -15.0031  43.1071 H              1 RES1               0.0000
     25 H25        248.0242 -14.0450  41.6541 H              1 RES1               0.0000
     26 H26        247.3355 -13.2903  43.0899 H              1 RES1               0.0000
     27 H27        241.1352 -12.1500  39.4186 H              1 RES1               0.0000
     28 H28        241.4726 -16.1477  40.8623 H              1 RES1               0.0000
     29 H29        240.1201 -14.3553  39.8464 H              1 RES1               0.0000
@<TRIPOS>BOND
    1    1    2 1     
    2    1    3 1     
    3    1    4 1     
    4    1    5 1     
    5    2    6 ar    
    6    2    7 ar    
    7    3    8 1     
    8    3    9 2     
    9    4   10 1     
   10    4   11 2     
   11    5   12 1     
   12    5   18 1     
   13    5   19 1     
   14    6   13 ar    
   15    6   20 1     
   16    7   14 ar    
   17    7   21 1     
   18    8   15 1     
   19    8   22 1     
   20   10   15 1     
   21   10   23 1     
   22   12   24 1     
   23   12   25 1     
   24   12   26 1     
   25   13   16 ar    
   26   13   27 1     
   27   14   16 ar    
   28   14   28 1     
   29   15   17 2     
   30   16   29 1     
@<TRIPOS>SUBSTRUCTURE
      1 RES1           1
@<TRIPOS>SET
DONOR_HYDROGENS      STATIC     ATOMS    <user>   **** ""
2 22 23
ATOM$RED        STATIC     ATOMS    COLORGROUP SYSTEM
2 22 23
@<TRIPOS>COMMENT
> <Gold.Version>
2022.3.0

> <Gold.Id.Protein>
unknown|4v3u_clean|pdb

> <Gold.Protein.RotatedTorsions>
[ 6612 6571 6572 6573 ] final  -46.83 input  122.18 | X-H torsion
[ 6698 6659 6660 6661 ] final  165.53 input  126.07 | X-H torsion
[ 8064 8023 8024 8025 ] final   88.28 input   40.84 | X-H torsion
[ 8135 8102 8103 8104 ] final -169.82 input  100.47 | X-H torsion
[ 8201 8164 8165 8166 ] final  116.72 input   73.50 | X-H torsion
[ 8278 8240 8241 8242 ] final  167.41 input   88.79 | X-H torsion
[ 9578 9542 9541 9539 ] final -103.53 input   60.02 | X-H torsion
[ 8331 8311 8312 8313 ] final   66.69 input   92.25 | X-H torsion
[ 7986 7938 7939 7940 ] final  -44.76 input   70.73 | X-H torsion
[ 7906 7885 7886 7887 ] final   -5.35 input  102.20 | X-H torsion
[ 6850 6802 6803 6804 ] final  100.32 input  120.36 | X-H torsion
[ 10224 10183 10184 10185 ] final   65.28 input   40.62 | X-H torsion
[ 7910 7890 7889 7886 ] final  107.41 input   60.02 | X-H torsion
[ 27200 6334 6333 6332 ] final   -3.12 input    0.00 | X-H torsion
[ 27202 6498 6497 6496 ] final -132.79 input   -0.00 | X-H torsion
[ 27205 6574 6573 6572 ] final  -46.80 input   -0.00 | X-H torsion
[ 27208 7888 7887 7886 ] final  -90.02 input    0.00 | X-H torsion
[ 27211 8026 8025 8024 ] final  -95.57 input   -0.00 | X-H torsion
[ 27214 8105 8104 8103 ] final   72.76 input    0.00 | X-H torsion
[ 27217 8167 8166 8165 ] final  110.15 input    0.00 | X-H torsion
[ 27222 10096 10095 10094 ] final   80.57 input   -0.00 | X-H torsion
[ 27225 10186 10185 10184 ] final -159.45 input    0.00 | X-H torsion
[ 27228 7941 7940 7939 ] final  126.22 input    0.00 | X-H torsion
[ 27230 7733 7732 7731 ] final   39.16 input   -0.00 | X-H torsion
[ 27232 7816 7815 7814 ] final  110.54 input   -0.00 | X-H torsion

> <Gold.Protein.ActiveResidues>
 ASP403  THR404  LEU406  ILE407  TYR408  ALA410  LYS411  TRP414  GLN425  TRP426 
 SER427  LYS428  LEU429  GLN430  VAL431  PHE432  ASP433  TYR453  SER462  ALA463 
 ILE464 

> <Gold.Protein.RotatedAtoms>
  241.5731   -6.7726   50.1304 H   0  0  0  0  0  0  0  0  0  0  0  0  # atno 6612 bound_to 6571
  239.7712   -8.9525   48.3301 H   0  0  0  0  0  0  0  0  0  0  0  0  # atno 6698 bound_to 6659
  240.5486   -5.0527   45.4513 H   0  0  0  0  0  0  0  0  0  0  0  0  # atno 6850 bound_to 6802
  241.3364   -6.8964   37.4270 H   0  0  0  0  0  0  0  0  0  0  0  0  # atno 7906 bound_to 7885
  239.8264  -10.2132   36.1097 H   0  0  0  0  0  0  0  0  0  0  0  0  # atno 7910 bound_to 7890
  242.4105   -8.1974   38.7269 H   0  0  0  0  0  0  0  0  0  0  0  0  # atno 7986 bound_to 7938
  244.1418   -8.4388   40.2040 H   0  0  0  0  0  0  0  0  0  0  0  0  # atno 8064 bound_to 8023
  247.7429   -8.5009   41.1030 H   0  0  0  0  0  0  0  0  0  0  0  0  # atno 8135 bound_to 8102
  247.3218   -8.7207   45.0374 H   0  0  0  0  0  0  0  0  0  0  0  0  # atno 8201 bound_to 8164
  249.9556   -6.7478   46.8287 H   0  0  0  0  0  0  0  0  0  0  0  0  # atno 8278 bound_to 8240
  250.6145   -7.9834   51.0692 H   0  0  0  0  0  0  0  0  0  0  0  0  # atno 8331 bound_to 8311
  251.8388  -10.8477   39.4716 H   0  0  0  0  0  0  0  0  0  0  0  0  # atno 9578 bound_to 9542
  249.0902   -4.3792   44.1365 H   0  0  0  0  0  0  0  0  0  0  0  0  # atno 10224 bound_to 10183
  242.8454   -9.2347   51.9821 LP  0  0  0  0  0  0  0  0  0  0  0  0  # atno 27200 bound_to 6334
  241.6041   -9.9762   51.0286 LP  0  0  0  0  0  0  0  0  0  0  0  0  # atno 27201 bound_to 6334
  241.1561   -5.4959   48.7192 LP  0  0  0  0  0  0  0  0  0  0  0  0  # atno 27202 bound_to 6498
  242.1504   -4.6402   49.8502 LP  0  0  0  0  0  0  0  0  0  0  0  0  # atno 27203 bound_to 6498
  242.1228   -8.3756   50.5681 LP  0  0  0  0  0  0  0  0  0  0  0  0  # atno 27204 bound_to 6571
  241.6173   -6.0592   46.6420 LP  0  0  0  0  0  0  0  0  0  0  0  0  # atno 27205 bound_to 6574
  240.5858   -7.1170   45.7381 LP  0  0  0  0  0  0  0  0  0  0  0  0  # atno 27206 bound_to 6574
  240.4237   -7.3406   48.1367 LP  0  0  0  0  0  0  0  0  0  0  0  0  # atno 27207 bound_to 6659
  242.2932   -9.8489   40.4159 LP  0  0  0  0  0  0  0  0  0  0  0  0  # atno 27208 bound_to 7888
  241.9022  -11.0115   39.1931 LP  0  0  0  0  0  0  0  0  0  0  0  0  # atno 27209 bound_to 7888
  245.4984   -8.7226   39.1357 LP  0  0  0  0  0  0  0  0  0  0  0  0  # atno 27210 bound_to 8023
  245.6798   -8.2869   43.5670 LP  0  0  0  0  0  0  0  0  0  0  0  0  # atno 27211 bound_to 8026
  245.7055   -9.6531   42.5027 LP  0  0  0  0  0  0  0  0  0  0  0  0  # atno 27212 bound_to 8026
  247.5705   -7.0006   41.9806 LP  0  0  0  0  0  0  0  0  0  0  0  0  # atno 27213 bound_to 8102
  248.3757   -5.7205   43.6154 LP  0  0  0  0  0  0  0  0  0  0  0  0  # atno 27214 bound_to 8105
  249.7572   -6.0791   44.5966 LP  0  0  0  0  0  0  0  0  0  0  0  0  # atno 27215 bound_to 8105
  248.8802   -7.9590   44.8242 LP  0  0  0  0  0  0  0  0  0  0  0  0  # atno 27216 bound_to 8164
  249.5134   -9.2922   47.9352 LP  0  0  0  0  0  0  0  0  0  0  0  0  # atno 27217 bound_to 8167
  248.0501   -8.8581   48.7540 LP  0  0  0  0  0  0  0  0  0  0  0  0  # atno 27218 bound_to 8167
  248.7691   -6.3383   48.0426 LP  0  0  0  0  0  0  0  0  0  0  0  0  # atno 27219 bound_to 8240
  251.0661  -10.4788   40.8551 LP  0  0  0  0  0  0  0  0  0  0  0  0  # atno 27220 bound_to 9542
  251.9393  -11.8543   40.7458 LP  0  0  0  0  0  0  0  0  0  0  0  0  # atno 27221 bound_to 9542
  250.3515   -6.9841   39.8684 LP  0  0  0  0  0  0  0  0  0  0  0  0  # atno 27222 bound_to 10096
  248.7287   -6.6483   40.3721 LP  0  0  0  0  0  0  0  0  0  0  0  0  # atno 27223 bound_to 10096
  249.8188   -6.6022   50.3542 LP  0  0  0  0  0  0  0  0  0  0  0  0  # atno 27224 bound_to 8311
  250.2483   -4.4608   47.5496 LP  0  0  0  0  0  0  0  0  0  0  0  0  # atno 27225 bound_to 10186
  250.0048   -4.8495   45.8794 LP  0  0  0  0  0  0  0  0  0  0  0  0  # atno 27226 bound_to 10186
  242.2368   -8.7105   37.0665 LP  0  0  0  0  0  0  0  0  0  0  0  0  # atno 27227 bound_to 7938
  245.6403   -6.4159   38.1634 LP  0  0  0  0  0  0  0  0  0  0  0  0  # atno 27228 bound_to 7941
  246.2841   -7.6985   37.1936 LP  0  0  0  0  0  0  0  0  0  0  0  0  # atno 27229 bound_to 7941
  243.8771   -6.3367   36.1105 LP  0  0  0  0  0  0  0  0  0  0  0  0  # atno 27230 bound_to 7733
  242.4863   -6.9474   36.9429 LP  0  0  0  0  0  0  0  0  0  0  0  0  # atno 27231 bound_to 7733
  240.6041   -6.1862   40.1845 LP  0  0  0  0  0  0  0  0  0  0  0  0  # atno 27232 bound_to 7816
  242.2174   -5.8937   39.6261 LP  0  0  0  0  0  0  0  0  0  0  0  0  # atno 27233 bound_to 7816
  239.5924   -6.8219   37.4939 LP  0  0  0  0  0  0  0  0  0  0  0  0  # atno 27234 bound_to 7885

> <Gold.Score>
     Fitness  S(hb_ext) S(vdw_ext)  S(hb_int)    S(int)      intcor
     20.24       4.00      11.81       0.00      -0.00      -0.75

> <Gold.Goldscore.Fitness>
20.2410

> <Gold.Goldscore.Internal.Vdw>
-0.3111

> <Gold.Goldscore.Internal.Torsion>
-0.4449

> <Gold.Goldscore.External.Vdw>
11.8125

> <Gold.Goldscore.Internal.HBond>
0.0000

> <Gold.Goldscore.External.HBond>
4.0000

> <Gold.Goldscore.Internal.Correction>
-0.7548

> <Gold.Goldscore.Hbonds>
donor molecule, donor type, donor heavy atom, donor atom, acceptor molecule, acceptor atom, score
      P1  H  8102  8135       L1    17  1.00
      L1  H    10    23       P1  8026  1.00

> <Gold.Goldscore.Internal.Vdw.Weighted>
-0.3111

> <Gold.Goldscore.Internal.Torsion.Weighted>
-0.4449

> <Gold.Goldscore.External.Vdw.Weighted>
16.2422

> <Gold.Goldscore.Internal.HBond.Weighted>
0.0000

> <Gold.Goldscore.External.HBond.Weighted>
4.0000

> <Gold.Goldscore.Internal.Correction.Weighted>
-0.7548

> <Gold.Rescore>
     Score     S(PLP)   S(hbond)     S(cho)   S(metal)  DE(clash)   DE(tors)     intcor
     22.14     -14.24       2.65       0.00       0.00       0.00       0.02       ----

> <Gold.PLP.Fitness>
22.1427

> <Gold.PLP.PLP>
-14.2450

> <Gold.PLP.part.hbond>
-3.0000

> <Gold.PLP.part.metal>
0.0000

> <Gold.PLP.part.buried>
-2.2634

> <Gold.PLP.part.nonpolar>
-9.5550

> <Gold.PLP.part.repulsive>
0.3539

> <Gold.PLP.ligand.clash>
0.0000

> <Gold.PLP.ligand.torsion>
0.0232

> <Gold.PLP.Chemscore.Hbond>
2.6480

> <Gold.PLP.Chemscore.CHOScore>
0.0000

> <Gold.PLP.Chemscore.Metal>
0.0000

> <Gold.Chemscore.Hbonds>
donor molecule, donor type, donor heavy atom, donor atom, acceptor molecule, acceptor atom, score
      L1  H    10    23       P1  8026  0.90
      P1  H  6810  6861       L1    11  0.29
      P1  H  8102  8135       L1    17  0.71

> <Gold.PLP.Chemscore.Internal.Correction>
   9.000000E+99

