#       Name:                CT1002167954
#       Creating user name   hitesit
#       Creation time:       Sun Apr 16 20:15:46 2023


#       File generated by GOLD software.
#

@<TRIPOS>MOLECULE
CT1002167954|ligand_prepared|mol2|1|dock8
    29    30     1
SMALL
NO_CHARGES


@<TRIPOS>ATOM
      1 C1          27.5786  -9.0862   2.6402 C.3            1 RES1               0.0000
      2 C2          28.8770  -9.5125   3.3551 C.ar           1 RES1               0.0000
      3 C3          26.4675  -9.9623   3.2113 C.2            1 RES1               0.0000
      4 C4          27.4048  -7.5981   2.9230 C.2            1 RES1               0.0000
      5 C5          27.6174  -9.2797   1.1064 C.3            1 RES1               0.0000
      6 C6          30.0560  -9.6893   2.6372 C.ar           1 RES1               0.0000
      7 C7          28.9120  -9.7299   4.7300 C.ar           1 RES1               0.0000
      8 N8          25.5864  -9.3820   4.0755 N.am           1 RES1               0.0000
      9 O9          26.3893 -11.1538   2.9384 O.2            1 RES1               0.0000
     10 N10         26.3325  -7.2098   3.6827 N.am           1 RES1               0.0000
     11 O11         28.1961  -6.7599   2.5088 O.2            1 RES1               0.0000
     12 C12         26.2697  -9.0852   0.4296 C.3            1 RES1               0.0000
     13 C13         31.2282 -10.0667   3.2710 C.ar           1 RES1               0.0000
     14 C14         30.0853 -10.1075   5.3618 C.ar           1 RES1               0.0000
     15 C15         25.4326  -8.0371   4.2974 C.2            1 RES1               0.0000
     16 C16         31.2438 -10.2756   4.6336 C.ar           1 RES1               0.0000
     17 O17         24.5263  -7.6151   5.0099 O.2            1 RES1               0.0000
     18 H18         28.3334  -8.5672   0.6786 H              1 RES1               0.0000
     19 H19         27.9798 -10.2917   0.8872 H              1 RES1               0.0000
     20 H20         30.0624  -9.5318   1.5638 H              1 RES1               0.0000
     21 H21         28.0123  -9.6046   5.3229 H              1 RES1               0.0000
     22 H22         24.9863 -10.0058   4.6058 H              1 RES1               0.0000
     23 H23         26.1920  -6.2114   3.8007 H              1 RES1               0.0000
     24 H24         26.3530  -9.2324  -0.6452 H              1 RES1               0.0000
     25 H25         25.5395  -9.7948   0.8132 H              1 RES1               0.0000
     26 H26         25.8910  -8.0805   0.6058 H              1 RES1               0.0000
     27 H27         32.1370 -10.1991   2.6932 H              1 RES1               0.0000
     28 H28         30.0928 -10.2714   6.4343 H              1 RES1               0.0000
     29 H29         32.1623 -10.5709   5.1300 H              1 RES1               0.0000
@<TRIPOS>BOND
    1    1    2 1     
    2    1    3 1     
    3    1    4 1     
    4    1    5 1     
    5    2    6 ar    
    6    2    7 ar    
    7    3    8 1     
    8    3    9 2     
    9    4   10 1     
   10    4   11 2     
   11    5   12 1     
   12    5   18 1     
   13    5   19 1     
   14    6   13 ar    
   15    6   20 1     
   16    7   14 ar    
   17    7   21 1     
   18    8   15 1     
   19    8   22 1     
   20   10   15 1     
   21   10   23 1     
   22   12   24 1     
   23   12   25 1     
   24   12   26 1     
   25   13   16 ar    
   26   13   27 1     
   27   14   16 ar    
   28   14   28 1     
   29   15   17 2     
   30   16   29 1     
@<TRIPOS>SUBSTRUCTURE
      1 RES1           1
@<TRIPOS>SET
DONOR_HYDROGENS      STATIC     ATOMS    <user>   **** ""
2 22 23
ATOM$RED        STATIC     ATOMS    COLORGROUP SYSTEM
2 22 23
@<TRIPOS>COMMENT
> <Gold.Version>
2022.3.0

> <Gold.Id.Protein>
unknown|3oxt_clean|pdb

> <Gold.Protein.RotatedTorsions>
[  568  565  563  560 ] final  -90.10 input   59.99 | X-H torsion
[  590  585  584  581 ] final  170.81 input   60.02 | X-H torsion
[ 2787 2780 2778 2775 ] final -133.03 input   60.00 | X-H torsion
[ 2470 2461 2460 2458 ] final    1.50 input   59.98 | X-H torsion
[ 2545 2534 2533 2532 ] final   53.37 input   59.97 | X-H torsion
[ 1779 1770 1769 1767 ] final  -49.15 input   59.98 | X-H torsion
[ 5059 5050 5049 5047 ] final   82.14 input   60.00 | X-H torsion

> <Gold.Protein.ActiveResidues>
 THR48   LEU49   GLY50   THR51   GLY52   SER53   PHE54   GLY55   ARG56   VAL57  
 MET58   LEU59   VAL60   HIS68   TYR69   ALA70   MET71   LYS72   ILE73   LEU74  
 ASP75   VAL79   GLU91   LEU95   VAL104  LYS105  MET118  VAL119  MET120  GLU121 
 TYR122  VAL123  PRO124  GLY125  GLY126  GLU127  TYR164  ASP166  LYS168  GLU170 
 ASN171  LEU172  LEU173  ILE174  ASP175  GLN181  VAL182  THR183  ASP184  PHE185 
 GLY186  PHE327  ASP328  TYR330 

> <Gold.Protein.RotatedAtoms>
   21.3815  -13.1076    7.0918 H   0  0  0  0  0  0  0  0  0  0  0  0  # atno 568  bound_to 565 
   16.9268  -11.2723   -2.4984 H   0  0  0  0  0  0  0  0  0  0  0  0  # atno 590  bound_to 585 
   35.9384  -10.6201   10.3057 H   0  0  0  0  0  0  0  0  0  0  0  0  # atno 1779 bound_to 1770
   28.1001   -3.3216   -3.3536 H   0  0  0  0  0  0  0  0  0  0  0  0  # atno 2470 bound_to 2461
   19.4646   -3.3839    0.1928 H   0  0  0  0  0  0  0  0  0  0  0  0  # atno 2545 bound_to 2534
   20.0952   -4.9093    0.3485 H   0  0  0  0  0  0  0  0  0  0  0  0  # atno 2546 bound_to 2534
   19.6332   -4.0608    1.6957 H   0  0  0  0  0  0  0  0  0  0  0  0  # atno 2547 bound_to 2534
   30.8973   -8.2604   -0.4254 H   0  0  0  0  0  0  0  0  0  0  0  0  # atno 2787 bound_to 2780
   24.2607  -10.0496    8.3432 H   0  0  0  0  0  0  0  0  0  0  0  0  # atno 5059 bound_to 5050
   20.0373  -13.6008    6.3183 LP  0  0  0  0  0  0  0  0  0  0  0  0  # atno 5371 bound_to 565 
   20.9602  -12.4137    5.6814 LP  0  0  0  0  0  0  0  0  0  0  0  0  # atno 5372 bound_to 565 
   18.1175  -12.3629   -2.2939 LP  0  0  0  0  0  0  0  0  0  0  0  0  # atno 5375 bound_to 585 
   17.9850  -11.0940   -1.2747 LP  0  0  0  0  0  0  0  0  0  0  0  0  # atno 5376 bound_to 585 
   32.4277   -7.7953   -0.7247 LP  0  0  0  0  0  0  0  0  0  0  0  0  # atno 5395 bound_to 2780
   31.2742   -7.5996   -1.8639 LP  0  0  0  0  0  0  0  0  0  0  0  0  # atno 5396 bound_to 2780
   26.7431   -2.5863   -2.8377 LP  0  0  0  0  0  0  0  0  0  0  0  0  # atno 5401 bound_to 2461
   28.2051   -1.9536   -2.4785 LP  0  0  0  0  0  0  0  0  0  0  0  0  # atno 5402 bound_to 2461
   37.2058  -11.3519   11.0169 LP  0  0  0  0  0  0  0  0  0  0  0  0  # atno 5439 bound_to 1770
   35.9085  -12.2282   10.5524 LP  0  0  0  0  0  0  0  0  0  0  0  0  # atno 5440 bound_to 1770
   24.5527   -9.5995    9.8789 LP  0  0  0  0  0  0  0  0  0  0  0  0  # atno 5465 bound_to 5050
   23.0161   -9.7542    9.3483 LP  0  0  0  0  0  0  0  0  0  0  0  0  # atno 5466 bound_to 5050

> <Gold.Score>
     Fitness  S(hb_ext) S(vdw_ext)  S(hb_int)    S(int)      intcor
     36.01       1.21      25.78       0.00      -0.64      -0.76

> <Gold.Goldscore.Fitness>
36.0089

> <Gold.Goldscore.Internal.Vdw>
-0.8750

> <Gold.Goldscore.Internal.Torsion>
-0.5238

> <Gold.Goldscore.External.Vdw>
25.7753

> <Gold.Goldscore.Internal.HBond>
0.0000

> <Gold.Goldscore.External.HBond>
1.2114

> <Gold.Goldscore.Internal.Correction>
-0.7552

> <Gold.Goldscore.Hbonds>
donor molecule, donor type, donor heavy atom, donor atom, acceptor molecule, acceptor atom, score
      L1  H    10    23       P1  2565  0.61

> <Gold.Goldscore.Internal.Vdw.Weighted>
-0.8750

> <Gold.Goldscore.Internal.Torsion.Weighted>
-0.5238

> <Gold.Goldscore.External.Vdw.Weighted>
35.4411

> <Gold.Goldscore.Internal.HBond.Weighted>
0.0000

> <Gold.Goldscore.External.HBond.Weighted>
1.2114

> <Gold.Goldscore.Internal.Correction.Weighted>
-0.7552

> <Gold.Rescore>
     Score     S(PLP)   S(hbond)     S(cho)   S(metal)  DE(clash)   DE(tors)     intcor
     35.14     -33.32       0.90       0.00       0.00       0.00       0.43       ----

> <Gold.PLP.Fitness>
35.1413

> <Gold.PLP.PLP>
-33.3179

> <Gold.PLP.part.hbond>
-1.0000

> <Gold.PLP.part.metal>
0.0000

> <Gold.PLP.part.buried>
-0.8052

> <Gold.PLP.part.nonpolar>
-33.3927

> <Gold.PLP.part.repulsive>
1.2712

> <Gold.PLP.ligand.clash>
0.0000

> <Gold.PLP.ligand.torsion>
0.4323

> <Gold.PLP.Chemscore.Hbond>
0.8960

> <Gold.PLP.Chemscore.CHOScore>
0.0000

> <Gold.PLP.Chemscore.Metal>
0.0000

> <Gold.Chemscore.Hbonds>
donor molecule, donor type, donor heavy atom, donor atom, acceptor molecule, acceptor atom, score
      L1  H    10    23       P1  2565  1.00

> <Gold.PLP.Chemscore.Internal.Correction>
   9.000000E+99

