#       Name:                CT1002167954
#       Creating user name   hitesit
#       Creation time:       Sun Apr 16 20:15:42 2023


#       File generated by GOLD software.
#

@<TRIPOS>MOLECULE
CT1002167954|ligand_prepared|mol2|1|dock4
    29    30     1
SMALL
NO_CHARGES


@<TRIPOS>ATOM
      1 C1          21.1036  -9.6619  -2.3632 C.3            1 RES1               0.0000
      2 C2          22.1600 -10.5485  -1.6726 C.ar           1 RES1               0.0000
      3 C3          20.0250  -9.3884  -1.3191 C.2            1 RES1               0.0000
      4 C4          21.8392  -8.4142  -2.8393 C.2            1 RES1               0.0000
      5 C5          20.4399 -10.3238  -3.5932 C.3            1 RES1               0.0000
      6 C6          23.0083 -10.0172  -0.7058 C.ar           1 RES1               0.0000
      7 C7          22.2960 -11.8975  -1.9893 C.ar           1 RES1               0.0000
      8 N8          19.9798  -8.1412  -0.7692 N.am           1 RES1               0.0000
      9 O9          19.2512 -10.2652  -0.9549 O.2            1 RES1               0.0000
     10 N10         21.5087  -7.2152  -2.2641 N.am           1 RES1               0.0000
     11 O11         22.7137  -8.4609  -3.6957 O.2            1 RES1               0.0000
     12 C12         19.5245  -9.3921  -4.3715 C.3            1 RES1               0.0000
     13 C13         23.9564 -10.8066  -0.0761 C.ar           1 RES1               0.0000
     14 C14         23.2449 -12.6850  -1.3586 C.ar           1 RES1               0.0000
     15 C15         20.6340  -7.0266  -1.2288 C.2            1 RES1               0.0000
     16 C16         24.0750 -12.1410  -0.4017 C.ar           1 RES1               0.0000
     17 O17         20.4300  -5.9243  -0.7284 O.2            1 RES1               0.0000
     18 H18         21.2265 -10.6886  -4.2652 H              1 RES1               0.0000
     19 H19         19.8579 -11.1907  -3.2566 H              1 RES1               0.0000
     20 H20         22.9314  -8.9687  -0.4382 H              1 RES1               0.0000
     21 H21         21.6544 -12.3467  -2.7398 H              1 RES1               0.0000
     22 H22         19.4065  -8.0267   0.0606 H              1 RES1               0.0000
     23 H23         21.9561  -6.3864  -2.6427 H              1 RES1               0.0000
     24 H24         19.0850  -9.9062  -5.2237 H              1 RES1               0.0000
     25 H25         18.7156  -9.0300  -3.7403 H              1 RES1               0.0000
     26 H26         20.0761  -8.5309  -4.7429 H              1 RES1               0.0000
     27 H27         24.6082 -10.3733   0.6752 H              1 RES1               0.0000
     28 H28         23.3352 -13.7346  -1.6184 H              1 RES1               0.0000
     29 H29         24.8175 -12.7592   0.0919 H              1 RES1               0.0000
@<TRIPOS>BOND
    1    1    2 1     
    2    1    3 1     
    3    1    4 1     
    4    1    5 1     
    5    2    6 ar    
    6    2    7 ar    
    7    3    8 1     
    8    3    9 2     
    9    4   10 1     
   10    4   11 2     
   11    5   12 1     
   12    5   18 1     
   13    5   19 1     
   14    6   13 ar    
   15    6   20 1     
   16    7   14 ar    
   17    7   21 1     
   18    8   15 1     
   19    8   22 1     
   20   10   15 1     
   21   10   23 1     
   22   12   24 1     
   23   12   25 1     
   24   12   26 1     
   25   13   16 ar    
   26   13   27 1     
   27   14   16 ar    
   28   14   28 1     
   29   15   17 2     
   30   16   29 1     
@<TRIPOS>SUBSTRUCTURE
      1 RES1           1
@<TRIPOS>SET
DONOR_HYDROGENS      STATIC     ATOMS    <user>   **** ""
2 22 23
ATOM$RED        STATIC     ATOMS    COLORGROUP SYSTEM
2 22 23
@<TRIPOS>COMMENT
> <Gold.Version>
2022.3.0

> <Gold.Id.Protein>
unknown|3oxt_clean|pdb

> <Gold.Protein.RotatedTorsions>
[  568  565  563  560 ] final  130.85 input   59.99 | X-H torsion
[  590  585  584  581 ] final  -51.69 input   60.02 | X-H torsion
[ 2787 2780 2778 2775 ] final -123.56 input   60.00 | X-H torsion
[ 2470 2461 2460 2458 ] final   54.69 input   59.98 | X-H torsion
[ 2545 2534 2533 2532 ] final   39.64 input   59.97 | X-H torsion
[ 1779 1770 1769 1767 ] final  161.29 input   59.98 | X-H torsion
[ 5059 5050 5049 5047 ] final   36.31 input   60.00 | X-H torsion

> <Gold.Protein.ActiveResidues>
 THR48   LEU49   GLY50   THR51   GLY52   SER53   PHE54   GLY55   ARG56   VAL57  
 MET58   LEU59   VAL60   HIS68   TYR69   ALA70   MET71   LYS72   ILE73   LEU74  
 ASP75   VAL79   GLU91   LEU95   VAL104  LYS105  MET118  VAL119  MET120  GLU121 
 TYR122  VAL123  PRO124  GLY125  GLY126  GLU127  TYR164  ASP166  LYS168  GLU170 
 ASN171  LEU172  LEU173  ILE174  ASP175  GLN181  VAL182  THR183  ASP184  PHE185 
 GLY186  PHE327  ASP328  TYR330 

> <Gold.Protein.RotatedAtoms>
   20.0058  -13.4388    6.0546 H   0  0  0  0  0  0  0  0  0  0  0  0  # atno 568  bound_to 565 
   18.1732  -11.3092   -1.2766 H   0  0  0  0  0  0  0  0  0  0  0  0  # atno 590  bound_to 585 
   37.0827  -11.8150   11.0310 H   0  0  0  0  0  0  0  0  0  0  0  0  # atno 1779 bound_to 1770
   28.6043   -2.7504   -3.0039 H   0  0  0  0  0  0  0  0  0  0  0  0  # atno 2470 bound_to 2461
   19.4089   -3.2887    0.3931 H   0  0  0  0  0  0  0  0  0  0  0  0  # atno 2545 bound_to 2534
   20.0618   -4.7938    0.1538 H   0  0  0  0  0  0  0  0  0  0  0  0  # atno 2546 bound_to 2534
   19.7222   -4.2713    1.6900 H   0  0  0  0  0  0  0  0  0  0  0  0  # atno 2547 bound_to 2534
   30.7971   -8.2369   -0.5407 H   0  0  0  0  0  0  0  0  0  0  0  0  # atno 2787 bound_to 2780
   24.7961   -9.9112    8.8175 H   0  0  0  0  0  0  0  0  0  0  0  0  # atno 5059 bound_to 5050
   21.2048  -12.3548    5.8658 LP  0  0  0  0  0  0  0  0  0  0  0  0  # atno 5371 bound_to 565 
   21.1777  -13.3263    7.1781 LP  0  0  0  0  0  0  0  0  0  0  0  0  # atno 5372 bound_to 565 
   16.9351  -11.0629   -2.3039 LP  0  0  0  0  0  0  0  0  0  0  0  0  # atno 5375 bound_to 585 
   17.9127  -12.3569   -2.4946 LP  0  0  0  0  0  0  0  0  0  0  0  0  # atno 5376 bound_to 585 
   32.3793   -7.8597   -0.5915 LP  0  0  0  0  0  0  0  0  0  0  0  0  # atno 5395 bound_to 2780
   31.4234   -7.5589   -1.8809 LP  0  0  0  0  0  0  0  0  0  0  0  0  # atno 5396 bound_to 2780
   27.0730   -3.2361   -3.2636 LP  0  0  0  0  0  0  0  0  0  0  0  0  # atno 5401 bound_to 2461
   27.3676   -1.8789   -2.4047 LP  0  0  0  0  0  0  0  0  0  0  0  0  # atno 5402 bound_to 2461
   35.6038  -11.9099   10.3592 LP  0  0  0  0  0  0  0  0  0  0  0  0  # atno 5439 bound_to 1770
   36.3580  -10.4666   10.4796 LP  0  0  0  0  0  0  0  0  0  0  0  0  # atno 5440 bound_to 1770
   23.8517   -9.5383   10.0885 LP  0  0  0  0  0  0  0  0  0  0  0  0  # atno 5465 bound_to 5050
   23.1775   -9.9548    8.6606 LP  0  0  0  0  0  0  0  0  0  0  0  0  # atno 5466 bound_to 5050

> <Gold.Score>
     Fitness  S(hb_ext) S(vdw_ext)  S(hb_int)    S(int)      intcor
     42.65      13.58      21.14       0.00      -0.01      -0.76

> <Gold.Goldscore.Fitness>
42.6450

> <Gold.Goldscore.Internal.Vdw>
-0.3178

> <Gold.Goldscore.Internal.Torsion>
-0.4428

> <Gold.Goldscore.External.Vdw>
21.1441

> <Gold.Goldscore.Internal.HBond>
0.0000

> <Gold.Goldscore.External.HBond>
13.5772

> <Gold.Goldscore.Internal.Correction>
-0.7552

> <Gold.Goldscore.Hbonds>
donor molecule, donor type, donor heavy atom, donor atom, acceptor molecule, acceptor atom, score
      P1  H   580   586       L1     9  0.94
      P1  H   585   590       L1     9  0.24
      P1  H  2534  2546       L1    17  0.96
      L1  H    10    23       P1  2502  0.91

> <Gold.Goldscore.Internal.Vdw.Weighted>
-0.3178

> <Gold.Goldscore.Internal.Torsion.Weighted>
-0.4428

> <Gold.Goldscore.External.Vdw.Weighted>
29.0731

> <Gold.Goldscore.Internal.HBond.Weighted>
0.0000

> <Gold.Goldscore.External.HBond.Weighted>
13.5772

> <Gold.Goldscore.Internal.Correction.Weighted>
-0.7552

> <Gold.Rescore>
     Score     S(PLP)   S(hbond)     S(cho)   S(metal)  DE(clash)   DE(tors)     intcor
     44.38     -33.75       3.60       0.00       0.00       0.00       0.08       ----

> <Gold.PLP.Fitness>
44.3786

> <Gold.PLP.PLP>
-33.7504

> <Gold.PLP.part.hbond>
-4.8997

> <Gold.PLP.part.metal>
0.0000

> <Gold.PLP.part.buried>
-1.9987

> <Gold.PLP.part.nonpolar>
-28.2182

> <Gold.PLP.part.repulsive>
0.7904

> <Gold.PLP.ligand.clash>
0.0000

> <Gold.PLP.ligand.torsion>
0.0788

> <Gold.PLP.Chemscore.Hbond>
3.5953

> <Gold.PLP.Chemscore.CHOScore>
0.0000

> <Gold.PLP.Chemscore.Metal>
0.0000

> <Gold.Chemscore.Hbonds>
donor molecule, donor type, donor heavy atom, donor atom, acceptor molecule, acceptor atom, score
      L1  H    10    23       P1  2502  1.00
      P1  H   580   586       L1     9  1.00
      P1  H   585   590       L1     9  0.83
      P1  H  2534  2546       L1    17  0.70

> <Gold.PLP.Chemscore.Internal.Correction>
   9.000000E+99

