#       Name:                CT1002167954
#       Creating user name   hitesit
#       Creation time:       Sun Apr 16 20:16:28 2023


#       File generated by GOLD software.
#

@<TRIPOS>MOLECULE
CT1002167954|ligand_prepared|mol2|1|dock3
    29    30     1
SMALL
NO_CHARGES


@<TRIPOS>ATOM
      1 C1          -5.0834 -16.4073  18.5259 C.3            1 RES1               0.0000
      2 C2          -5.2912 -17.9353  18.5541 C.ar           1 RES1               0.0000
      3 C3          -6.4719 -15.7884  18.3939 C.2            1 RES1               0.0000
      4 C4          -4.3640 -16.0506  19.8220 C.2            1 RES1               0.0000
      5 C5          -4.2128 -15.9168  17.3457 C.3            1 RES1               0.0000
      6 C6          -4.4806 -18.7747  17.7959 C.ar           1 RES1               0.0000
      7 C7          -6.2858 -18.5192  19.3341 C.ar           1 RES1               0.0000
      8 N8          -7.0042 -15.1893  19.4974 N.am           1 RES1               0.0000
      9 O9          -7.1065 -15.8597  17.3487 O.2            1 RES1               0.0000
     10 N10         -5.0324 -15.2787  20.7359 N.am           1 RES1               0.0000
     11 O11         -3.2306 -16.4448  20.0674 O.2            1 RES1               0.0000
     12 C12         -4.1379 -14.4027  17.2268 C.3            1 RES1               0.0000
     13 C13         -4.6559 -20.1484  17.8188 C.ar           1 RES1               0.0000
     14 C14         -6.4595 -19.8932  19.3554 C.ar           1 RES1               0.0000
     15 C15         -6.3312 -14.8575  20.6457 C.2            1 RES1               0.0000
     16 C16         -5.6451 -20.7086  18.5988 C.ar           1 RES1               0.0000
     17 O17         -6.8800 -14.2120  21.5341 O.2            1 RES1               0.0000
     18 H18         -3.1968 -16.3120  17.4682 H              1 RES1               0.0000
     19 H19         -4.6208 -16.3244  16.4126 H              1 RES1               0.0000
     20 H20         -3.6986 -18.3519  17.1741 H              1 RES1               0.0000
     21 H21         -6.9390 -17.8972  19.9366 H              1 RES1               0.0000
     22 H22         -7.9942 -14.9675  19.4659 H              1 RES1               0.0000
     23 H23         -4.5137 -14.9913  21.5598 H              1 RES1               0.0000
     24 H24         -3.5152 -14.1124  16.3832 H              1 RES1               0.0000
     25 H25         -5.1286 -13.9779  17.0786 H              1 RES1               0.0000
     26 H26         -3.7130 -13.9656  18.1280 H              1 RES1               0.0000
     27 H27         -4.0132 -20.7857  17.2204 H              1 RES1               0.0000
     28 H28         -7.2397 -20.3297  19.9703 H              1 RES1               0.0000
     29 H29         -5.7819 -21.7848  18.6169 H              1 RES1               0.0000
@<TRIPOS>BOND
    1    1    2 1     
    2    1    3 1     
    3    1    4 1     
    4    1    5 1     
    5    2    6 ar    
    6    2    7 ar    
    7    3    8 1     
    8    3    9 2     
    9    4   10 1     
   10    4   11 2     
   11    5   12 1     
   12    5   18 1     
   13    5   19 1     
   14    6   13 ar    
   15    6   20 1     
   16    7   14 ar    
   17    7   21 1     
   18    8   15 1     
   19    8   22 1     
   20   10   15 1     
   21   10   23 1     
   22   12   24 1     
   23   12   25 1     
   24   12   26 1     
   25   13   16 ar    
   26   13   27 1     
   27   14   16 ar    
   28   14   28 1     
   29   15   17 2     
   30   16   29 1     
@<TRIPOS>SUBSTRUCTURE
      1 RES1           1
@<TRIPOS>SET
DONOR_HYDROGENS      STATIC     ATOMS    <user>   **** ""
2 22 23
ATOM$RED        STATIC     ATOMS    COLORGROUP SYSTEM
2 22 23
@<TRIPOS>COMMENT
> <Gold.Version>
2022.3.0

> <Gold.Id.Protein>
unknown|3mvj_clean|pdb

> <Gold.Protein.RotatedTorsions>
[ 1772 1742 1743 1744 ] final -102.26 input   69.76 | X-H torsion
[ 1801 1791 1792 1793 ] final -121.41 input  -10.55 | X-H torsion
[ 1832 1818 1819 1820 ] final  -71.51 input   43.70 | X-H torsion
[ 2090 2067 2068 2069 ] final -162.06 input   63.04 | X-H torsion
[ 2143 2117 2118 2119 ] final   16.55 input   55.90 | X-H torsion
[ 5638 5617 5618 5619 ] final   82.37 input   93.34 | X-H torsion
[ 7894 7874 7875 7876 ] final   32.87 input   68.03 | X-H torsion
[ 7946 7916 7917 7918 ] final  177.84 input   66.66 | X-H torsion
[ 8490 8469 8467 8464 ] final -109.69 input   59.99 | X-H torsion
[ 15476 15466 15465 15463 ] final -145.22 input   60.00 | X-H torsion
[ 8003 7973 7974 7975 ] final -153.26 input   84.71 | X-H torsion
[ 8484 8463 8464 8465 ] final   95.24 input   59.21 | X-H torsion
[ 8523 8507 8508 8509 ] final   -0.43 input -104.23 | X-H torsion
[ 2825 2803 2804 2805 ] final  -61.42 input  103.27 | X-H torsion
[ 2197 2168 2169 2170 ] final   62.95 input  106.62 | X-H torsion
[ 2728 2714 2715 2716 ] final  133.68 input   74.66 | X-H torsion
[ 2776 2750 2751 2752 ] final -177.81 input   68.39 | X-H torsion
[ 5506 5481 5482 5483 ] final  -70.44 input   57.83 | X-H torsion
[ 5596 5586 5587 5588 ] final -170.85 input -104.43 | X-H torsion
[ 5456 5428 5429 5430 ] final  -30.47 input  113.20 | X-H torsion
[ 5464 5439 5438 5436 ] final  125.84 input   59.99 | X-H torsion
[ 5575 5565 5566 5567 ] final   -1.35 input  101.53 | X-H torsion
[ 5392 5377 5378 5379 ] final  -53.10 input  130.34 | X-H torsion
[ 8060 8030 8031 8032 ] final  -56.84 input   72.86 | X-H torsion
[ 2686 2665 2666 2667 ] final  -76.62 input   26.41 | X-H torsion
[ 5343 5324 5325 5326 ] final -124.89 input   62.58 | X-H torsion
[ 4538 4515 4516 4517 ] final  141.54 input  130.34 | X-H torsion
[ 4602 4567 4568 4569 ] final   81.83 input  104.80 | X-H torsion
[ 5305 5274 5275 5276 ] final  -86.74 input   71.10 | X-H torsion
[ 8578 8549 8550 8551 ] final   57.52 input   74.91 | X-H torsion
[ 1861 1854 1855 1856 ] final   -8.81 input   57.50 | X-H torsion
[ 15411 15403 15404 15405 ] final   12.63 input  102.24 | X-H torsion
[ 2878 2867 2868 2869 ] final   76.90 input   60.34 | X-H torsion
[ 16459 1745 1744 1743 ] final   -7.72 input    0.00 | X-H torsion
[ 16462 1794 1793 1792 ] final  -67.78 input   -0.00 | X-H torsion
[ 16466 2070 2069 2068 ] final  -32.47 input    0.00 | X-H torsion
[ 16474 7834 7833 7832 ] final   67.13 input    0.00 | X-H torsion
[ 16477 7877 7876 7875 ] final   84.12 input    0.00 | X-H torsion
[ 16486 7919 7918 7917 ] final -128.10 input    0.00 | X-H torsion
[ 16490 8466 8465 8464 ] final  107.79 input    0.00 | X-H torsion
[ 16495 2717 2716 2715 ] final  -79.21 input    0.00 | X-H torsion
[ 16498 5484 5483 5482 ] final   98.02 input    0.00 | X-H torsion
[ 16500 2120 2119 2118 ] final   -4.46 input    0.00 | X-H torsion
[ 16505 2753 2752 2751 ] final -147.95 input    0.00 | X-H torsion
[ 16507 5380 5379 5378 ] final  165.64 input    0.00 | X-H torsion
[ 16510 1701 1700 1699 ] final  -49.43 input   -0.00 | X-H torsion
[ 16513 5589 5588 5587 ] final -155.01 input    0.00 | X-H torsion
[ 16515 2668 2667 2666 ] final  -88.80 input    0.00 | X-H torsion
[ 16517 5327 5326 5325 ] final  -74.80 input   -0.00 | X-H torsion
[ 16520 5431 5430 5429 ] final   59.63 input    0.00 | X-H torsion
[ 16525 5532 5531 5530 ] final   22.24 input   -0.00 | X-H torsion
[ 16530 8033 8032 8031 ] final   46.33 input    0.00 | X-H torsion
[ 16534 8371 8370 8369 ] final   96.78 input    0.00 | X-H torsion
[ 16536 4570 4569 4568 ] final  -59.17 input    0.00 | X-H torsion
[ 16539 4518 4517 4516 ] final   79.83 input    0.00 | X-H torsion
[ 16542 5228 5227 5226 ] final  -28.28 input    0.00 | X-H torsion
[ 16544 5277 5276 5275 ] final    3.02 input    0.00 | X-H torsion
[ 16548 8418 8417 8416 ] final    8.39 input    0.00 | X-H torsion
[ 16551 2006 2005 2004 ] final   37.85 input    0.00 | X-H torsion
[ 16556 1821 1820 1819 ] final -125.53 input    0.00 | X-H torsion

> <Gold.Protein.ActiveResidues>
 THR48   LEU49   GLY50   THR51   GLY52   ARG56   VAL57   MET58   LEU59   TYR69  
 ALA70   MET71   LYS72   ILE73   GLU91   LEU95   VAL104  LYS105  LEU106  MET118 
 VAL119  MET120  GLU121  TYR122  VAL123  PRO124  GLY125  GLY126  GLU127  GLU170 
 ASN171  LEU172  LEU173  ILE174  ASP175  GLN181  VAL182  THR183  ASP184  PHE185 
 ASN326  PHE327  ASP328  TYR330 

> <Gold.Protein.RotatedAtoms>
    3.8148  -14.2022   20.4268 H   0  0  0  0  0  0  0  0  0  0  0  0  # atno 1772 bound_to 1742
    1.2129  -13.3102   21.0825 H   0  0  0  0  0  0  0  0  0  0  0  0  # atno 1801 bound_to 1791
   -1.4696  -14.6109   23.7457 H   0  0  0  0  0  0  0  0  0  0  0  0  # atno 1832 bound_to 1818
   -1.8701  -16.2256   27.5289 H   0  0  0  0  0  0  0  0  0  0  0  0  # atno 1861 bound_to 1854
   -0.1987  -19.1573   23.1129 H   0  0  0  0  0  0  0  0  0  0  0  0  # atno 2090 bound_to 2067
    2.1350  -19.8910   19.4487 H   0  0  0  0  0  0  0  0  0  0  0  0  # atno 2143 bound_to 2117
    5.4474  -17.6197   17.9880 H   0  0  0  0  0  0  0  0  0  0  0  0  # atno 2197 bound_to 2168
    4.8320  -21.0399   11.1418 H   0  0  0  0  0  0  0  0  0  0  0  0  # atno 2686 bound_to 2665
    1.4821  -21.2193   12.9955 H   0  0  0  0  0  0  0  0  0  0  0  0  # atno 2728 bound_to 2714
    2.3251  -22.3962   16.2417 H   0  0  0  0  0  0  0  0  0  0  0  0  # atno 2776 bound_to 2750
    1.0544  -23.1847   19.6631 H   0  0  0  0  0  0  0  0  0  0  0  0  # atno 2825 bound_to 2803
    0.4417  -22.4889   23.1521 H   0  0  0  0  0  0  0  0  0  0  0  0  # atno 2878 bound_to 2867
   -9.1894  -21.7725   11.1070 H   0  0  0  0  0  0  0  0  0  0  0  0  # atno 4538 bound_to 4515
   -5.7636  -24.2147    9.4108 H   0  0  0  0  0  0  0  0  0  0  0  0  # atno 4602 bound_to 4567
   -0.9603  -26.7496   17.5186 H   0  0  0  0  0  0  0  0  0  0  0  0  # atno 5305 bound_to 5274
   -0.4831  -25.9197   14.7571 H   0  0  0  0  0  0  0  0  0  0  0  0  # atno 5343 bound_to 5324
   -0.9081  -23.9255   11.9440 H   0  0  0  0  0  0  0  0  0  0  0  0  # atno 5392 bound_to 5377
   -0.5027  -21.2701    9.9915 H   0  0  0  0  0  0  0  0  0  0  0  0  # atno 5456 bound_to 5428
    4.5491  -13.7094   11.5941 H   0  0  0  0  0  0  0  0  0  0  0  0  # atno 5464 bound_to 5439
    0.1437  -17.8849    9.9786 H   0  0  0  0  0  0  0  0  0  0  0  0  # atno 5506 bound_to 5481
   -0.9973  -12.6350    9.5162 H   0  0  0  0  0  0  0  0  0  0  0  0  # atno 5575 bound_to 5565
   -1.2130  -11.1773   10.7941 H   0  0  0  0  0  0  0  0  0  0  0  0  # atno 5596 bound_to 5586
   -3.9999   -9.5627   14.0887 H   0  0  0  0  0  0  0  0  0  0  0  0  # atno 5638 bound_to 5617
  -10.8200  -12.4472   16.9243 H   0  0  0  0  0  0  0  0  0  0  0  0  # atno 7894 bound_to 7874
  -11.0136  -13.8703   15.5024 H   0  0  0  0  0  0  0  0  0  0  0  0  # atno 7946 bound_to 7916
   -8.4847  -14.0070   13.1565 H   0  0  0  0  0  0  0  0  0  0  0  0  # atno 8003 bound_to 7973
   -6.4323  -13.5757    9.8292 H   0  0  0  0  0  0  0  0  0  0  0  0  # atno 8060 bound_to 8030
   -9.5428  -18.0419   14.1963 H   0  0  0  0  0  0  0  0  0  0  0  0  # atno 8484 bound_to 8463
   -7.4468  -17.2540   15.2289 H   0  0  0  0  0  0  0  0  0  0  0  0  # atno 8490 bound_to 8469
   -9.8979  -20.9148   16.9742 H   0  0  0  0  0  0  0  0  0  0  0  0  # atno 8523 bound_to 8507
  -10.0203  -22.9837   19.5011 H   0  0  0  0  0  0  0  0  0  0  0  0  # atno 8578 bound_to 8549
    1.8253   -8.8204   17.7562 H   0  0  0  0  0  0  0  0  0  0  0  0  # atno 15411 bound_to 15403
   -1.9477   -9.3729   22.1428 H   0  0  0  0  0  0  0  0  0  0  0  0  # atno 15476 bound_to 15466
    2.9468  -15.6965   20.1505 LP  0  0  0  0  0  0  0  0  0  0  0  0  # atno 16458 bound_to 1742
   -0.0990  -12.7151   18.6246 LP  0  0  0  0  0  0  0  0  0  0  0  0  # atno 16459 bound_to 1745
   -1.0967  -13.0388   20.0029 LP  0  0  0  0  0  0  0  0  0  0  0  0  # atno 16460 bound_to 1745
    0.9493  -15.0392   21.0040 LP  0  0  0  0  0  0  0  0  0  0  0  0  # atno 16461 bound_to 1791
   -0.1253  -16.6357   22.9595 LP  0  0  0  0  0  0  0  0  0  0  0  0  # atno 16462 bound_to 1794
    1.0831  -15.9282   23.9789 LP  0  0  0  0  0  0  0  0  0  0  0  0  # atno 16463 bound_to 1794
   -0.4238  -13.4312   24.5038 LP  0  0  0  0  0  0  0  0  0  0  0  0  # atno 16464 bound_to 1818
    0.9747  -17.8699   22.9163 LP  0  0  0  0  0  0  0  0  0  0  0  0  # atno 16465 bound_to 2067
    1.3954  -16.5341   20.8528 LP  0  0  0  0  0  0  0  0  0  0  0  0  # atno 16466 bound_to 2070
    3.0844  -16.9080   20.9398 LP  0  0  0  0  0  0  0  0  0  0  0  0  # atno 16467 bound_to 2070
    2.3933  -18.8875   20.8593 LP  0  0  0  0  0  0  0  0  0  0  0  0  # atno 16468 bound_to 2117
   -4.2523  -10.6626   12.7490 LP  0  0  0  0  0  0  0  0  0  0  0  0  # atno 16469 bound_to 5617
   -7.6154  -12.9986   18.8586 LP  0  0  0  0  0  0  0  0  0  0  0  0  # atno 16474 bound_to 7834
   -7.5235  -13.1084   17.1324 LP  0  0  0  0  0  0  0  0  0  0  0  0  # atno 16475 bound_to 7834
   -9.6476  -12.6110   18.2053 LP  0  0  0  0  0  0  0  0  0  0  0  0  # atno 16476 bound_to 7874
  -11.2526  -16.2739   15.2348 LP  0  0  0  0  0  0  0  0  0  0  0  0  # atno 16477 bound_to 7877
   -9.5573  -16.3592   14.8906 LP  0  0  0  0  0  0  0  0  0  0  0  0  # atno 16478 bound_to 7877
   -9.3755  -13.2914   15.3233 LP  0  0  0  0  0  0  0  0  0  0  0  0  # atno 16479 bound_to 7916
   -7.2729  -17.6155   16.8061 LP  0  0  0  0  0  0  0  0  0  0  0  0  # atno 16480 bound_to 8469
   -8.7626  -17.5478   16.1406 LP  0  0  0  0  0  0  0  0  0  0  0  0  # atno 16481 bound_to 8469
   -1.9910  -10.9257   21.6587 LP  0  0  0  0  0  0  0  0  0  0  0  0  # atno 16484 bound_to 15466
   -1.2696   -9.7963   20.7257 LP  0  0  0  0  0  0  0  0  0  0  0  0  # atno 16485 bound_to 15466
   -8.4596  -11.5639   12.0579 LP  0  0  0  0  0  0  0  0  0  0  0  0  # atno 16486 bound_to 7919
   -8.6080  -11.6497   13.7815 LP  0  0  0  0  0  0  0  0  0  0  0  0  # atno 16487 bound_to 7919
   -9.0647  -14.5611   11.6070 LP  0  0  0  0  0  0  0  0  0  0  0  0  # atno 16488 bound_to 7973
  -10.5983  -19.4027   13.8786 LP  0  0  0  0  0  0  0  0  0  0  0  0  # atno 16489 bound_to 8463
  -11.7405  -19.1699   16.9338 LP  0  0  0  0  0  0  0  0  0  0  0  0  # atno 16490 bound_to 8466
  -10.6024  -17.8642   16.9435 LP  0  0  0  0  0  0  0  0  0  0  0  0  # atno 16491 bound_to 8466
   -8.5143  -19.9432   17.4571 LP  0  0  0  0  0  0  0  0  0  0  0  0  # atno 16492 bound_to 8507
   -0.5926  -22.9188   15.9107 LP  0  0  0  0  0  0  0  0  0  0  0  0  # atno 16495 bound_to 2717
    0.6945  -23.9669   15.4160 LP  0  0  0  0  0  0  0  0  0  0  0  0  # atno 16496 bound_to 2717
   -0.4440  -23.6632   18.8889 LP  0  0  0  0  0  0  0  0  0  0  0  0  # atno 16497 bound_to 2803
   -0.3360  -14.7160   11.4668 LP  0  0  0  0  0  0  0  0  0  0  0  0  # atno 16498 bound_to 5484
   -1.8929  -14.1548   10.9557 LP  0  0  0  0  0  0  0  0  0  0  0  0  # atno 16499 bound_to 5484
    3.3356  -20.7882   17.8801 LP  0  0  0  0  0  0  0  0  0  0  0  0  # atno 16500 bound_to 2120
    3.8768  -20.1720   16.3545 LP  0  0  0  0  0  0  0  0  0  0  0  0  # atno 16501 bound_to 2120
    3.9699  -18.3959   17.4745 LP  0  0  0  0  0  0  0  0  0  0  0  0  # atno 16502 bound_to 2168
    2.5906  -22.2906   13.8184 LP  0  0  0  0  0  0  0  0  0  0  0  0  # atno 16503 bound_to 2714
    1.6269  -21.3263   17.4389 LP  0  0  0  0  0  0  0  0  0  0  0  0  # atno 16504 bound_to 2750
    1.7946  -22.1878   21.1450 LP  0  0  0  0  0  0  0  0  0  0  0  0  # atno 16505 bound_to 2753
    2.5396  -21.4734   19.7542 LP  0  0  0  0  0  0  0  0  0  0  0  0  # atno 16506 bound_to 2753
   -1.4311  -20.1159   11.7334 LP  0  0  0  0  0  0  0  0  0  0  0  0  # atno 16507 bound_to 5380
   -2.5922  -21.2991   11.2315 LP  0  0  0  0  0  0  0  0  0  0  0  0  # atno 16508 bound_to 5380
   -1.1980  -18.0756   11.0857 LP  0  0  0  0  0  0  0  0  0  0  0  0  # atno 16509 bound_to 5481
    4.7775  -12.3811   20.9633 LP  0  0  0  0  0  0  0  0  0  0  0  0  # atno 16510 bound_to 1701
    4.3381  -12.5932   19.3014 LP  0  0  0  0  0  0  0  0  0  0  0  0  # atno 16511 bound_to 1701
   -2.8717  -11.2151   10.2409 LP  0  0  0  0  0  0  0  0  0  0  0  0  # atno 16512 bound_to 5586
   -5.8079  -10.7129   11.4067 LP  0  0  0  0  0  0  0  0  0  0  0  0  # atno 16513 bound_to 5589
   -4.4843  -11.6295   10.7680 LP  0  0  0  0  0  0  0  0  0  0  0  0  # atno 16514 bound_to 5589
    4.5573  -21.2708   14.8143 LP  0  0  0  0  0  0  0  0  0  0  0  0  # atno 16515 bound_to 2668
    4.2069  -19.8998   13.8155 LP  0  0  0  0  0  0  0  0  0  0  0  0  # atno 16516 bound_to 2668
    0.3976  -22.6160   12.9585 LP  0  0  0  0  0  0  0  0  0  0  0  0  # atno 16517 bound_to 5327
    1.0903  -23.8878   12.0085 LP  0  0  0  0  0  0  0  0  0  0  0  0  # atno 16518 bound_to 5327
    1.1286  -21.6506   10.4874 LP  0  0  0  0  0  0  0  0  0  0  0  0  # atno 16519 bound_to 5428
   -0.7569  -19.8760    8.2740 LP  0  0  0  0  0  0  0  0  0  0  0  0  # atno 16520 bound_to 5431
   -0.0534  -18.3605    7.8173 LP  0  0  0  0  0  0  0  0  0  0  0  0  # atno 16521 bound_to 5431
    3.1841  -13.5306   12.4613 LP  0  0  0  0  0  0  0  0  0  0  0  0  # atno 16522 bound_to 5439
    3.1915  -13.1877   10.8647 LP  0  0  0  0  0  0  0  0  0  0  0  0  # atno 16523 bound_to 5439
    1.8036  -11.4707    9.8218 LP  0  0  0  0  0  0  0  0  0  0  0  0  # atno 16525 bound_to 5532
    0.3178  -10.6293   10.1120 LP  0  0  0  0  0  0  0  0  0  0  0  0  # atno 16526 bound_to 5532
   -0.6330  -12.5199    7.8071 LP  0  0  0  0  0  0  0  0  0  0  0  0  # atno 16527 bound_to 5565
   -2.2613  -24.4198   10.9543 LP  0  0  0  0  0  0  0  0  0  0  0  0  # atno 16528 bound_to 5377
   -6.4420  -11.8788   10.2588 LP  0  0  0  0  0  0  0  0  0  0  0  0  # atno 16529 bound_to 8030
   -3.9230  -12.4468    8.7157 LP  0  0  0  0  0  0  0  0  0  0  0  0  # atno 16530 bound_to 8033
   -3.5102  -12.2900    7.0409 LP  0  0  0  0  0  0  0  0  0  0  0  0  # atno 16531 bound_to 8033
    5.6418  -22.4206   11.8481 LP  0  0  0  0  0  0  0  0  0  0  0  0  # atno 16532 bound_to 2665
   -0.1061  -24.2217   14.8646 LP  0  0  0  0  0  0  0  0  0  0  0  0  # atno 16533 bound_to 5324
   -9.9738  -16.0515   11.7341 LP  0  0  0  0  0  0  0  0  0  0  0  0  # atno 16534 bound_to 8371
   -8.5354  -16.9525   12.0794 LP  0  0  0  0  0  0  0  0  0  0  0  0  # atno 16535 bound_to 8371
   -3.4493  -25.3982   10.7409 LP  0  0  0  0  0  0  0  0  0  0  0  0  # atno 16536 bound_to 4570
   -4.2308  -25.3677   12.2863 LP  0  0  0  0  0  0  0  0  0  0  0  0  # atno 16537 bound_to 4570
   -9.5301  -23.0850   10.0100 LP  0  0  0  0  0  0  0  0  0  0  0  0  # atno 16538 bound_to 4515
   -9.0308  -25.3796   10.9889 LP  0  0  0  0  0  0  0  0  0  0  0  0  # atno 16539 bound_to 4518
   -7.7637  -25.5462   12.1580 LP  0  0  0  0  0  0  0  0  0  0  0  0  # atno 16540 bound_to 4518
   -7.2916  -24.7202   10.1141 LP  0  0  0  0  0  0  0  0  0  0  0  0  # atno 16541 bound_to 4567
   -1.3011  -25.0669   18.8948 LP  0  0  0  0  0  0  0  0  0  0  0  0  # atno 16542 bound_to 5228
    0.1689  -25.0434   17.9790 LP  0  0  0  0  0  0  0  0  0  0  0  0  # atno 16543 bound_to 5228
   -0.5929  -28.1012   14.3387 LP  0  0  0  0  0  0  0  0  0  0  0  0  # atno 16544 bound_to 5277
   -1.2811  -26.9781   13.2140 LP  0  0  0  0  0  0  0  0  0  0  0  0  # atno 16545 bound_to 5277
  -10.3523  -21.0176   12.0279 LP  0  0  0  0  0  0  0  0  0  0  0  0  # atno 16548 bound_to 8418
   -9.6094  -21.3206   13.5629 LP  0  0  0  0  0  0  0  0  0  0  0  0  # atno 16549 bound_to 8418
   -0.2743  -28.2284   16.8888 LP  0  0  0  0  0  0  0  0  0  0  0  0  # atno 16550 bound_to 5274
   -0.0915  -21.3055   23.9849 LP  0  0  0  0  0  0  0  0  0  0  0  0  # atno 16551 bound_to 2006
    0.9974  -21.1226   22.6504 LP  0  0  0  0  0  0  0  0  0  0  0  0  # atno 16552 bound_to 2006
  -11.0618  -21.7419   18.8583 LP  0  0  0  0  0  0  0  0  0  0  0  0  # atno 16555 bound_to 8549
   -3.3726  -13.4801   27.3696 LP  0  0  0  0  0  0  0  0  0  0  0  0  # atno 16556 bound_to 1821
   -3.3040  -13.4762   25.6390 LP  0  0  0  0  0  0  0  0  0  0  0  0  # atno 16557 bound_to 1821
   -2.9286  -15.8662   26.1758 LP  0  0  0  0  0  0  0  0  0  0  0  0  # atno 16558 bound_to 1854

> <Gold.Score>
     Fitness  S(hb_ext) S(vdw_ext)  S(hb_int)    S(int)      intcor
     36.64       6.00      22.83       0.00      -0.76      -0.77

> <Gold.Goldscore.Fitness>
36.6362

> <Gold.Goldscore.Internal.Vdw>
-1.0903

> <Gold.Goldscore.Internal.Torsion>
-0.4395

> <Gold.Goldscore.External.Vdw>
22.8345

> <Gold.Goldscore.Internal.HBond>
0.0000

> <Gold.Goldscore.External.HBond>
6.0000

> <Gold.Goldscore.Internal.Correction>
-0.7686

> <Gold.Goldscore.Hbonds>
donor molecule, donor type, donor heavy atom, donor atom, acceptor molecule, acceptor atom, score
      L1  H     8    22       P1  7881  1.00

> <Gold.Goldscore.Internal.Vdw.Weighted>
-1.0903

> <Gold.Goldscore.Internal.Torsion.Weighted>
-0.4395

> <Gold.Goldscore.External.Vdw.Weighted>
31.3974

> <Gold.Goldscore.Internal.HBond.Weighted>
0.0000

> <Gold.Goldscore.External.HBond.Weighted>
6.0000

> <Gold.Goldscore.Internal.Correction.Weighted>
-0.7686

> <Gold.Rescore>
     Score     S(PLP)   S(hbond)     S(cho)   S(metal)  DE(clash)   DE(tors)     intcor
     34.83     -34.27       0.86       0.00       0.00       0.00       1.01       ----

> <Gold.PLP.Fitness>
34.8292

> <Gold.PLP.PLP>
-34.2700

> <Gold.PLP.part.hbond>
-2.6410

> <Gold.PLP.part.metal>
0.0000

> <Gold.PLP.part.buried>
-2.5114

> <Gold.PLP.part.nonpolar>
-31.8831

> <Gold.PLP.part.repulsive>
0.5356

> <Gold.PLP.ligand.clash>
0.0000

> <Gold.PLP.ligand.torsion>
1.0090

> <Gold.PLP.Chemscore.Hbond>
0.8590

> <Gold.PLP.Chemscore.CHOScore>
0.0000

> <Gold.PLP.Chemscore.Metal>
0.0000

> <Gold.Chemscore.Hbonds>
donor molecule, donor type, donor heavy atom, donor atom, acceptor molecule, acceptor atom, score
      L1  H     8    22       P1  7881  1.00

> <Gold.PLP.Chemscore.Internal.Correction>
   9.000000E+99

