#       Name:                CT1002167954
#       Creating user name   hitesit
#       Creation time:       Sun Apr 16 20:16:33 2023


#       File generated by GOLD software.
#

@<TRIPOS>MOLECULE
CT1002167954|ligand_prepared|mol2|1|dock7
    29    30     1
SMALL
NO_CHARGES


@<TRIPOS>ATOM
      1 C1          -4.7338 -15.9392  18.8927 C.3            1 RES1               0.0000
      2 C2          -4.7491 -17.3759  18.3319 C.ar           1 RES1               0.0000
      3 C3          -3.4273 -15.7956  19.6676 C.2            1 RES1               0.0000
      4 C4          -4.8486 -15.0102  17.6892 C.2            1 RES1               0.0000
      5 C5          -5.9088 -15.6294  19.8492 C.3            1 RES1               0.0000
      6 C6          -4.0346 -17.6949  17.1810 C.ar           1 RES1               0.0000
      7 C7          -5.4694 -18.3916  18.9547 C.ar           1 RES1               0.0000
      8 N8          -2.4368 -15.0472  19.1031 N.am           1 RES1               0.0000
      9 O9          -3.2543 -16.3629  20.7393 O.2            1 RES1               0.0000
     10 N10         -3.7813 -14.2016  17.3981 N.am           1 RES1               0.0000
     11 O11         -5.8472 -14.9832  16.9804 O.2            1 RES1               0.0000
     12 C12         -6.1191 -14.1446  20.1012 C.3            1 RES1               0.0000
     13 C13         -4.0377 -18.9834  16.6728 C.ar           1 RES1               0.0000
     14 C14         -5.4714 -19.6794  18.4447 C.ar           1 RES1               0.0000
     15 C15         -2.5688 -14.2001  18.0323 C.2            1 RES1               0.0000
     16 C16         -4.7556 -19.9765  17.3044 C.ar           1 RES1               0.0000
     17 O17         -1.6384 -13.4819  17.6778 O.2            1 RES1               0.0000
     18 H18         -6.8293 -16.0494  19.4253 H              1 RES1               0.0000
     19 H19         -5.7238 -16.1276  20.8088 H              1 RES1               0.0000
     20 H20         -3.4658 -16.9260  16.6689 H              1 RES1               0.0000
     21 H21         -6.0407 -18.1807  19.8524 H              1 RES1               0.0000
     22 H22         -1.5124 -15.1246  19.5152 H              1 RES1               0.0000
     23 H23         -3.9019 -13.5393  16.6384 H              1 RES1               0.0000
     24 H24         -6.9551 -13.9830  20.7784 H              1 RES1               0.0000
     25 H25         -5.2316 -13.6994  20.5461 H              1 RES1               0.0000
     26 H26         -6.3306 -13.6217  19.1708 H              1 RES1               0.0000
     27 H27         -3.4739 -19.2117  15.7744 H              1 RES1               0.0000
     28 H28         -6.0383 -20.4577  18.9447 H              1 RES1               0.0000
     29 H29         -4.7576 -20.9858  16.9064 H              1 RES1               0.0000
@<TRIPOS>BOND
    1    1    2 1     
    2    1    3 1     
    3    1    4 1     
    4    1    5 1     
    5    2    6 ar    
    6    2    7 ar    
    7    3    8 1     
    8    3    9 2     
    9    4   10 1     
   10    4   11 2     
   11    5   12 1     
   12    5   18 1     
   13    5   19 1     
   14    6   13 ar    
   15    6   20 1     
   16    7   14 ar    
   17    7   21 1     
   18    8   15 1     
   19    8   22 1     
   20   10   15 1     
   21   10   23 1     
   22   12   24 1     
   23   12   25 1     
   24   12   26 1     
   25   13   16 ar    
   26   13   27 1     
   27   14   16 ar    
   28   14   28 1     
   29   15   17 2     
   30   16   29 1     
@<TRIPOS>SUBSTRUCTURE
      1 RES1           1
@<TRIPOS>SET
DONOR_HYDROGENS      STATIC     ATOMS    <user>   **** ""
2 22 23
ATOM$RED        STATIC     ATOMS    COLORGROUP SYSTEM
2 22 23
@<TRIPOS>COMMENT
> <Gold.Version>
2022.3.0

> <Gold.Id.Protein>
unknown|3mvj_clean|pdb

> <Gold.Protein.RotatedTorsions>
[ 1772 1742 1743 1744 ] final   86.38 input   69.76 | X-H torsion
[ 1801 1791 1792 1793 ] final  162.34 input  -10.55 | X-H torsion
[ 1832 1818 1819 1820 ] final  178.60 input   43.70 | X-H torsion
[ 2090 2067 2068 2069 ] final -160.51 input   63.04 | X-H torsion
[ 2143 2117 2118 2119 ] final   17.68 input   55.90 | X-H torsion
[ 5638 5617 5618 5619 ] final  -90.51 input   93.34 | X-H torsion
[ 7894 7874 7875 7876 ] final -155.96 input   68.03 | X-H torsion
[ 7946 7916 7917 7918 ] final   80.29 input   66.66 | X-H torsion
[ 8490 8469 8467 8464 ] final   86.75 input   59.99 | X-H torsion
[ 15476 15466 15465 15463 ] final   34.71 input   60.00 | X-H torsion
[ 8003 7973 7974 7975 ] final   78.39 input   84.71 | X-H torsion
[ 8484 8463 8464 8465 ] final  118.96 input   59.21 | X-H torsion
[ 8523 8507 8508 8509 ] final   85.00 input -104.23 | X-H torsion
[ 2825 2803 2804 2805 ] final  -15.51 input  103.27 | X-H torsion
[ 2197 2168 2169 2170 ] final  109.00 input  106.62 | X-H torsion
[ 2728 2714 2715 2716 ] final   24.30 input   74.66 | X-H torsion
[ 2776 2750 2751 2752 ] final  -35.31 input   68.39 | X-H torsion
[ 5506 5481 5482 5483 ] final  152.35 input   57.83 | X-H torsion
[ 5596 5586 5587 5588 ] final  -63.11 input -104.43 | X-H torsion
[ 5456 5428 5429 5430 ] final   -3.14 input  113.20 | X-H torsion
[ 5464 5439 5438 5436 ] final  100.04 input   59.99 | X-H torsion
[ 5575 5565 5566 5567 ] final  163.46 input  101.53 | X-H torsion
[ 5392 5377 5378 5379 ] final -166.49 input  130.34 | X-H torsion
[ 8060 8030 8031 8032 ] final -150.81 input   72.86 | X-H torsion
[ 2686 2665 2666 2667 ] final -116.92 input   26.41 | X-H torsion
[ 5343 5324 5325 5326 ] final  -59.78 input   62.58 | X-H torsion
[ 4538 4515 4516 4517 ] final  -18.81 input  130.34 | X-H torsion
[ 4602 4567 4568 4569 ] final  122.73 input  104.80 | X-H torsion
[ 5305 5274 5275 5276 ] final   95.90 input   71.10 | X-H torsion
[ 8578 8549 8550 8551 ] final  -83.73 input   74.91 | X-H torsion
[ 1861 1854 1855 1856 ] final  -22.49 input   57.50 | X-H torsion
[ 15411 15403 15404 15405 ] final  -74.36 input  102.24 | X-H torsion
[ 2878 2867 2868 2869 ] final  150.71 input   60.34 | X-H torsion
[ 16459 1745 1744 1743 ] final  -92.51 input    0.00 | X-H torsion
[ 16462 1794 1793 1792 ] final  153.46 input   -0.00 | X-H torsion
[ 16466 2070 2069 2068 ] final  120.99 input    0.00 | X-H torsion
[ 16474 7834 7833 7832 ] final -171.75 input    0.00 | X-H torsion
[ 16477 7877 7876 7875 ] final   88.62 input    0.00 | X-H torsion
[ 16486 7919 7918 7917 ] final  109.47 input    0.00 | X-H torsion
[ 16490 8466 8465 8464 ] final   -7.11 input    0.00 | X-H torsion
[ 16495 2717 2716 2715 ] final -114.51 input    0.00 | X-H torsion
[ 16498 5484 5483 5482 ] final  -66.66 input    0.00 | X-H torsion
[ 16500 2120 2119 2118 ] final -172.08 input    0.00 | X-H torsion
[ 16505 2753 2752 2751 ] final -124.94 input    0.00 | X-H torsion
[ 16507 5380 5379 5378 ] final -108.73 input    0.00 | X-H torsion
[ 16510 1701 1700 1699 ] final   54.12 input   -0.00 | X-H torsion
[ 16513 5589 5588 5587 ] final   24.55 input    0.00 | X-H torsion
[ 16515 2668 2667 2666 ] final   59.59 input    0.00 | X-H torsion
[ 16517 5327 5326 5325 ] final   32.94 input   -0.00 | X-H torsion
[ 16520 5431 5430 5429 ] final  -13.80 input    0.00 | X-H torsion
[ 16525 5532 5531 5530 ] final -107.70 input   -0.00 | X-H torsion
[ 16530 8033 8032 8031 ] final  -13.16 input    0.00 | X-H torsion
[ 16534 8371 8370 8369 ] final -117.46 input    0.00 | X-H torsion
[ 16536 4570 4569 4568 ] final   76.56 input    0.00 | X-H torsion
[ 16539 4518 4517 4516 ] final  -47.07 input    0.00 | X-H torsion
[ 16542 5228 5227 5226 ] final  153.08 input    0.00 | X-H torsion
[ 16544 5277 5276 5275 ] final  -40.48 input    0.00 | X-H torsion
[ 16548 8418 8417 8416 ] final  -34.17 input    0.00 | X-H torsion
[ 16551 2006 2005 2004 ] final -119.14 input    0.00 | X-H torsion
[ 16556 1821 1820 1819 ] final  145.37 input    0.00 | X-H torsion

> <Gold.Protein.ActiveResidues>
 THR48   LEU49   GLY50   THR51   GLY52   ARG56   VAL57   MET58   LEU59   TYR69  
 ALA70   MET71   LYS72   ILE73   GLU91   LEU95   VAL104  LYS105  LEU106  MET118 
 VAL119  MET120  GLU121  TYR122  VAL123  PRO124  GLY125  GLY126  GLU127  GLU170 
 ASN171  LEU172  LEU173  ILE174  ASP175  GLN181  VAL182  THR183  ASP184  PHE185 
 ASN326  PHE327  ASP328  TYR330 

> <Gold.Protein.RotatedAtoms>
    2.9912  -15.7201   20.0236 H   0  0  0  0  0  0  0  0  0  0  0  0  # atno 1772 bound_to 1742
    0.6107  -13.8726   20.3548 H   0  0  0  0  0  0  0  0  0  0  0  0  # atno 1801 bound_to 1791
   -0.0917  -14.2610   24.0444 H   0  0  0  0  0  0  0  0  0  0  0  0  # atno 1832 bound_to 1818
   -1.8699  -16.0130   27.5522 H   0  0  0  0  0  0  0  0  0  0  0  0  # atno 1861 bound_to 1854
   -0.1807  -19.1724   23.1187 H   0  0  0  0  0  0  0  0  0  0  0  0  # atno 2090 bound_to 2067
    2.1431  -19.9042   19.4568 H   0  0  0  0  0  0  0  0  0  0  0  0  # atno 2143 bound_to 2117
    5.0023  -17.1838   17.6926 H   0  0  0  0  0  0  0  0  0  0  0  0  # atno 2197 bound_to 2168
    4.8196  -21.5126   10.7538 H   0  0  0  0  0  0  0  0  0  0  0  0  # atno 2686 bound_to 2665
    1.6329  -22.5221   13.5958 H   0  0  0  0  0  0  0  0  0  0  0  0  # atno 2728 bound_to 2714
    1.1913  -21.5664   17.1732 H   0  0  0  0  0  0  0  0  0  0  0  0  # atno 2776 bound_to 2750
    0.9238  -23.8680   19.7218 H   0  0  0  0  0  0  0  0  0  0  0  0  # atno 2825 bound_to 2803
    0.9541  -23.1175   22.4577 H   0  0  0  0  0  0  0  0  0  0  0  0  # atno 2878 bound_to 2867
   -9.5849  -23.2297   10.2646 H   0  0  0  0  0  0  0  0  0  0  0  0  # atno 4538 bound_to 4515
   -6.1793  -24.3527    8.9580 H   0  0  0  0  0  0  0  0  0  0  0  0  # atno 4602 bound_to 4567
   -0.2348  -28.2404   16.9071 H   0  0  0  0  0  0  0  0  0  0  0  0  # atno 5305 bound_to 5274
    0.2163  -25.5242   14.2668 H   0  0  0  0  0  0  0  0  0  0  0  0  # atno 5343 bound_to 5324
   -1.4151  -24.8723   10.9276 H   0  0  0  0  0  0  0  0  0  0  0  0  # atno 5392 bound_to 5377
   -0.2812  -21.2308    9.6403 H   0  0  0  0  0  0  0  0  0  0  0  0  # atno 5456 bound_to 5428
    4.4569  -13.7719   11.9970 H   0  0  0  0  0  0  0  0  0  0  0  0  # atno 5464 bound_to 5439
   -1.2665  -18.4879   10.6022 H   0  0  0  0  0  0  0  0  0  0  0  0  # atno 5506 bound_to 5481
   -0.8467  -12.6024    7.7558 H   0  0  0  0  0  0  0  0  0  0  0  0  # atno 5575 bound_to 5565
   -2.3822  -11.9984   10.6998 H   0  0  0  0  0  0  0  0  0  0  0  0  # atno 5596 bound_to 5586
   -4.3086  -10.5957   12.6719 H   0  0  0  0  0  0  0  0  0  0  0  0  # atno 5638 bound_to 5617
   -9.7481  -12.6280   18.2944 H   0  0  0  0  0  0  0  0  0  0  0  0  # atno 7894 bound_to 7874
  -10.3728  -12.7174   15.3575 H   0  0  0  0  0  0  0  0  0  0  0  0  # atno 7946 bound_to 7916
   -8.7139  -15.0894   12.0263 H   0  0  0  0  0  0  0  0  0  0  0  0  # atno 8003 bound_to 7973
   -7.3245  -12.6629   10.0776 H   0  0  0  0  0  0  0  0  0  0  0  0  # atno 8060 bound_to 8030
   -9.3595  -18.2197   13.9337 H   0  0  0  0  0  0  0  0  0  0  0  0  # atno 8484 bound_to 8463
   -7.9489  -17.6945   16.9579 H   0  0  0  0  0  0  0  0  0  0  0  0  # atno 8490 bound_to 8469
   -9.7382  -19.7061   17.1139 H   0  0  0  0  0  0  0  0  0  0  0  0  # atno 8523 bound_to 8507
  -11.0026  -21.6562   19.4274 H   0  0  0  0  0  0  0  0  0  0  0  0  # atno 8578 bound_to 8549
    1.9148   -7.8224   17.0635 H   0  0  0  0  0  0  0  0  0  0  0  0  # atno 15411 bound_to 15403
   -1.5220  -10.6870   20.8793 H   0  0  0  0  0  0  0  0  0  0  0  0  # atno 15476 bound_to 15466
    3.7440  -14.2272   20.5407 LP  0  0  0  0  0  0  0  0  0  0  0  0  # atno 16458 bound_to 1742
   -0.3012  -12.1183   19.6078 LP  0  0  0  0  0  0  0  0  0  0  0  0  # atno 16459 bound_to 1745
   -0.8945  -13.6356   19.0197 LP  0  0  0  0  0  0  0  0  0  0  0  0  # atno 16460 bound_to 1745
    1.5312  -14.4958   21.7073 LP  0  0  0  0  0  0  0  0  0  0  0  0  # atno 16461 bound_to 1791
    0.6424  -16.1842   24.3140 LP  0  0  0  0  0  0  0  0  0  0  0  0  # atno 16462 bound_to 1794
    0.3153  -16.3797   22.6244 LP  0  0  0  0  0  0  0  0  0  0  0  0  # atno 16463 bound_to 1794
   -1.7626  -13.7712   24.2137 LP  0  0  0  0  0  0  0  0  0  0  0  0  # atno 16464 bound_to 1818
    0.9574  -17.8555   22.9107 LP  0  0  0  0  0  0  0  0  0  0  0  0  # atno 16465 bound_to 2067
    2.9635  -16.9433   21.3169 LP  0  0  0  0  0  0  0  0  0  0  0  0  # atno 16466 bound_to 2070
    1.5162  -16.4987   20.4757 LP  0  0  0  0  0  0  0  0  0  0  0  0  # atno 16467 bound_to 2070
    2.3854  -18.8747   20.8515 LP  0  0  0  0  0  0  0  0  0  0  0  0  # atno 16468 bound_to 2117
   -3.9548   -9.6671   14.1144 LP  0  0  0  0  0  0  0  0  0  0  0  0  # atno 16469 bound_to 5617
   -7.8618  -13.7520   17.5752 LP  0  0  0  0  0  0  0  0  0  0  0  0  # atno 16474 bound_to 7834
   -7.2772  -12.3550   18.4158 LP  0  0  0  0  0  0  0  0  0  0  0  0  # atno 16475 bound_to 7834
  -10.7073  -12.4323   16.8509 LP  0  0  0  0  0  0  0  0  0  0  0  0  # atno 16476 bound_to 7874
  -11.2614  -16.2491   15.1721 LP  0  0  0  0  0  0  0  0  0  0  0  0  # atno 16477 bound_to 7877
   -9.5485  -16.3840   14.9533 LP  0  0  0  0  0  0  0  0  0  0  0  0  # atno 16478 bound_to 7877
  -10.0034  -14.4211   15.4654 LP  0  0  0  0  0  0  0  0  0  0  0  0  # atno 16479 bound_to 7916
   -8.5730  -17.3815   15.4878 LP  0  0  0  0  0  0  0  0  0  0  0  0  # atno 16480 bound_to 8469
   -6.9569  -17.3382   15.7179 LP  0  0  0  0  0  0  0  0  0  0  0  0  # atno 16481 bound_to 8469
   -1.4842   -9.1338   21.3627 LP  0  0  0  0  0  0  0  0  0  0  0  0  # atno 16484 bound_to 15466
   -2.2051  -10.2646   22.2944 LP  0  0  0  0  0  0  0  0  0  0  0  0  # atno 16485 bound_to 15466
   -7.8797  -11.8544   13.4304 LP  0  0  0  0  0  0  0  0  0  0  0  0  # atno 16486 bound_to 7919
   -9.1879  -11.3593   12.4090 LP  0  0  0  0  0  0  0  0  0  0  0  0  # atno 16487 bound_to 7919
   -8.8387  -13.4938   12.7214 LP  0  0  0  0  0  0  0  0  0  0  0  0  # atno 16488 bound_to 7973
  -10.7753  -19.2311   14.1320 LP  0  0  0  0  0  0  0  0  0  0  0  0  # atno 16489 bound_to 8463
  -10.9997  -18.1774   16.1607 LP  0  0  0  0  0  0  0  0  0  0  0  0  # atno 16490 bound_to 8466
  -11.3432  -18.8567   17.7165 LP  0  0  0  0  0  0  0  0  0  0  0  0  # atno 16491 bound_to 8466
   -8.6648  -21.0825   17.3254 LP  0  0  0  0  0  0  0  0  0  0  0  0  # atno 16492 bound_to 8507
   -0.4423  -23.1956   16.3309 LP  0  0  0  0  0  0  0  0  0  0  0  0  # atno 16495 bound_to 2717
    0.5442  -23.6901   14.9958 LP  0  0  0  0  0  0  0  0  0  0  0  0  # atno 16496 bound_to 2717
   -0.3188  -23.0083   18.8327 LP  0  0  0  0  0  0  0  0  0  0  0  0  # atno 16497 bound_to 2803
   -1.9623  -14.3504   11.0569 LP  0  0  0  0  0  0  0  0  0  0  0  0  # atno 16498 bound_to 5484
   -0.2665  -14.5204   11.3655 LP  0  0  0  0  0  0  0  0  0  0  0  0  # atno 16499 bound_to 5484
    4.0353  -20.2610   16.3977 LP  0  0  0  0  0  0  0  0  0  0  0  0  # atno 16500 bound_to 2120
    3.1771  -20.6991   17.8370 LP  0  0  0  0  0  0  0  0  0  0  0  0  # atno 16501 bound_to 2120
    4.4066  -18.8236   17.7644 LP  0  0  0  0  0  0  0  0  0  0  0  0  # atno 16502 bound_to 2168
    2.4432  -21.0172   13.2316 LP  0  0  0  0  0  0  0  0  0  0  0  0  # atno 16503 bound_to 2714
    2.7230  -22.1286   16.5384 LP  0  0  0  0  0  0  0  0  0  0  0  0  # atno 16504 bound_to 2750
    2.0763  -22.3844   21.1092 LP  0  0  0  0  0  0  0  0  0  0  0  0  # atno 16505 bound_to 2753
    2.2579  -21.2768   19.7900 LP  0  0  0  0  0  0  0  0  0  0  0  0  # atno 16506 bound_to 2753
   -2.1559  -20.1835   10.8082 LP  0  0  0  0  0  0  0  0  0  0  0  0  # atno 16507 bound_to 5380
   -1.8674  -21.2315   12.1567 LP  0  0  0  0  0  0  0  0  0  0  0  0  # atno 16508 bound_to 5380
    0.1672  -17.4918   10.4820 LP  0  0  0  0  0  0  0  0  0  0  0  0  # atno 16509 bound_to 5481
    5.2986  -12.7313   19.7561 LP  0  0  0  0  0  0  0  0  0  0  0  0  # atno 16510 bound_to 1701
    3.8170  -12.2430   20.5086 LP  0  0  0  0  0  0  0  0  0  0  0  0  # atno 16511 bound_to 1701
   -1.7340  -10.4161   10.3327 LP  0  0  0  0  0  0  0  0  0  0  0  0  # atno 16512 bound_to 5586
   -4.4825  -11.6243   10.7644 LP  0  0  0  0  0  0  0  0  0  0  0  0  # atno 16513 bound_to 5589
   -5.8098  -10.7182   11.4103 LP  0  0  0  0  0  0  0  0  0  0  0  0  # atno 16514 bound_to 5589
    4.5446  -20.1400   13.5901 LP  0  0  0  0  0  0  0  0  0  0  0  0  # atno 16515 bound_to 2668
    4.2196  -21.0305   15.0397 LP  0  0  0  0  0  0  0  0  0  0  0  0  # atno 16516 bound_to 2668
    0.9406  -23.9039   13.0185 LP  0  0  0  0  0  0  0  0  0  0  0  0  # atno 16517 bound_to 5327
    0.5473  -22.6000   11.9485 LP  0  0  0  0  0  0  0  0  0  0  0  0  # atno 16518 bound_to 5327
    0.9118  -21.6891   10.8313 LP  0  0  0  0  0  0  0  0  0  0  0  0  # atno 16519 bound_to 5428
    0.2472  -19.6842    8.1096 LP  0  0  0  0  0  0  0  0  0  0  0  0  # atno 16520 bound_to 5431
   -1.0576  -18.5523    7.9818 LP  0  0  0  0  0  0  0  0  0  0  0  0  # atno 16521 bound_to 5431
    2.8869  -13.3941   12.1961 LP  0  0  0  0  0  0  0  0  0  0  0  0  # atno 16522 bound_to 5439
    3.5815  -13.2612   10.7242 LP  0  0  0  0  0  0  0  0  0  0  0  0  # atno 16523 bound_to 5439
    0.5091  -11.1089   10.6319 LP  0  0  0  0  0  0  0  0  0  0  0  0  # atno 16525 bound_to 5532
    1.6124  -10.9911    9.3019 LP  0  0  0  0  0  0  0  0  0  0  0  0  # atno 16526 bound_to 5532
   -0.7782  -12.5514    9.5050 LP  0  0  0  0  0  0  0  0  0  0  0  0  # atno 16527 bound_to 5565
   -1.7665  -23.4960   11.9459 LP  0  0  0  0  0  0  0  0  0  0  0  0  # atno 16528 bound_to 5377
   -5.5779  -12.7629   10.0182 LP  0  0  0  0  0  0  0  0  0  0  0  0  # atno 16529 bound_to 8030
   -4.0473  -11.6971    8.3143 LP  0  0  0  0  0  0  0  0  0  0  0  0  # atno 16530 bound_to 8033
   -3.3859  -13.0396    7.4423 LP  0  0  0  0  0  0  0  0  0  0  0  0  # atno 16531 bound_to 8033
    5.6538  -21.9621   12.2246 LP  0  0  0  0  0  0  0  0  0  0  0  0  # atno 16532 bound_to 2665
   -0.8002  -24.6142   15.3512 LP  0  0  0  0  0  0  0  0  0  0  0  0  # atno 16533 bound_to 5324
   -8.8950  -17.1142   12.4027 LP  0  0  0  0  0  0  0  0  0  0  0  0  # atno 16534 bound_to 8371
   -9.6141  -15.8898   11.4108 LP  0  0  0  0  0  0  0  0  0  0  0  0  # atno 16535 bound_to 8371
   -4.4844  -24.9301   11.8738 LP  0  0  0  0  0  0  0  0  0  0  0  0  # atno 16536 bound_to 4570
   -3.1957  -25.8358   11.1534 LP  0  0  0  0  0  0  0  0  0  0  0  0  # atno 16537 bound_to 4570
   -9.1393  -21.6455   10.8421 LP  0  0  0  0  0  0  0  0  0  0  0  0  # atno 16538 bound_to 4515
   -8.2405  -24.9430   12.2481 LP  0  0  0  0  0  0  0  0  0  0  0  0  # atno 16539 bound_to 4518
   -8.5540  -25.9828   10.8989 LP  0  0  0  0  0  0  0  0  0  0  0  0  # atno 16540 bound_to 4518
   -6.8977  -24.5894   10.5432 LP  0  0  0  0  0  0  0  0  0  0  0  0  # atno 16541 bound_to 4567
    0.1583  -25.0372   17.9625 LP  0  0  0  0  0  0  0  0  0  0  0  0  # atno 16542 bound_to 5228
   -1.2904  -25.0731   18.9112 LP  0  0  0  0  0  0  0  0  0  0  0  0  # atno 16543 bound_to 5228
   -0.1788  -27.9467   13.8732 LP  0  0  0  0  0  0  0  0  0  0  0  0  # atno 16544 bound_to 5277
   -1.6952  -27.1326   13.6794 LP  0  0  0  0  0  0  0  0  0  0  0  0  # atno 16545 bound_to 5277
  -10.7720  -21.2249   12.4475 LP  0  0  0  0  0  0  0  0  0  0  0  0  # atno 16548 bound_to 8418
   -9.1897  -21.1133   13.1433 LP  0  0  0  0  0  0  0  0  0  0  0  0  # atno 16549 bound_to 8418
   -0.9834  -26.7714   17.4864 LP  0  0  0  0  0  0  0  0  0  0  0  0  # atno 16550 bound_to 5274
    1.2173  -21.1528   22.9151 LP  0  0  0  0  0  0  0  0  0  0  0  0  # atno 16551 bound_to 2006
   -0.3114  -21.2753   23.7201 LP  0  0  0  0  0  0  0  0  0  0  0  0  # atno 16552 bound_to 2006
  -10.0894  -23.0560   18.9312 LP  0  0  0  0  0  0  0  0  0  0  0  0  # atno 16555 bound_to 8549
   -4.0687  -13.9431   26.4879 LP  0  0  0  0  0  0  0  0  0  0  0  0  # atno 16556 bound_to 1821
   -2.6078  -13.0132   26.5207 LP  0  0  0  0  0  0  0  0  0  0  0  0  # atno 16557 bound_to 1821
   -2.9288  -16.0689   26.1536 LP  0  0  0  0  0  0  0  0  0  0  0  0  # atno 16558 bound_to 1854

> <Gold.Score>
     Fitness  S(hb_ext) S(vdw_ext)  S(hb_int)    S(int)      intcor
     32.08       0.00      23.73       0.00      -0.55      -0.77

> <Gold.Goldscore.Fitness>
32.0777

> <Gold.Goldscore.Internal.Vdw>
-0.5716

> <Gold.Goldscore.Internal.Torsion>
-0.7422

> <Gold.Goldscore.External.Vdw>
23.7257

> <Gold.Goldscore.Internal.HBond>
0.0000

> <Gold.Goldscore.External.HBond>
0.0000

> <Gold.Goldscore.Internal.Correction>
-0.7686

> <Gold.Goldscore.Internal.Vdw.Weighted>
-0.5716

> <Gold.Goldscore.Internal.Torsion.Weighted>
-0.7422

> <Gold.Goldscore.External.Vdw.Weighted>
32.6228

> <Gold.Goldscore.Internal.HBond.Weighted>
0.0000

> <Gold.Goldscore.External.HBond.Weighted>
0.0000

> <Gold.Goldscore.Internal.Correction.Weighted>
-0.7686

> <Gold.Rescore>
     Score     S(PLP)   S(hbond)     S(cho)   S(metal)  DE(clash)   DE(tors)     intcor
     29.55     -30.11       0.43       0.00       0.00       0.00       0.93       ----

> <Gold.PLP.Fitness>
29.5500

> <Gold.PLP.PLP>
-30.1109

> <Gold.PLP.part.hbond>
-2.9177

> <Gold.PLP.part.metal>
0.0000

> <Gold.PLP.part.buried>
0.5118

> <Gold.PLP.part.nonpolar>
-28.2060

> <Gold.PLP.part.repulsive>
0.6461

> <Gold.PLP.ligand.clash>
0.0000

> <Gold.PLP.ligand.torsion>
0.9302

> <Gold.PLP.Chemscore.Hbond>
0.4332

> <Gold.PLP.Chemscore.CHOScore>
0.0000

> <Gold.PLP.Chemscore.Metal>
0.0000

> <Gold.Chemscore.Hbonds>
donor molecule, donor type, donor heavy atom, donor atom, acceptor molecule, acceptor atom, score
      L1  H     8    22       P1  1745  0.05

> <Gold.PLP.Chemscore.Internal.Correction>
   9.000000E+99

