#       Name:                CT1002167954
#       Creating user name   hitesit
#       Creation time:       Sun Apr 16 20:16:31 2023


#       File generated by GOLD software.
#

@<TRIPOS>MOLECULE
CT1002167954|ligand_prepared|mol2|1|dock5
    29    30     1
SMALL
NO_CHARGES


@<TRIPOS>ATOM
      1 C1          -5.3893 -17.2882  20.3884 C.3            1 RES1               0.0000
      2 C2          -4.6388 -17.4836  19.0552 C.ar           1 RES1               0.0000
      3 C3          -4.6169 -16.2244  21.1630 C.2            1 RES1               0.0000
      4 C4          -6.8118 -16.8805  20.0214 C.2            1 RES1               0.0000
      5 C5          -5.4672 -18.5669  21.2547 C.3            1 RES1               0.0000
      6 C6          -4.7170 -18.6915  18.3684 C.ar           1 RES1               0.0000
      7 C7          -3.8679 -16.4661  18.4993 C.ar           1 RES1               0.0000
      8 N8          -5.1692 -14.9805  21.2501 N.am           1 RES1               0.0000
      9 O9          -3.5212 -16.4624  21.6561 O.2            1 RES1               0.0000
     10 N10         -7.2272 -15.6204  20.3641 N.am           1 RES1               0.0000
     11 O11         -7.5712 -17.6331  19.4238 O.2            1 RES1               0.0000
     12 C12         -5.7966 -18.2991  22.7148 C.3            1 RES1               0.0000
     13 C13         -4.0511 -18.8746  17.1679 C.ar           1 RES1               0.0000
     14 C14         -3.2025 -16.6515  17.2987 C.ar           1 RES1               0.0000
     15 C15         -6.4603 -14.6412  20.9345 C.2            1 RES1               0.0000
     16 C16         -3.2939 -17.8548  16.6320 C.ar           1 RES1               0.0000
     17 O17         -6.8900 -13.5141  21.1629 O.2            1 RES1               0.0000
     18 H18         -6.2334 -19.2309  20.8360 H              1 RES1               0.0000
     19 H19         -4.5043 -19.0896  21.2002 H              1 RES1               0.0000
     20 H20         -5.3061 -19.5063  18.7759 H              1 RES1               0.0000
     21 H21         -3.7807 -15.5114  19.0068 H              1 RES1               0.0000
     22 H22         -4.5666 -14.2335  21.5804 H              1 RES1               0.0000
     23 H23         -8.1982 -15.3911  20.1767 H              1 RES1               0.0000
     24 H24         -5.8391 -19.2293  23.2776 H              1 RES1               0.0000
     25 H25         -5.0413 -17.6618  23.1701 H              1 RES1               0.0000
     26 H26         -6.7602 -17.8023  22.8080 H              1 RES1               0.0000
     27 H27         -4.1251 -19.8240  16.6478 H              1 RES1               0.0000
     28 H28         -2.6072 -15.8463  16.8809 H              1 RES1               0.0000
     29 H29         -2.7726 -17.9984  15.6913 H              1 RES1               0.0000
@<TRIPOS>BOND
    1    1    2 1     
    2    1    3 1     
    3    1    4 1     
    4    1    5 1     
    5    2    6 ar    
    6    2    7 ar    
    7    3    8 1     
    8    3    9 2     
    9    4   10 1     
   10    4   11 2     
   11    5   12 1     
   12    5   18 1     
   13    5   19 1     
   14    6   13 ar    
   15    6   20 1     
   16    7   14 ar    
   17    7   21 1     
   18    8   15 1     
   19    8   22 1     
   20   10   15 1     
   21   10   23 1     
   22   12   24 1     
   23   12   25 1     
   24   12   26 1     
   25   13   16 ar    
   26   13   27 1     
   27   14   16 ar    
   28   14   28 1     
   29   15   17 2     
   30   16   29 1     
@<TRIPOS>SUBSTRUCTURE
      1 RES1           1
@<TRIPOS>SET
DONOR_HYDROGENS      STATIC     ATOMS    <user>   **** ""
2 22 23
ATOM$RED        STATIC     ATOMS    COLORGROUP SYSTEM
2 22 23
@<TRIPOS>COMMENT
> <Gold.Version>
2022.3.0

> <Gold.Id.Protein>
unknown|3mvj_clean|pdb

> <Gold.Protein.RotatedTorsions>
[ 1772 1742 1743 1744 ] final   99.30 input   69.76 | X-H torsion
[ 1801 1791 1792 1793 ] final -124.45 input  -10.55 | X-H torsion
[ 1832 1818 1819 1820 ] final -127.86 input   43.70 | X-H torsion
[ 2090 2067 2068 2069 ] final -166.18 input   63.04 | X-H torsion
[ 2143 2117 2118 2119 ] final -150.82 input   55.90 | X-H torsion
[ 5638 5617 5618 5619 ] final -124.63 input   93.34 | X-H torsion
[ 7894 7874 7875 7876 ] final   52.57 input   68.03 | X-H torsion
[ 7946 7916 7917 7918 ] final  -92.24 input   66.66 | X-H torsion
[ 8490 8469 8467 8464 ] final  104.99 input   59.99 | X-H torsion
[ 15476 15466 15465 15463 ] final   38.91 input   60.00 | X-H torsion
[ 8003 7973 7974 7975 ] final    1.74 input   84.71 | X-H torsion
[ 8484 8463 8464 8465 ] final  105.62 input   59.21 | X-H torsion
[ 8523 8507 8508 8509 ] final -111.26 input -104.23 | X-H torsion
[ 2825 2803 2804 2805 ] final   11.87 input  103.27 | X-H torsion
[ 2197 2168 2169 2170 ] final  126.31 input  106.62 | X-H torsion
[ 2728 2714 2715 2716 ] final -129.25 input   74.66 | X-H torsion
[ 2776 2750 2751 2752 ] final -148.17 input   68.39 | X-H torsion
[ 5506 5481 5482 5483 ] final -164.36 input   57.83 | X-H torsion
[ 5596 5586 5587 5588 ] final  -88.96 input -104.43 | X-H torsion
[ 5456 5428 5429 5430 ] final -103.36 input  113.20 | X-H torsion
[ 5464 5439 5438 5436 ] final  -93.29 input   59.99 | X-H torsion
[ 5575 5565 5566 5567 ] final    4.49 input  101.53 | X-H torsion
[ 5392 5377 5378 5379 ] final -104.50 input  130.34 | X-H torsion
[ 8060 8030 8031 8032 ] final   91.14 input   72.86 | X-H torsion
[ 2686 2665 2666 2667 ] final  157.19 input   26.41 | X-H torsion
[ 5343 5324 5325 5326 ] final  -66.80 input   62.58 | X-H torsion
[ 4538 4515 4516 4517 ] final   92.37 input  130.34 | X-H torsion
[ 4602 4567 4568 4569 ] final   55.58 input  104.80 | X-H torsion
[ 5305 5274 5275 5276 ] final   90.79 input   71.10 | X-H torsion
[ 8578 8549 8550 8551 ] final -126.18 input   74.91 | X-H torsion
[ 1861 1854 1855 1856 ] final  178.43 input   57.50 | X-H torsion
[ 15411 15403 15404 15405 ] final   65.68 input  102.24 | X-H torsion
[ 2878 2867 2868 2869 ] final  -66.22 input   60.34 | X-H torsion
[ 16459 1745 1744 1743 ] final  105.47 input    0.00 | X-H torsion
[ 16462 1794 1793 1792 ] final  126.56 input   -0.00 | X-H torsion
[ 16466 2070 2069 2068 ] final -175.78 input    0.00 | X-H torsion
[ 16474 7834 7833 7832 ] final  -14.06 input    0.00 | X-H torsion
[ 16477 7877 7876 7875 ] final   42.19 input    0.00 | X-H torsion
[ 16486 7919 7918 7917 ] final  -95.63 input    0.00 | X-H torsion
[ 16490 8466 8465 8464 ] final   15.47 input    0.00 | X-H torsion
[ 16495 2717 2716 2715 ] final   12.66 input    0.00 | X-H torsion
[ 16498 5484 5483 5482 ] final   25.31 input    0.00 | X-H torsion
[ 16500 2120 2119 2118 ] final  -40.78 input    0.00 | X-H torsion
[ 16505 2753 2752 2751 ] final  167.34 input    0.00 | X-H torsion
[ 16507 5380 5379 5378 ] final   -5.62 input    0.00 | X-H torsion
[ 16510 1701 1700 1699 ] final  123.75 input   -0.00 | X-H torsion
[ 16513 5589 5588 5587 ] final   29.53 input    0.00 | X-H torsion
[ 16515 2668 2667 2666 ] final  -66.09 input    0.00 | X-H torsion
[ 16517 5327 5326 5325 ] final  116.72 input   -0.00 | X-H torsion
[ 16520 5431 5430 5429 ] final   -5.62 input    0.00 | X-H torsion
[ 16525 5532 5531 5530 ] final  -66.09 input   -0.00 | X-H torsion
[ 16530 8033 8032 8031 ] final  -85.78 input    0.00 | X-H torsion
[ 16534 8371 8370 8369 ] final   -4.22 input    0.00 | X-H torsion
[ 16536 4570 4569 4568 ] final -147.66 input    0.00 | X-H torsion
[ 16539 4518 4517 4516 ] final  -77.34 input    0.00 | X-H torsion
[ 16542 5228 5227 5226 ] final  -35.16 input    0.00 | X-H torsion
[ 16544 5277 5276 5275 ] final  -14.06 input    0.00 | X-H torsion
[ 16548 8418 8417 8416 ] final -147.66 input    0.00 | X-H torsion
[ 16551 2006 2005 2004 ] final   43.59 input    0.00 | X-H torsion
[ 16556 1821 1820 1819 ] final    7.03 input    0.00 | X-H torsion

> <Gold.Protein.ActiveResidues>
 THR48   LEU49   GLY50   THR51   GLY52   ARG56   VAL57   MET58   LEU59   TYR69  
 ALA70   MET71   LYS72   ILE73   GLU91   LEU95   VAL104  LYS105  LEU106  MET118 
 VAL119  MET120  GLU121  TYR122  VAL123  PRO124  GLY125  GLY126  GLU127  GLU170 
 ASN171  LEU172  LEU173  ILE174  ASP175  GLN181  VAL182  THR183  ASP184  PHE185 
 ASN326  PHE327  ASP328  TYR330 

> <Gold.Protein.RotatedAtoms>
    3.1155  -15.7024   19.8679 H   0  0  0  0  0  0  0  0  0  0  0  0  # atno 1772 bound_to 1742
    1.1858  -13.3056   21.0441 H   0  0  0  0  0  0  0  0  0  0  0  0  # atno 1801 bound_to 1791
   -0.6423  -14.7418   23.7211 H   0  0  0  0  0  0  0  0  0  0  0  0  # atno 1832 bound_to 1818
   -2.9757  -15.7513   26.1992 H   0  0  0  0  0  0  0  0  0  0  0  0  # atno 1861 bound_to 1854
   -0.2443  -19.1150   23.0970 H   0  0  0  0  0  0  0  0  0  0  0  0  # atno 2090 bound_to 2067
    2.3226  -18.7290   20.7686 H   0  0  0  0  0  0  0  0  0  0  0  0  # atno 2143 bound_to 2117
    4.7667  -17.1458   17.5768 H   0  0  0  0  0  0  0  0  0  0  0  0  # atno 2197 bound_to 2168
    5.3393  -22.5402   11.1257 H   0  0  0  0  0  0  0  0  0  0  0  0  # atno 2686 bound_to 2665
    2.7370  -21.2144   13.4190 H   0  0  0  0  0  0  0  0  0  0  0  0  # atno 2728 bound_to 2714
    1.8752  -22.4327   16.1821 H   0  0  0  0  0  0  0  0  0  0  0  0  # atno 2776 bound_to 2750
    0.6429  -24.1699   19.6249 H   0  0  0  0  0  0  0  0  0  0  0  0  # atno 2825 bound_to 2803
   -0.5713  -23.7754   22.7478 H   0  0  0  0  0  0  0  0  0  0  0  0  # atno 2878 bound_to 2867
   -9.3684  -22.4014   11.4319 H   0  0  0  0  0  0  0  0  0  0  0  0  # atno 4538 bound_to 4515
   -5.6906  -24.1981    9.8132 H   0  0  0  0  0  0  0  0  0  0  0  0  # atno 4602 bound_to 4567
   -0.2920  -28.2441   16.8530 H   0  0  0  0  0  0  0  0  0  0  0  0  # atno 5305 bound_to 5274
    0.1577  -25.6096   14.2940 H   0  0  0  0  0  0  0  0  0  0  0  0  # atno 5343 bound_to 5324
   -0.7837  -24.5301   11.4882 H   0  0  0  0  0  0  0  0  0  0  0  0  # atno 5392 bound_to 5377
   -0.1901  -21.5313   10.9581 H   0  0  0  0  0  0  0  0  0  0  0  0  # atno 5456 bound_to 5428
    2.9436  -13.1744   11.0974 H   0  0  0  0  0  0  0  0  0  0  0  0  # atno 5464 bound_to 5439
   -0.9118  -18.6375   10.0712 H   0  0  0  0  0  0  0  0  0  0  0  0  # atno 5506 bound_to 5481
   -1.0752  -12.6755    9.4921 H   0  0  0  0  0  0  0  0  0  0  0  0  # atno 5575 bound_to 5565
   -2.0095  -12.0221   10.8331 H   0  0  0  0  0  0  0  0  0  0  0  0  # atno 5596 bound_to 5586
   -4.1683  -10.9366   13.0434 H   0  0  0  0  0  0  0  0  0  0  0  0  # atno 5638 bound_to 5617
  -11.0023  -12.5166   17.1522 H   0  0  0  0  0  0  0  0  0  0  0  0  # atno 7894 bound_to 7874
   -9.8898  -14.4078   15.4538 H   0  0  0  0  0  0  0  0  0  0  0  0  # atno 7946 bound_to 7916
   -9.1839  -14.2025   11.6023 H   0  0  0  0  0  0  0  0  0  0  0  0  # atno 8003 bound_to 7973
   -5.9707  -11.9730   10.2036 H   0  0  0  0  0  0  0  0  0  0  0  0  # atno 8060 bound_to 8030
   -9.4493  -18.1065   14.0820 H   0  0  0  0  0  0  0  0  0  0  0  0  # atno 8484 bound_to 8463
   -7.6526  -17.6756   16.9539 H   0  0  0  0  0  0  0  0  0  0  0  0  # atno 8490 bound_to 8469
   -8.4906  -20.9432   17.4614 H   0  0  0  0  0  0  0  0  0  0  0  0  # atno 8523 bound_to 8507
  -11.0486  -21.7504   18.8018 H   0  0  0  0  0  0  0  0  0  0  0  0  # atno 8578 bound_to 8549
    1.1032   -8.8643   18.0747 H   0  0  0  0  0  0  0  0  0  0  0  0  # atno 15411 bound_to 15403
   -1.5528  -10.7327   20.9200 H   0  0  0  0  0  0  0  0  0  0  0  0  # atno 15476 bound_to 15466
    3.6238  -14.2443   20.6914 LP  0  0  0  0  0  0  0  0  0  0  0  0  # atno 16458 bound_to 1742
   -1.0263  -13.6274   19.2560 LP  0  0  0  0  0  0  0  0  0  0  0  0  # atno 16459 bound_to 1745
   -0.1694  -12.1265   19.3716 LP  0  0  0  0  0  0  0  0  0  0  0  0  # atno 16460 bound_to 1745
    0.9755  -15.0437   21.0412 LP  0  0  0  0  0  0  0  0  0  0  0  0  # atno 16461 bound_to 1791
    0.9550  -16.0024   24.1365 LP  0  0  0  0  0  0  0  0  0  0  0  0  # atno 16462 bound_to 1794
    0.0028  -16.5614   22.8020 LP  0  0  0  0  0  0  0  0  0  0  0  0  # atno 16463 bound_to 1794
   -1.2276  -13.3041   24.5277 LP  0  0  0  0  0  0  0  0  0  0  0  0  # atno 16464 bound_to 1818
    1.0185  -17.9106   22.9316 LP  0  0  0  0  0  0  0  0  0  0  0  0  # atno 16465 bound_to 2067
    2.9596  -16.7973   20.4207 LP  0  0  0  0  0  0  0  0  0  0  0  0  # atno 16466 bound_to 2070
    1.5201  -16.6447   21.3718 LP  0  0  0  0  0  0  0  0  0  0  0  0  # atno 16467 bound_to 2070
    2.2118  -20.0114   19.5825 LP  0  0  0  0  0  0  0  0  0  0  0  0  # atno 16468 bound_to 2117
   -4.0899   -9.3386   13.7564 LP  0  0  0  0  0  0  0  0  0  0  0  0  # atno 16469 bound_to 5617
   -7.2117  -12.2715   18.0979 LP  0  0  0  0  0  0  0  0  0  0  0  0  # atno 16474 bound_to 7834
   -7.9273  -13.8355   17.8931 LP  0  0  0  0  0  0  0  0  0  0  0  0  # atno 16475 bound_to 7834
   -9.4673  -12.5425   17.9800 LP  0  0  0  0  0  0  0  0  0  0  0  0  # atno 16476 bound_to 7874
  -10.9387  -16.4970   15.7204 LP  0  0  0  0  0  0  0  0  0  0  0  0  # atno 16477 bound_to 7877
   -9.8712  -16.1361   14.4050 LP  0  0  0  0  0  0  0  0  0  0  0  0  # atno 16478 bound_to 7877
  -10.4767  -12.7648   15.3710 LP  0  0  0  0  0  0  0  0  0  0  0  0  # atno 16479 bound_to 7916
   -8.7150  -17.4503   15.7418 LP  0  0  0  0  0  0  0  0  0  0  0  0  # atno 16480 bound_to 8469
   -7.1133  -17.2884   15.4680 LP  0  0  0  0  0  0  0  0  0  0  0  0  # atno 16481 bound_to 8469
   -1.4560   -9.1542   21.3030 LP  0  0  0  0  0  0  0  0  0  0  0  0  # atno 16484 bound_to 15466
   -2.2022  -10.1982   22.3129 LP  0  0  0  0  0  0  0  0  0  0  0  0  # atno 16485 bound_to 15466
   -8.9126  -11.4278   12.1618 LP  0  0  0  0  0  0  0  0  0  0  0  0  # atno 16486 bound_to 7919
   -8.1550  -11.7859   13.6776 LP  0  0  0  0  0  0  0  0  0  0  0  0  # atno 16487 bound_to 7919
   -8.3752  -14.3684   13.1395 LP  0  0  0  0  0  0  0  0  0  0  0  0  # atno 16488 bound_to 7973
  -10.6886  -19.3403   13.9890 LP  0  0  0  0  0  0  0  0  0  0  0  0  # atno 16489 bound_to 8463
  -11.2230  -18.4192   16.0797 LP  0  0  0  0  0  0  0  0  0  0  0  0  # atno 16490 bound_to 8466
  -11.1198  -18.6149   17.7976 LP  0  0  0  0  0  0  0  0  0  0  0  0  # atno 16491 bound_to 8466
   -9.8407  -19.9165   16.9979 LP  0  0  0  0  0  0  0  0  0  0  0  0  # atno 16492 bound_to 8507
    0.0166  -23.1478   14.8499 LP  0  0  0  0  0  0  0  0  0  0  0  0  # atno 16495 bound_to 2717
    0.0853  -23.7379   16.4768 LP  0  0  0  0  0  0  0  0  0  0  0  0  # atno 16496 bound_to 2717
   -0.0496  -22.7190   18.9256 LP  0  0  0  0  0  0  0  0  0  0  0  0  # atno 16497 bound_to 2803
   -1.2340  -15.1893   11.6202 LP  0  0  0  0  0  0  0  0  0  0  0  0  # atno 16498 bound_to 5484
   -0.9948  -13.6814   10.8023 LP  0  0  0  0  0  0  0  0  0  0  0  0  # atno 16499 bound_to 5484
    3.8433  -20.9544   17.8021 LP  0  0  0  0  0  0  0  0  0  0  0  0  # atno 16500 bound_to 2120
    3.3692  -20.0058   16.4326 LP  0  0  0  0  0  0  0  0  0  0  0  0  # atno 16501 bound_to 2120
    4.6378  -18.8609   17.8781 LP  0  0  0  0  0  0  0  0  0  0  0  0  # atno 16502 bound_to 2168
    1.3641  -22.2954   13.4044 LP  0  0  0  0  0  0  0  0  0  0  0  0  # atno 16503 bound_to 2714
    2.0619  -21.2911   17.4964 LP  0  0  0  0  0  0  0  0  0  0  0  0  # atno 16504 bound_to 2750
    1.4486  -21.6794   20.9088 LP  0  0  0  0  0  0  0  0  0  0  0  0  # atno 16505 bound_to 2753
    2.8856  -21.9818   19.9904 LP  0  0  0  0  0  0  0  0  0  0  0  0  # atno 16506 bound_to 2753
   -2.5567  -21.3652   11.3400 LP  0  0  0  0  0  0  0  0  0  0  0  0  # atno 16507 bound_to 5380
   -1.4666  -20.0498   11.6248 LP  0  0  0  0  0  0  0  0  0  0  0  0  # atno 16508 bound_to 5380
   -0.1761  -17.3470   10.9961 LP  0  0  0  0  0  0  0  0  0  0  0  0  # atno 16509 bound_to 5481
    4.4364  -12.6192   19.2851 LP  0  0  0  0  0  0  0  0  0  0  0  0  # atno 16510 bound_to 1701
    4.6792  -12.3551   20.9796 LP  0  0  0  0  0  0  0  0  0  0  0  0  # atno 16511 bound_to 1701
   -2.0967  -10.3930   10.2030 LP  0  0  0  0  0  0  0  0  0  0  0  0  # atno 16512 bound_to 5586
   -4.5057  -11.6821   10.8066 LP  0  0  0  0  0  0  0  0  0  0  0  0  # atno 16513 bound_to 5589
   -5.7865  -10.6603   11.3682 LP  0  0  0  0  0  0  0  0  0  0  0  0  # atno 16514 bound_to 5589
    4.7732  -21.3196   14.5551 LP  0  0  0  0  0  0  0  0  0  0  0  0  # atno 16515 bound_to 2668
    3.9909  -19.8509   14.0747 LP  0  0  0  0  0  0  0  0  0  0  0  0  # atno 16516 bound_to 2668
    1.0642  -23.7790   11.8755 LP  0  0  0  0  0  0  0  0  0  0  0  0  # atno 16517 bound_to 5327
    0.4237  -22.7249   13.0915 LP  0  0  0  0  0  0  0  0  0  0  0  0  # atno 16518 bound_to 5327
    0.8226  -21.3949    9.5412 LP  0  0  0  0  0  0  0  0  0  0  0  0  # atno 16519 bound_to 5428
    0.1608  -19.7669    8.1401 LP  0  0  0  0  0  0  0  0  0  0  0  0  # atno 16520 bound_to 5431
   -0.9712  -18.4696    7.9512 LP  0  0  0  0  0  0  0  0  0  0  0  0  # atno 16521 bound_to 5431
    4.4981  -13.6231   11.2690 LP  0  0  0  0  0  0  0  0  0  0  0  0  # atno 16522 bound_to 5439
    3.4949  -13.6342   12.5575 LP  0  0  0  0  0  0  0  0  0  0  0  0  # atno 16523 bound_to 5439
    0.9850  -11.4912   10.7082 LP  0  0  0  0  0  0  0  0  0  0  0  0  # atno 16525 bound_to 5532
    1.1365  -10.6088    9.2255 LP  0  0  0  0  0  0  0  0  0  0  0  0  # atno 16526 bound_to 5532
   -0.5579  -12.4809    7.8303 LP  0  0  0  0  0  0  0  0  0  0  0  0  # atno 16527 bound_to 5565
   -2.3826  -23.8298   11.3989 LP  0  0  0  0  0  0  0  0  0  0  0  0  # atno 16528 bound_to 5377
   -6.8891  -13.4310    9.8961 LP  0  0  0  0  0  0  0  0  0  0  0  0  # atno 16529 bound_to 8030
   -3.7727  -11.7036    7.3261 LP  0  0  0  0  0  0  0  0  0  0  0  0  # atno 16530 bound_to 8033
   -3.6605  -13.0331    8.4305 LP  0  0  0  0  0  0  0  0  0  0  0  0  # atno 16531 bound_to 8033
    5.1496  -20.9653   11.8637 LP  0  0  0  0  0  0  0  0  0  0  0  0  # atno 16532 bound_to 2665
   -0.7420  -24.5295   15.3242 LP  0  0  0  0  0  0  0  0  0  0  0  0  # atno 16533 bound_to 5324
   -8.7073  -16.1696   11.3236 LP  0  0  0  0  0  0  0  0  0  0  0  0  # atno 16534 bound_to 8371
   -9.8018  -16.8343   12.4899 LP  0  0  0  0  0  0  0  0  0  0  0  0  # atno 16535 bound_to 8371
   -3.3077  -26.0162   11.7696 LP  0  0  0  0  0  0  0  0  0  0  0  0  # atno 16536 bound_to 4570
   -4.3724  -24.7497   11.2576 LP  0  0  0  0  0  0  0  0  0  0  0  0  # atno 16537 bound_to 4570
   -9.3532  -22.4638    9.6890 LP  0  0  0  0  0  0  0  0  0  0  0  0  # atno 16538 bound_to 4515
   -7.9218  -25.2632   12.2693 LP  0  0  0  0  0  0  0  0  0  0  0  0  # atno 16539 bound_to 4518
   -8.8726  -25.6626   10.8777 LP  0  0  0  0  0  0  0  0  0  0  0  0  # atno 16540 bound_to 4518
   -7.3608  -24.7359    9.7328 LP  0  0  0  0  0  0  0  0  0  0  0  0  # atno 16541 bound_to 4567
   -1.3485  -25.0357   18.8077 LP  0  0  0  0  0  0  0  0  0  0  0  0  # atno 16542 bound_to 5228
    0.2163  -25.0746   18.0661 LP  0  0  0  0  0  0  0  0  0  0  0  0  # atno 16543 bound_to 5228
   -0.3910  -28.0763   14.1812 LP  0  0  0  0  0  0  0  0  0  0  0  0  # atno 16544 bound_to 5277
   -1.4830  -27.0030   13.3715 LP  0  0  0  0  0  0  0  0  0  0  0  0  # atno 16545 bound_to 5277
   -9.9521  -21.4080   13.6274 LP  0  0  0  0  0  0  0  0  0  0  0  0  # atno 16548 bound_to 8418
  -10.0096  -20.9302   11.9635 LP  0  0  0  0  0  0  0  0  0  0  0  0  # atno 16549 bound_to 8418
   -0.9274  -26.7678   17.5392 LP  0  0  0  0  0  0  0  0  0  0  0  0  # atno 16550 bound_to 5274
   -0.1562  -21.2992   23.9273 LP  0  0  0  0  0  0  0  0  0  0  0  0  # atno 16551 bound_to 2006
    1.0621  -21.1289   22.7080 LP  0  0  0  0  0  0  0  0  0  0  0  0  # atno 16552 bound_to 2006
  -10.0439  -22.9627   19.5506 LP  0  0  0  0  0  0  0  0  0  0  0  0  # atno 16555 bound_to 8549
   -2.7774  -13.1344   25.9411 LP  0  0  0  0  0  0  0  0  0  0  0  0  # atno 16556 bound_to 1821
   -3.8992  -13.8220   27.0675 LP  0  0  0  0  0  0  0  0  0  0  0  0  # atno 16557 bound_to 1821
   -1.8750  -16.3182   27.4430 LP  0  0  0  0  0  0  0  0  0  0  0  0  # atno 16558 bound_to 1854

> <Gold.Score>
     Fitness  S(hb_ext) S(vdw_ext)  S(hb_int)    S(int)      intcor
     31.58       6.53      19.17       0.00      -1.30      -0.77

> <Gold.Goldscore.Fitness>
31.5845

> <Gold.Goldscore.Internal.Vdw>
-1.1912

> <Gold.Goldscore.Internal.Torsion>
-0.8753

> <Gold.Goldscore.External.Vdw>
19.1659

> <Gold.Goldscore.Internal.HBond>
0.0000

> <Gold.Goldscore.External.HBond>
6.5292

> <Gold.Goldscore.Internal.Correction>
-0.7686

> <Gold.Goldscore.Hbonds>
donor molecule, donor type, donor heavy atom, donor atom, acceptor molecule, acceptor atom, score
      P1  H  8469  8490       L1    11  0.26
      L1  H    10    23       P1  7881  1.00

> <Gold.Goldscore.Internal.Vdw.Weighted>
-1.1912

> <Gold.Goldscore.Internal.Torsion.Weighted>
-0.8753

> <Gold.Goldscore.External.Vdw.Weighted>
26.3532

> <Gold.Goldscore.Internal.HBond.Weighted>
0.0000

> <Gold.Goldscore.External.HBond.Weighted>
6.5292

> <Gold.Goldscore.Internal.Correction.Weighted>
-0.7686

> <Gold.Rescore>
     Score     S(PLP)   S(hbond)     S(cho)   S(metal)  DE(clash)   DE(tors)     intcor
     34.55     -31.15       2.00       0.00       0.00       0.00       1.30       ----

> <Gold.PLP.Fitness>
34.5523

> <Gold.PLP.PLP>
-31.1507

> <Gold.PLP.part.hbond>
-3.0000

> <Gold.PLP.part.metal>
0.0000

> <Gold.PLP.part.buried>
-4.6782

> <Gold.PLP.part.nonpolar>
-25.7810

> <Gold.PLP.part.repulsive>
0.5889

> <Gold.PLP.ligand.clash>
0.0000

> <Gold.PLP.ligand.torsion>
1.2992

> <Gold.PLP.Chemscore.Hbond>
2.0000

> <Gold.PLP.Chemscore.CHOScore>
0.0000

> <Gold.PLP.Chemscore.Metal>
0.0000

> <Gold.Chemscore.Hbonds>
donor molecule, donor type, donor heavy atom, donor atom, acceptor molecule, acceptor atom, score
      L1  H    10    23       P1  7881  1.00
      P1  H  8469  8490       L1    11  0.06

> <Gold.PLP.Chemscore.Internal.Correction>
   9.000000E+99

