@<TRIPOS>MOLECULE
A:J9G501
    40    43     1     0     1
SMALL
NO_CHARGES
****
Generated from the CSD

@<TRIPOS>ATOM
     1 C2      23.7300  -5.1740 -21.4270   C.ar      1 J9G501   0.0000
     2 C3      22.5060  -5.0470 -20.8150   C.ar      1 J9G501   0.0000
     3 C4      21.9770  -3.7950 -20.6050   C.ar      1 J9G501   0.0000
     4 C5      22.6630  -2.6730 -21.0050   C.ar      1 J9G501   0.0000
     5 N6      22.1280  -1.3990 -20.7890   N.pl3     1 J9G501   0.0000
     6 C7      21.3860  -0.7560 -21.7860   C.ar      1 J9G501   0.0000
     7 C8      20.5290   0.2720 -21.4500   C.ar      1 J9G501   0.0000
     8 N9      19.7590   0.9780 -22.2850   N.ar      1 J9G501   0.0000
     9 C10     19.9010   0.5800 -23.5460   C.ar      1 J9G501   0.0000
    10 N11     19.2750   1.0720 -24.6840   N.am      1 J9G501   0.0000
    11 C12     18.3160   2.1430 -24.6470   C.3       1 J9G501   0.0000
    12 C13     18.9240   3.4660 -24.9500   C.ar      1 J9G501   0.0000
    13 C14     20.0800   3.5560 -25.6880   C.ar      1 J9G501   0.0000
    14 C15     20.6270   4.7870 -25.9610   C.ar      1 J9G501   0.0000
    15 C16     20.0200   5.9300 -25.4970   C.ar      1 J9G501   0.0000
    16 C17     18.8650   5.8420 -24.7590   C.ar      1 J9G501   0.0000
    17 C18     18.3190   4.6100 -24.4870   C.ar      1 J9G501   0.0000
    18 C19     19.6920   0.3870 -25.8030   C.2       1 J9G501   0.0000
    19 O20     19.3290   0.5740 -26.9550   O.2       1 J9G501   0.0000
    20 N21     20.6040  -0.5550 -25.3640   N.am      1 J9G501   0.0000
    21 C23     20.7160  -0.4190 -23.9810   C.ar      1 J9G501   0.0000
    22 C24     21.4960  -1.1300 -23.1060   C.ar      1 J9G501   0.0000
    23 C25     23.8870  -2.8200 -21.6140   C.ar      1 J9G501   0.0000
    24 C27     24.4300  -4.0630 -21.8300   C.ar      1 J9G501   0.0000
    25 F1      24.2470  -6.3960 -21.6330   F         1 J9G501   0.0000
    26 F26     24.5630  -1.7290 -22.0050   F         1 J9G501   0.0000
    27 H1      20.4547   6.9045 -25.7145   H         1 J9G501   0.0000
    28 H2      20.4739   0.5359 -20.3949   H         1 J9G501   0.0000
    29 H3      22.2797  -0.9355 -19.8988   H         1 J9G501   0.0000
    30 H4      21.5429   4.8571 -26.5459   H         1 J9G501   0.0000
    31 H5      25.4004  -4.1661 -22.3133   H         1 J9G501   0.0000
    32 H6      18.3828   6.7461 -24.3902   H         1 J9G501   0.0000
    33 H7      21.9579  -5.9330 -20.4980   H         1 J9G501   0.0000
    34 H8      21.0082  -3.6918 -20.1186   H         1 J9G501   0.0000
    35 H9      20.5625   2.6519 -26.0564   H         1 J9G501   0.0000
    36 H10     21.1014  -1.2238 -25.9432   H         1 J9G501   0.0000
    37 H11     17.8746   2.1817 -23.6522   H         1 J9G501   0.0000
    38 H12     17.5382   1.9402 -25.3817   H         1 J9G501   0.0000
    39 H13     22.1553  -1.9331 -23.4320   H         1 J9G501   0.0000
    40 H14     17.4031   4.5402 -23.9021   H         1 J9G501   0.0000
@<TRIPOS>BOND
     1     1     2   ar
     2     2     3   ar
     3     3     4   ar
     4     4     5    1
     5     5     6    1
     6     6     7   ar
     7     7     8   ar
     8     8     9   ar
     9     9    10    1
    10    10    11    1
    11    11    12    1
    12    12    13   ar
    13    13    14   ar
    14    14    15   ar
    15    15    16   ar
    16    12    17   ar
    17    16    17   ar
    18    10    18   am
    19    18    19    2
    20    18    20   am
    21     9    21   ar
    22    20    21    1
    23     6    22   ar
    24    21    22   ar
    25     4    23   ar
    26     1    24   ar
    27    23    24   ar
    28     1    25    1
    29    23    26    1
    30    15    27    1
    31     7    28    1
    32     5    29    1
    33    14    30    1
    34    24    31    1
    35    16    32    1
    36     2    33    1
    37     3    34    1
    38    13    35    1
    39    20    36    1
    40    11    37    1
    41    11    38    1
    42    22    39    1
    43    17    40    1
@<TRIPOS>SUBSTRUCTURE
     1 J9G501      1 GROUP             0 A     J9G     0  
@<TRIPOS>SET
CCDC_LIGAND STATIC ATOMS
40 1 2 3 4 5 6 7 8 9 \
10 11 12 13 14 15 16 17 18 19 \
20 21 22 23 24 25 26 27 28 29 \
30 31 32 33 34 35 36 37 38 39 \
40 
