@<TRIPOS>MOLECULE
B:EDO302
    10     9     1     0     1
SMALL
NO_CHARGES
****
Generated from the CSD

@<TRIPOS>ATOM
     1 C1       9.1140 -23.1280 -45.8460   C.3       1 EDO302   0.0000
     2 O1       8.5020 -22.8980 -44.5850   O.3       1 EDO302   0.0000
     3 C2       8.2680 -23.8200 -46.8870   C.3       1 EDO302   0.0000
     4 O2       7.1000 -23.0960 -47.2770   O.3       1 EDO302   0.0000
     5 H1       7.9536 -24.7821 -46.4853   H         1 EDO302   0.0000
     6 H2       8.8812 -23.9793 -47.7728   H         1 EDO302   0.0000
     7 H3       8.2336 -23.7659 -44.1841   H         1 EDO302   0.0000
     8 H4       9.9989 -23.7401 -45.6780   H         1 EDO302   0.0000
     9 H5       9.4124 -22.1619 -46.2505   H         1 EDO302   0.0000
    10 H6       7.3663 -22.2184 -47.6578   H         1 EDO302   0.0000
@<TRIPOS>BOND
     1     1     2    1
     2     1     3    1
     3     3     4    1
     4     3     5    1
     5     3     6    1
     6     2     7    1
     7     1     8    1
     8     1     9    1
     9     4    10    1
@<TRIPOS>SUBSTRUCTURE
     1 EDO302      1 GROUP             0 B     EDO     0  
@<TRIPOS>SET
CCDC_LIGAND STATIC ATOMS
10 1 2 3 4 5 6 7 8 9 \
10 
