@<TRIPOS>MOLECULE
B:UZD301
    52    52     1     0     1
SMALL
NO_CHARGES
****
Generated from the CSD

@<TRIPOS>ATOM
     1 N       -9.9630 -29.1320 -30.7570   N.am      1 UZD301   0.0000
     2 C      -12.5330 -22.2940 -27.1690   C.3       1 UZD301   0.0000
     3 O       -8.3660 -30.4790 -30.0210   O.2       1 UZD301   0.0000
     4 C1     -12.5110 -22.6880 -28.6150   C.3       1 UZD301   0.0000
     5 O1      -8.1200 -28.0960 -29.7100   O.3       1 UZD301   0.0000
     6 C2     -13.0240 -24.1010 -28.8390   C.3       1 UZD301   0.0000
     7 O2      -7.1410 -26.0480 -28.4490   O.3       1 UZD301   0.0000
     8 C3     -11.9820 -25.1840 -28.6390   C.3       1 UZD301   0.0000
     9 O3      -7.1330 -23.9500 -29.1580   O.3       1 UZD301   0.0000
    10 C4     -11.8440 -26.0130 -29.9190   C.3       1 UZD301   0.0000
    11 O4      -5.0890 -23.0360 -27.7710   O.3       1 UZD301   0.0000
    12 C5     -10.9690 -27.2430 -29.6820   C.3       1 UZD301   0.0000
    13 O5      -3.0470 -25.2360 -28.2470   O.3       1 UZD301   0.0000
    14 C6     -10.6560 -27.9050 -31.0160   C.3       1 UZD301   0.0000
    15 O6      -3.9890 -27.3260 -29.6600   O.3       1 UZD301   0.0000
    16 C7      -8.8520 -29.2580 -30.1870   C.2       1 UZD301   0.0000
    17 C8      -6.7040 -28.0220 -29.7570   C.3       1 UZD301   0.0000
    18 C9      -6.1290 -26.9780 -28.7980   C.3       1 UZD301   0.0000
    19 C10     -6.7780 -24.7230 -28.0450   C.3       1 UZD301   0.0000
    20 C11     -8.5520 -23.8930 -29.3120   C.3       1 UZD301   0.0000
    21 C12     -5.3050 -24.4620 -27.7470   C.3       1 UZD301   0.0000
    22 C13     -4.3640 -25.0620 -28.7760   C.3       1 UZD301   0.0000
    23 C14     -4.9440 -26.3070 -29.4600   C.3       1 UZD301   0.0000
    24 H1      -5.0595 -24.8503 -26.7597   H         1 UZD301   0.0000
    25 H2     -11.4982 -27.9475 -29.0420   H         1 UZD301   0.0000
    26 H3     -10.0406 -26.9410 -29.1995   H         1 UZD301   0.0000
    27 H4      -8.9961 -23.4482 -28.4227   H         1 UZD301   0.0000
    28 H5      -8.7986 -23.2872 -30.1827   H         1 UZD301   0.0000
    29 H6      -8.9431 -24.9002 -29.4480   H         1 UZD301   0.0000
    30 H7      -5.6592 -22.6032 -27.0828   H         1 UZD301   0.0000
    31 H8     -11.3910 -25.3976 -30.6949   H         1 UZD301   0.0000
    32 H9     -12.8324 -26.3359 -30.2427   H         1 UZD301   0.0000
    33 H10     -7.3809 -24.4257 -27.1882   H         1 UZD301   0.0000
    34 H11     -4.3751 -28.0319 -30.2419   H         1 UZD301   0.0000
    35 H12     -5.2761 -25.9930 -30.4485   H         1 UZD301   0.0000
    36 H13     -6.4032 -27.7646 -30.7715   H         1 UZD301   0.0000
    37 H14     -6.2964 -28.9970 -29.4939   H         1 UZD301   0.0000
    38 H15     -4.2693 -24.3126 -29.5604   H         1 UZD301   0.0000
    39 H16     -5.7879 -27.4813 -27.8945   H         1 UZD301   0.0000
    40 H17     -3.0829 -25.8443 -27.4630   H         1 UZD301   0.0000
    41 H18    -12.2873 -25.8326 -27.8192   H         1 UZD301   0.0000
    42 H19    -11.0239 -24.7244 -28.4008   H         1 UZD301   0.0000
    43 H20    -13.3960 -24.1705 -29.8601   H         1 UZD301   0.0000
    44 H21    -13.8410 -24.2814 -28.1419   H         1 UZD301   0.0000
    45 H22    -11.9034 -22.9745 -26.5977   H         1 UZD301   0.0000
    46 H23    -12.1572 -21.2773 -27.0640   H         1 UZD301   0.0000
    47 H24    -13.5544 -22.3439 -26.7947   H         1 UZD301   0.0000
    48 H25    -10.4166 -29.9859 -31.0658   H         1 UZD301   0.0000
    49 H26    -11.4864 -22.6263 -28.9786   H         1 UZD301   0.0000
    50 H27    -13.1374 -21.9957 -29.1756   H         1 UZD301   0.0000
    51 H28    -11.5818 -28.1107 -31.5513   H         1 UZD301   0.0000
    52 H29    -10.0286 -27.2471 -31.6155   H         1 UZD301   0.0000
@<TRIPOS>BOND
     1     2     4    1
     2     4     6    1
     3     6     8    1
     4     8    10    1
     5    10    12    1
     6     1    14    1
     7    12    14    1
     8     1    16   am
     9     3    16    2
    10     5    16    1
    11     5    17    1
    12     7    18    1
    13    17    18    1
    14     7    19    1
    15     9    19    1
    16     9    20    1
    17    11    21    1
    18    19    21    1
    19    13    22    1
    20    21    22    1
    21    15    23    1
    22    18    23    1
    23    22    23    1
    24    21    24    1
    25    12    25    1
    26    12    26    1
    27    20    27    1
    28    20    28    1
    29    20    29    1
    30    11    30    1
    31    10    31    1
    32    10    32    1
    33    19    33    1
    34    15    34    1
    35    23    35    1
    36    17    36    1
    37    17    37    1
    38    22    38    1
    39    18    39    1
    40    13    40    1
    41     8    41    1
    42     8    42    1
    43     6    43    1
    44     6    44    1
    45     2    45    1
    46     2    46    1
    47     2    47    1
    48     1    48    1
    49     4    49    1
    50     4    50    1
    51    14    51    1
    52    14    52    1
@<TRIPOS>SUBSTRUCTURE
     1 UZD301      1 GROUP             0 B     UZD     0  
@<TRIPOS>SET
CCDC_LIGAND STATIC ATOMS
52 1 2 3 4 5 6 7 8 9 \
10 11 12 13 14 15 16 17 18 19 \
20 21 22 23 24 25 26 27 28 29 \
30 31 32 33 34 35 36 37 38 39 \
40 41 42 43 44 45 46 47 48 49 \
50 51 52 
