#       Name:                CT1002167954
#       Creating user name   hitesit
#       Creation time:       Sun Apr 16 20:16:45 2023


#       File generated by GOLD software.
#

@<TRIPOS>MOLECULE
CT1002167954|ligand_prepared|mol2|1|dock9
    29    30     1
SMALL
NO_CHARGES


@<TRIPOS>ATOM
      1 C1          -9.8850  -7.6645  17.4077 C.3            1 RES1               0.0000
      2 C2          -9.4925  -9.1008  17.0058 C.ar           1 RES1               0.0000
      3 C3          -9.0592  -6.7321  16.5263 C.2            1 RES1               0.0000
      4 C4         -11.3900  -7.5564  17.1889 C.2            1 RES1               0.0000
      5 C5          -9.5922  -7.3279  18.8884 C.3            1 RES1               0.0000
      6 C6          -9.2636 -10.0709  17.9770 C.ar           1 RES1               0.0000
      7 C7          -9.3583  -9.4708  15.6702 C.ar           1 RES1               0.0000
      8 N8          -9.7033  -6.0858  15.5127 N.am           1 RES1               0.0000
      9 O9          -7.8534  -6.5965  16.6933 O.2            1 RES1               0.0000
     10 N10        -11.8378  -6.7003  16.2171 N.am           1 RES1               0.0000
     11 O11        -12.1915  -8.2173  17.8379 O.2            1 RES1               0.0000
     12 C12         -9.7321  -5.8507  19.2207 C.3            1 RES1               0.0000
     13 C13         -8.9160 -11.3648  17.6258 C.ar           1 RES1               0.0000
     14 C14         -9.0104 -10.7653  15.3212 C.ar           1 RES1               0.0000
     15 C15        -11.0613  -5.9831  15.3483 C.2            1 RES1               0.0000
     16 C16         -8.7896 -11.7130  16.2978 C.ar           1 RES1               0.0000
     17 O17        -11.5379  -5.2763  14.4649 O.2            1 RES1               0.0000
     18 H18        -10.2805  -7.8994  19.5232 H              1 RES1               0.0000
     19 H19         -8.5707  -7.6484  19.1280 H              1 RES1               0.0000
     20 H20         -9.3559  -9.8149  19.0272 H              1 RES1               0.0000
     21 H21         -9.5261  -8.7416  14.8849 H              1 RES1               0.0000
     22 H22         -9.1215  -5.6374  14.8122 H              1 RES1               0.0000
     23 H23        -12.8430  -6.5871  16.1337 H              1 RES1               0.0000
     24 H24         -9.5158  -5.6695  20.2715 H              1 RES1               0.0000
     25 H25         -9.0438  -5.2545  18.6253 H              1 RES1               0.0000
     26 H26        -10.7434  -5.5040  19.0182 H              1 RES1               0.0000
     27 H27         -8.7420 -12.1066  18.3982 H              1 RES1               0.0000
     28 H28         -8.9114 -11.0347  14.2748 H              1 RES1               0.0000
     29 H29         -8.5177 -12.7268  16.0229 H              1 RES1               0.0000
@<TRIPOS>BOND
    1    1    2 1     
    2    1    3 1     
    3    1    4 1     
    4    1    5 1     
    5    2    6 ar    
    6    2    7 ar    
    7    3    8 1     
    8    3    9 2     
    9    4   10 1     
   10    4   11 2     
   11    5   12 1     
   12    5   18 1     
   13    5   19 1     
   14    6   13 ar    
   15    6   20 1     
   16    7   14 ar    
   17    7   21 1     
   18    8   15 1     
   19    8   22 1     
   20   10   15 1     
   21   10   23 1     
   22   12   24 1     
   23   12   25 1     
   24   12   26 1     
   25   13   16 ar    
   26   13   27 1     
   27   14   16 ar    
   28   14   28 1     
   29   15   17 2     
   30   16   29 1     
@<TRIPOS>SUBSTRUCTURE
      1 RES1           1
@<TRIPOS>SET
DONOR_HYDROGENS      STATIC     ATOMS    <user>   **** ""
2 22 23
ATOM$RED        STATIC     ATOMS    COLORGROUP SYSTEM
2 22 23
@<TRIPOS>COMMENT
> <Gold.Version>
2022.3.0

> <Gold.Id.Protein>
unknown|3ovv_clean|pdb

> <Gold.Protein.RotatedTorsions>
[  604  597  595  592 ] final   10.68 input   59.96 | X-H torsion
[  622  617  616  613 ] final -101.27 input   59.98 | X-H torsion
[ 2635 2624 2623 2622 ] final  -27.62 input   60.00 | X-H torsion
[ 3186 3179 3177 3174 ] final   28.56 input   59.97 | X-H torsion
[ 5212 5203 5202 5200 ] final   91.87 input   59.98 | X-H torsion

> <Gold.Protein.ActiveResidues>
 GLY50   THR51   GLY52   SER53   PHE54   GLY55   ARG56   VAL57   LYS72   GLU127 
 PHE129  ASP166  LYS168  GLU170  ASN171  THR183  ASP184  THR201  TYR330 

> <Gold.Protein.RotatedAtoms>
   -6.1419   -2.4715   14.0424 H   0  0  0  0  0  0  0  0  0  0  0  0  # atno 604  bound_to 597 
   -7.2189    2.7438   20.8263 H   0  0  0  0  0  0  0  0  0  0  0  0  # atno 622  bound_to 617 
  -15.2267   -0.5080   18.5277 H   0  0  0  0  0  0  0  0  0  0  0  0  # atno 2635 bound_to 2624
  -14.8499   -0.9937   20.0664 H   0  0  0  0  0  0  0  0  0  0  0  0  # atno 2636 bound_to 2624
  -13.8193   -1.3343   18.8137 H   0  0  0  0  0  0  0  0  0  0  0  0  # atno 2637 bound_to 2624
  -16.3180    0.2830   21.6385 H   0  0  0  0  0  0  0  0  0  0  0  0  # atno 3186 bound_to 3179
   -8.5408   -5.1400   11.6147 H   0  0  0  0  0  0  0  0  0  0  0  0  # atno 5212 bound_to 5203
   -5.1269   -2.4175   12.7717 LP  0  0  0  0  0  0  0  0  0  0  0  0  # atno 5529 bound_to 597 
   -5.1181   -1.2173   13.8790 LP  0  0  0  0  0  0  0  0  0  0  0  0  # atno 5530 bound_to 597 
   -7.6119    1.6833   21.9964 LP  0  0  0  0  0  0  0  0  0  0  0  0  # atno 5533 bound_to 617 
   -7.2875    1.1539   20.4861 LP  0  0  0  0  0  0  0  0  0  0  0  0  # atno 5534 bound_to 617 
  -15.7503    0.6508   20.1582 LP  0  0  0  0  0  0  0  0  0  0  0  0  # atno 5539 bound_to 3179
  -16.6655   -0.6838   20.3763 LP  0  0  0  0  0  0  0  0  0  0  0  0  # atno 5540 bound_to 3179
   -8.9315   -5.5874   10.0997 LP  0  0  0  0  0  0  0  0  0  0  0  0  # atno 5541 bound_to 5203
   -8.8281   -4.0040   10.4854 LP  0  0  0  0  0  0  0  0  0  0  0  0  # atno 5542 bound_to 5203

> <Gold.Score>
     Fitness  S(hb_ext) S(vdw_ext)  S(hb_int)    S(int)      intcor
     42.93       0.31      31.47       0.00      -0.65      -0.77

> <Gold.Goldscore.Fitness>
42.9327

> <Gold.Goldscore.Internal.Vdw>
-0.8615

> <Gold.Goldscore.Internal.Torsion>
-0.5568

> <Gold.Goldscore.External.Vdw>
31.4715

> <Gold.Goldscore.Internal.HBond>
0.0000

> <Gold.Goldscore.External.HBond>
0.3123

> <Gold.Goldscore.Internal.Correction>
-0.7653

> <Gold.Goldscore.Hbonds>
donor molecule, donor type, donor heavy atom, donor atom, acceptor molecule, acceptor atom, score
      L1  H    10    23       P1  2655  0.16

> <Gold.Goldscore.Internal.Vdw.Weighted>
-0.8615

> <Gold.Goldscore.Internal.Torsion.Weighted>
-0.5568

> <Gold.Goldscore.External.Vdw.Weighted>
43.2734

> <Gold.Goldscore.Internal.HBond.Weighted>
0.0000

> <Gold.Goldscore.External.HBond.Weighted>
0.3123

> <Gold.Goldscore.Internal.Correction.Weighted>
-0.7653

> <Gold.Rescore>
     Score     S(PLP)   S(hbond)     S(cho)   S(metal)  DE(clash)   DE(tors)     intcor
     46.32     -44.91       0.99       0.00       0.00       0.00       0.78       ----

> <Gold.PLP.Fitness>
46.3178

> <Gold.PLP.PLP>
-44.9115

> <Gold.PLP.part.hbond>
-3.1055

> <Gold.PLP.part.metal>
0.0000

> <Gold.PLP.part.buried>
-0.5567

> <Gold.PLP.part.nonpolar>
-43.5550

> <Gold.PLP.part.repulsive>
1.0772

> <Gold.PLP.ligand.clash>
0.0000

> <Gold.PLP.ligand.torsion>
0.7837

> <Gold.PLP.Chemscore.Hbond>
0.9913

> <Gold.PLP.Chemscore.CHOScore>
0.0000

> <Gold.PLP.Chemscore.Metal>
0.0000

> <Gold.Chemscore.Hbonds>
donor molecule, donor type, donor heavy atom, donor atom, acceptor molecule, acceptor atom, score
      L1  H    10    23       P1  2655  0.75

> <Gold.PLP.Chemscore.Internal.Correction>
   9.000000E+99

