#       Name:                CT1002167954
#       Creating user name   hitesit
#       Creation time:       Sun Apr 16 20:16:40 2023


#       File generated by GOLD software.
#

@<TRIPOS>MOLECULE
CT1002167954|ligand_prepared|mol2|1|dock4
    29    30     1
SMALL
NO_CHARGES


@<TRIPOS>ATOM
      1 C1          -9.3315  -7.6410  17.6777 C.3            1 RES1               0.0000
      2 C2          -8.1140  -6.8697  18.2268 C.ar           1 RES1               0.0000
      3 C3          -9.1391  -7.7257  16.1664 C.2            1 RES1               0.0000
      4 C4          -9.3325  -8.9935  18.3815 C.2            1 RES1               0.0000
      5 C5         -10.6871  -6.9532  17.9625 C.3            1 RES1               0.0000
      6 C6          -7.0092  -6.6208  17.4179 C.ar           1 RES1               0.0000
      7 C7          -8.0821  -6.3993  19.5369 C.ar           1 RES1               0.0000
      8 N8          -8.7748  -8.9309  15.6425 N.am           1 RES1               0.0000
      9 O9          -9.2664  -6.7405  15.4498 O.2            1 RES1               0.0000
     10 N10         -9.1143 -10.1128  17.6218 N.am           1 RES1               0.0000
     11 O11         -9.5038  -9.0986  19.5898 O.2            1 RES1               0.0000
     12 C12        -11.8472  -7.5323  17.1682 C.3            1 RES1               0.0000
     13 C13         -5.9135  -5.9244  17.9002 C.ar           1 RES1               0.0000
     14 C14         -6.9852  -5.7032  20.0173 C.ar           1 RES1               0.0000
     15 C15         -8.8050 -10.1403  16.2892 C.2            1 RES1               0.0000
     16 C16         -5.9009  -5.4648  19.1999 C.ar           1 RES1               0.0000
     17 O17         -8.5683 -11.1836  15.6869 O.2            1 RES1               0.0000
     18 H18        -10.9114  -7.0443  19.0324 H              1 RES1               0.0000
     19 H19        -10.5973  -5.8852  17.7284 H              1 RES1               0.0000
     20 H20         -7.0001  -6.9769  16.3931 H              1 RES1               0.0000
     21 H21         -8.9235  -6.5761  20.1982 H              1 RES1               0.0000
     22 H22         -8.4498  -8.9333  14.6809 H              1 RES1               0.0000
     23 H23         -9.1896 -11.0086  18.0933 H              1 RES1               0.0000
     24 H24        -12.7740  -7.0141  17.4055 H              1 RES1               0.0000
     25 H25        -11.6692  -7.4357  16.0992 H              1 RES1               0.0000
     26 H26        -11.9814  -8.5879  17.3954 H              1 RES1               0.0000
     27 H27         -5.0621  -5.7405  17.2533 H              1 RES1               0.0000
     28 H28         -6.9793  -5.3439  21.0410 H              1 RES1               0.0000
     29 H29         -5.0426  -4.9189  19.5774 H              1 RES1               0.0000
@<TRIPOS>BOND
    1    1    2 1     
    2    1    3 1     
    3    1    4 1     
    4    1    5 1     
    5    2    6 ar    
    6    2    7 ar    
    7    3    8 1     
    8    3    9 2     
    9    4   10 1     
   10    4   11 2     
   11    5   12 1     
   12    5   18 1     
   13    5   19 1     
   14    6   13 ar    
   15    6   20 1     
   16    7   14 ar    
   17    7   21 1     
   18    8   15 1     
   19    8   22 1     
   20   10   15 1     
   21   10   23 1     
   22   12   24 1     
   23   12   25 1     
   24   12   26 1     
   25   13   16 ar    
   26   13   27 1     
   27   14   16 ar    
   28   14   28 1     
   29   15   17 2     
   30   16   29 1     
@<TRIPOS>SUBSTRUCTURE
      1 RES1           1
@<TRIPOS>SET
DONOR_HYDROGENS      STATIC     ATOMS    <user>   **** ""
2 22 23
ATOM$RED        STATIC     ATOMS    COLORGROUP SYSTEM
2 22 23
@<TRIPOS>COMMENT
> <Gold.Version>
2022.3.0

> <Gold.Id.Protein>
unknown|3ovv_clean|pdb

> <Gold.Protein.RotatedTorsions>
[  604  597  595  592 ] final  -66.74 input   59.96 | X-H torsion
[  622  617  616  613 ] final   10.85 input   59.98 | X-H torsion
[ 2635 2624 2623 2622 ] final  105.64 input   60.00 | X-H torsion
[ 3186 3179 3177 3174 ] final  102.47 input   59.97 | X-H torsion
[ 5212 5203 5202 5200 ] final   93.05 input   59.98 | X-H torsion

> <Gold.Protein.ActiveResidues>
 GLY50   THR51   GLY52   SER53   PHE54   GLY55   ARG56   VAL57   LYS72   GLU127 
 PHE129  ASP166  LYS168  GLU170  ASN171  THR183  ASP184  THR201  TYR330 

> <Gold.Protein.RotatedAtoms>
   -5.6159   -2.8033   13.0506 H   0  0  0  0  0  0  0  0  0  0  0  0  # atno 604  bound_to 597 
   -7.2558    1.2492   20.4046 H   0  0  0  0  0  0  0  0  0  0  0  0  # atno 622  bound_to 617 
  -14.6576   -1.1022   20.0793 H   0  0  0  0  0  0  0  0  0  0  0  0  # atno 2635 bound_to 2624
  -13.8907   -1.2594   18.6189 H   0  0  0  0  0  0  0  0  0  0  0  0  # atno 2636 bound_to 2624
  -15.3477   -0.4744   18.7099 H   0  0  0  0  0  0  0  0  0  0  0  0  # atno 2637 bound_to 2624
  -16.7703   -0.5959   21.0991 H   0  0  0  0  0  0  0  0  0  0  0  0  # atno 3186 bound_to 3179
   -8.5397   -5.1212   11.6190 H   0  0  0  0  0  0  0  0  0  0  0  0  # atno 5212 bound_to 5203
   -4.8105   -1.4114   13.2989 LP  0  0  0  0  0  0  0  0  0  0  0  0  # atno 5529 bound_to 597 
   -5.9644   -1.8893   14.3509 LP  0  0  0  0  0  0  0  0  0  0  0  0  # atno 5530 bound_to 597 
   -7.2473    2.7837   20.9460 LP  0  0  0  0  0  0  0  0  0  0  0  0  # atno 5533 bound_to 617 
   -7.6150    1.5587   21.9612 LP  0  0  0  0  0  0  0  0  0  0  0  0  # atno 5534 bound_to 617 
  -15.9137    0.7771   21.2729 LP  0  0  0  0  0  0  0  0  0  0  0  0  # atno 5539 bound_to 3179
  -16.0467    0.0748   19.8047 LP  0  0  0  0  0  0  0  0  0  0  0  0  # atno 5540 bound_to 3179
   -8.9280   -5.6008   10.1133 LP  0  0  0  0  0  0  0  0  0  0  0  0  # atno 5541 bound_to 5203
   -8.8327   -4.0095   10.4674 LP  0  0  0  0  0  0  0  0  0  0  0  0  # atno 5542 bound_to 5203

> <Gold.Score>
     Fitness  S(hb_ext) S(vdw_ext)  S(hb_int)    S(int)      intcor
     41.64       0.00      31.92       0.00      -2.26      -0.78

> <Gold.Goldscore.Fitness>
41.6365

> <Gold.Goldscore.Internal.Vdw>
-2.4078

> <Gold.Goldscore.Internal.Torsion>
-0.6326

> <Gold.Goldscore.External.Vdw>
31.9223

> <Gold.Goldscore.Internal.HBond>
0.0000

> <Gold.Goldscore.External.HBond>
0.0000

> <Gold.Goldscore.Internal.Correction>
-0.7838

> <Gold.Goldscore.Internal.Vdw.Weighted>
-2.4078

> <Gold.Goldscore.Internal.Torsion.Weighted>
-0.6326

> <Gold.Goldscore.External.Vdw.Weighted>
43.8931

> <Gold.Goldscore.Internal.HBond.Weighted>
0.0000

> <Gold.Goldscore.External.HBond.Weighted>
0.0000

> <Gold.Goldscore.Internal.Correction.Weighted>
-0.7838

> <Gold.Rescore>
     Score     S(PLP)   S(hbond)     S(cho)   S(metal)  DE(clash)   DE(tors)     intcor
     36.08     -38.40       0.00       0.00       0.00       1.89       0.22       ----

> <Gold.PLP.Fitness>
36.0777

> <Gold.PLP.PLP>
-38.3976

> <Gold.PLP.part.hbond>
-0.4209

> <Gold.PLP.part.metal>
0.0000

> <Gold.PLP.part.buried>
-3.7319

> <Gold.PLP.part.nonpolar>
-35.2868

> <Gold.PLP.part.repulsive>
0.2799

> <Gold.PLP.ligand.clash>
1.8886

> <Gold.PLP.ligand.torsion>
0.2156

> <Gold.PLP.Chemscore.Hbond>
0.0000

> <Gold.PLP.Chemscore.CHOScore>
0.0000

> <Gold.PLP.Chemscore.Metal>
0.0000

> <Gold.PLP.Chemscore.Internal.Correction>
   9.000000E+99

