#       Name:                CT1002167954
#       Creating user name   hitesit
#       Creation time:       Sun Apr 16 20:16:44 2023


#       File generated by GOLD software.
#

@<TRIPOS>MOLECULE
CT1002167954|ligand_prepared|mol2|1|dock7
    29    30     1
SMALL
NO_CHARGES


@<TRIPOS>ATOM
      1 C1          -9.4135  -8.1565  16.0260 C.3            1 RES1               0.0000
      2 C2          -9.1292  -8.4592  17.5114 C.ar           1 RES1               0.0000
      3 C3         -10.9256  -8.2601  15.8494 C.2            1 RES1               0.0000
      4 C4          -8.8498  -6.7653  15.7587 C.2            1 RES1               0.0000
      5 C5          -8.7359  -9.1428  15.0465 C.3            1 RES1               0.0000
      6 C6          -9.3149  -9.7406  18.0215 C.ar           1 RES1               0.0000
      7 C7          -8.6792  -7.4699  18.3816 C.ar           1 RES1               0.0000
      8 N8         -11.6252  -7.0991  15.6990 N.am           1 RES1               0.0000
      9 O9         -11.5000  -9.3414  15.8813 O.2            1 RES1               0.0000
     10 N10         -9.7321  -5.7637  15.4485 N.am           1 RES1               0.0000
     11 O11         -7.6512  -6.5236  15.8303 O.2            1 RES1               0.0000
     12 C12         -9.2217  -9.0128  13.6115 C.3            1 RES1               0.0000
     13 C13         -9.0571 -10.0236  19.3526 C.ar           1 RES1               0.0000
     14 C14         -8.4222  -7.7549  19.7124 C.ar           1 RES1               0.0000
     15 C15        -11.0969  -5.8606  15.4367 C.2            1 RES1               0.0000
     16 C16         -8.6102  -9.0312  20.1988 C.ar           1 RES1               0.0000
     17 O17        -11.8256  -4.9011  15.2014 O.2            1 RES1               0.0000
     18 H18         -7.6521  -8.9742  15.0690 H              1 RES1               0.0000
     19 H19         -8.9231 -10.1673  15.3912 H              1 RES1               0.0000
     20 H20         -9.6683 -10.5339  17.3712 H              1 RES1               0.0000
     21 H21         -8.5252  -6.4584  18.0212 H              1 RES1               0.0000
     22 H22        -12.6344  -7.1570  15.7901 H              1 RES1               0.0000
     23 H23         -9.3346  -4.8624  15.2036 H              1 RES1               0.0000
     24 H24         -8.7146  -9.7272  12.9664 H              1 RES1               0.0000
     25 H25        -10.2918  -9.1991  13.5481 H              1 RES1               0.0000
     26 H26         -9.0284  -8.0131  13.2279 H              1 RES1               0.0000
     27 H27         -9.2080 -11.0293  19.7307 H              1 RES1               0.0000
     28 H28         -8.0713  -6.9706  20.3750 H              1 RES1               0.0000
     29 H29         -8.4080  -9.2531  21.2414 H              1 RES1               0.0000
@<TRIPOS>BOND
    1    1    2 1     
    2    1    3 1     
    3    1    4 1     
    4    1    5 1     
    5    2    6 ar    
    6    2    7 ar    
    7    3    8 1     
    8    3    9 2     
    9    4   10 1     
   10    4   11 2     
   11    5   12 1     
   12    5   18 1     
   13    5   19 1     
   14    6   13 ar    
   15    6   20 1     
   16    7   14 ar    
   17    7   21 1     
   18    8   15 1     
   19    8   22 1     
   20   10   15 1     
   21   10   23 1     
   22   12   24 1     
   23   12   25 1     
   24   12   26 1     
   25   13   16 ar    
   26   13   27 1     
   27   14   16 ar    
   28   14   28 1     
   29   15   17 2     
   30   16   29 1     
@<TRIPOS>SUBSTRUCTURE
      1 RES1           1
@<TRIPOS>SET
DONOR_HYDROGENS      STATIC     ATOMS    <user>   **** ""
2 22 23
ATOM$RED        STATIC     ATOMS    COLORGROUP SYSTEM
2 22 23
@<TRIPOS>COMMENT
> <Gold.Version>
2022.3.0

> <Gold.Id.Protein>
unknown|3ovv_clean|pdb

> <Gold.Protein.RotatedTorsions>
[  604  597  595  592 ] final -158.61 input   59.96 | X-H torsion
[  622  617  616  613 ] final  132.54 input   59.98 | X-H torsion
[ 2635 2624 2623 2622 ] final   99.71 input   60.00 | X-H torsion
[ 3186 3179 3177 3174 ] final  -26.69 input   59.97 | X-H torsion
[ 5212 5203 5202 5200 ] final   82.16 input   59.98 | X-H torsion

> <Gold.Protein.ActiveResidues>
 GLY50   THR51   GLY52   SER53   PHE54   GLY55   ARG56   VAL57   LYS72   GLU127 
 PHE129  ASP166  LYS168  GLU170  ASN171  THR183  ASP184  THR201  TYR330 

> <Gold.Protein.RotatedAtoms>
   -4.7969   -1.7384   12.9804 H   0  0  0  0  0  0  0  0  0  0  0  0  # atno 604  bound_to 597 
   -7.6107    1.5867   21.9647 H   0  0  0  0  0  0  0  0  0  0  0  0  # atno 622  bound_to 617 
  -14.7443   -1.0545   20.0796 H   0  0  0  0  0  0  0  0  0  0  0  0  # atno 2635 bound_to 2624
  -13.8535   -1.2952   18.7034 H   0  0  0  0  0  0  0  0  0  0  0  0  # atno 2636 bound_to 2624
  -15.2981   -0.4863   18.6251 H   0  0  0  0  0  0  0  0  0  0  0  0  # atno 2637 bound_to 2624
  -15.8557    0.8266   21.1435 H   0  0  0  0  0  0  0  0  0  0  0  0  # atno 3186 bound_to 3179
   -8.5541   -5.2899   11.5647 H   0  0  0  0  0  0  0  0  0  0  0  0  # atno 5212 bound_to 5203
   -5.6855   -1.5266   14.3270 LP  0  0  0  0  0  0  0  0  0  0  0  0  # atno 5529 bound_to 597 
   -5.9143   -2.8467   13.3934 LP  0  0  0  0  0  0  0  0  0  0  0  0  # atno 5530 bound_to 597 
   -7.2636    1.2245   20.4166 LP  0  0  0  0  0  0  0  0  0  0  0  0  # atno 5533 bound_to 617 
   -7.2413    2.7780   20.9195 LP  0  0  0  0  0  0  0  0  0  0  0  0  # atno 5534 bound_to 617 
  -16.1281   -0.0518   19.8007 LP  0  0  0  0  0  0  0  0  0  0  0  0  # atno 5539 bound_to 3179
  -16.7530   -0.5284   21.2321 LP  0  0  0  0  0  0  0  0  0  0  0  0  # atno 5540 bound_to 3179
   -8.9571   -5.4669    9.9981 LP  0  0  0  0  0  0  0  0  0  0  0  0  # atno 5541 bound_to 5203
   -8.7892   -3.9736   10.6373 LP  0  0  0  0  0  0  0  0  0  0  0  0  # atno 5542 bound_to 5203

> <Gold.Score>
     Fitness  S(hb_ext) S(vdw_ext)  S(hb_int)    S(int)      intcor
     41.46       1.65      31.43       0.00      -3.41      -0.77

> <Gold.Goldscore.Fitness>
41.4618

> <Gold.Goldscore.Internal.Vdw>
-3.6092

> <Gold.Goldscore.Internal.Torsion>
-0.5623

> <Gold.Goldscore.External.Vdw>
31.4324

> <Gold.Goldscore.Internal.HBond>
0.0000

> <Gold.Goldscore.External.HBond>
1.6485

> <Gold.Goldscore.Internal.Correction>
-0.7653

> <Gold.Goldscore.Hbonds>
donor molecule, donor type, donor heavy atom, donor atom, acceptor molecule, acceptor atom, score
      L1  H     8    22       P1  2655  0.82

> <Gold.Goldscore.Internal.Vdw.Weighted>
-3.6092

> <Gold.Goldscore.Internal.Torsion.Weighted>
-0.5623

> <Gold.Goldscore.External.Vdw.Weighted>
43.2195

> <Gold.Goldscore.Internal.HBond.Weighted>
0.0000

> <Gold.Goldscore.External.HBond.Weighted>
1.6485

> <Gold.Goldscore.Internal.Correction.Weighted>
-0.7653

> <Gold.Rescore>
     Score     S(PLP)   S(hbond)     S(cho)   S(metal)  DE(clash)   DE(tors)     intcor
     43.16     -39.46       2.00       0.00       0.00       0.00       1.15       ----

> <Gold.PLP.Fitness>
43.1557

> <Gold.PLP.PLP>
-39.4629

> <Gold.PLP.part.hbond>
-3.2240

> <Gold.PLP.part.metal>
0.0000

> <Gold.PLP.part.buried>
-0.5613

> <Gold.PLP.part.nonpolar>
-38.3129

> <Gold.PLP.part.repulsive>
1.5662

> <Gold.PLP.ligand.clash>
0.0000

> <Gold.PLP.ligand.torsion>
1.1536

> <Gold.PLP.Chemscore.Hbond>
2.0000

> <Gold.PLP.Chemscore.CHOScore>
0.0000

> <Gold.PLP.Chemscore.Metal>
0.0000

> <Gold.Chemscore.Hbonds>
donor molecule, donor type, donor heavy atom, donor atom, acceptor molecule, acceptor atom, score
      L1  H     8    22       P1  2655  0.91

> <Gold.PLP.Chemscore.Internal.Correction>
   9.000000E+99

