#       Name:                CT1002167954
#       Creating user name   hitesit
#       Creation time:       Sun Apr 16 20:16:42 2023


#       File generated by GOLD software.
#

@<TRIPOS>MOLECULE
CT1002167954|ligand_prepared|mol2|1|dock5
    29    30     1
SMALL
NO_CHARGES


@<TRIPOS>ATOM
      1 C1          -9.2485  -6.2764  17.5698 C.3            1 RES1               0.0000
      2 C2          -7.9226  -5.9295  18.2773 C.ar           1 RES1               0.0000
      3 C3          -9.6310  -5.0474  16.7502 C.2            1 RES1               0.0000
      4 C4          -8.9727  -7.5209  16.7332 C.2            1 RES1               0.0000
      5 C5         -10.4083  -6.6002  18.5400 C.3            1 RES1               0.0000
      6 C6          -7.9149  -5.5236  19.6085 C.ar           1 RES1               0.0000
      7 C7          -6.7013  -6.0130  17.6140 C.ar           1 RES1               0.0000
      8 N8          -9.4744  -5.1165  15.3972 N.am           1 RES1               0.0000
      9 O9         -10.0266  -4.0196  17.2863 O.2            1 RES1               0.0000
     10 N10         -9.0404  -7.4058  15.3694 N.am           1 RES1               0.0000
     11 O11         -8.6810  -8.5961  17.2423 O.2            1 RES1               0.0000
     12 C12        -11.5984  -7.2699  17.8710 C.3            1 RES1               0.0000
     13 C13         -6.7290  -5.2152  20.2541 C.ar           1 RES1               0.0000
     14 C14         -5.5165  -5.7039  18.2615 C.ar           1 RES1               0.0000
     15 C15         -9.2486  -6.2528  14.6627 C.2            1 RES1               0.0000
     16 C16         -5.5291  -5.3056  19.5813 C.ar           1 RES1               0.0000
     17 O17         -9.2414  -6.2194  13.4355 O.2            1 RES1               0.0000
     18 H18        -10.0322  -7.2587  19.3326 H              1 RES1               0.0000
     19 H19        -10.7460  -5.6684  19.0103 H              1 RES1               0.0000
     20 H20         -8.8496  -5.4443  20.1535 H              1 RES1               0.0000
     21 H21         -6.6674  -6.3231  16.5751 H              1 RES1               0.0000
     22 H22         -9.5304  -4.2425  14.8841 H              1 RES1               0.0000
     23 H23         -8.9250  -8.2587  14.8313 H              1 RES1               0.0000
     24 H24        -12.3833  -7.4751  18.5960 H              1 RES1               0.0000
     25 H25        -12.0135  -6.6316  17.0938 H              1 RES1               0.0000
     26 H26        -11.3040  -8.2125  17.4142 H              1 RES1               0.0000
     27 H27         -6.7444  -4.9009  21.2924 H              1 RES1               0.0000
     28 H28         -4.5745  -5.7758  17.7278 H              1 RES1               0.0000
     29 H29         -4.6002  -5.0643  20.0873 H              1 RES1               0.0000
@<TRIPOS>BOND
    1    1    2 1     
    2    1    3 1     
    3    1    4 1     
    4    1    5 1     
    5    2    6 ar    
    6    2    7 ar    
    7    3    8 1     
    8    3    9 2     
    9    4   10 1     
   10    4   11 2     
   11    5   12 1     
   12    5   18 1     
   13    5   19 1     
   14    6   13 ar    
   15    6   20 1     
   16    7   14 ar    
   17    7   21 1     
   18    8   15 1     
   19    8   22 1     
   20   10   15 1     
   21   10   23 1     
   22   12   24 1     
   23   12   25 1     
   24   12   26 1     
   25   13   16 ar    
   26   13   27 1     
   27   14   16 ar    
   28   14   28 1     
   29   15   17 2     
   30   16   29 1     
@<TRIPOS>SUBSTRUCTURE
      1 RES1           1
@<TRIPOS>SET
DONOR_HYDROGENS      STATIC     ATOMS    <user>   **** ""
2 22 23
ATOM$RED        STATIC     ATOMS    COLORGROUP SYSTEM
2 22 23
@<TRIPOS>COMMENT
> <Gold.Version>
2022.3.0

> <Gold.Id.Protein>
unknown|3ovv_clean|pdb

> <Gold.Protein.RotatedTorsions>
[  604  597  595  592 ] final   75.92 input   59.96 | X-H torsion
[  622  617  616  613 ] final  -53.66 input   59.98 | X-H torsion
[ 2635 2624 2623 2622 ] final   86.98 input   60.00 | X-H torsion
[ 3186 3179 3177 3174 ] final   51.68 input   59.97 | X-H torsion
[ 5212 5203 5202 5200 ] final  -49.59 input   59.98 | X-H torsion

> <Gold.Protein.ActiveResidues>
 GLY50   THR51   GLY52   SER53   PHE54   GLY55   ARG56   VAL57   LYS72   GLU127 
 PHE129  ASP166  LYS168  GLU170  ASN171  THR183  ASP184  THR201  TYR330 

> <Gold.Protein.RotatedAtoms>
   -5.7427   -1.5943   14.3421 H   0  0  0  0  0  0  0  0  0  0  0  0  # atno 604  bound_to 597 
   -7.1311    2.2324   20.2768 H   0  0  0  0  0  0  0  0  0  0  0  0  # atno 622  bound_to 617 
  -14.9253   -0.9489   20.0464 H   0  0  0  0  0  0  0  0  0  0  0  0  # atno 2635 bound_to 2624
  -13.8023   -1.3589   18.8993 H   0  0  0  0  0  0  0  0  0  0  0  0  # atno 2636 bound_to 2624
  -15.1684   -0.5282   18.4624 H   0  0  0  0  0  0  0  0  0  0  0  0  # atno 2637 bound_to 2624
  -16.5183   -0.0335   21.6143 H   0  0  0  0  0  0  0  0  0  0  0  0  # atno 3186 bound_to 3179
   -8.9773   -5.2975    9.9093 H   0  0  0  0  0  0  0  0  0  0  0  0  # atno 5212 bound_to 5203
   -5.8632   -2.8545   13.3197 LP  0  0  0  0  0  0  0  0  0  0  0  0  # atno 5529 bound_to 597 
   -4.7840   -1.6639   13.0292 LP  0  0  0  0  0  0  0  0  0  0  0  0  # atno 5530 bound_to 597 
   -7.5054    2.4224   21.8490 LP  0  0  0  0  0  0  0  0  0  0  0  0  # atno 5533 bound_to 617 
   -7.4825    0.9299   21.1868 LP  0  0  0  0  0  0  0  0  0  0  0  0  # atno 5534 bound_to 617 
  -15.7108    0.8245   20.4916 LP  0  0  0  0  0  0  0  0  0  0  0  0  # atno 5539 bound_to 3179
  -16.5032   -0.5388   20.0673 LP  0  0  0  0  0  0  0  0  0  0  0  0  # atno 5540 bound_to 3179
   -8.7414   -3.9727   10.8243 LP  0  0  0  0  0  0  0  0  0  0  0  0  # atno 5541 bound_to 5203
   -8.5786   -5.4600   11.4786 LP  0  0  0  0  0  0  0  0  0  0  0  0  # atno 5542 bound_to 5203

> <Gold.Score>
     Fitness  S(hb_ext) S(vdw_ext)  S(hb_int)    S(int)      intcor
     38.43       0.00      28.45       0.00      -0.68      -0.78

> <Gold.Goldscore.Fitness>
38.4314

> <Gold.Goldscore.Internal.Vdw>
-0.7853

> <Gold.Goldscore.Internal.Torsion>
-0.6806

> <Gold.Goldscore.External.Vdw>
28.4462

> <Gold.Goldscore.Internal.HBond>
0.0000

> <Gold.Goldscore.External.HBond>
0.0000

> <Gold.Goldscore.Internal.Correction>
-0.7838

> <Gold.Goldscore.Internal.Vdw.Weighted>
-0.7853

> <Gold.Goldscore.Internal.Torsion.Weighted>
-0.6806

> <Gold.Goldscore.External.Vdw.Weighted>
39.1135

> <Gold.Goldscore.Internal.HBond.Weighted>
0.0000

> <Gold.Goldscore.External.HBond.Weighted>
0.0000

> <Gold.Goldscore.Internal.Correction.Weighted>
-0.7838

> <Gold.Rescore>
     Score     S(PLP)   S(hbond)     S(cho)   S(metal)  DE(clash)   DE(tors)     intcor
     34.34     -36.18       0.00       0.00       0.00       1.32       0.26       ----

> <Gold.PLP.Fitness>
34.3436

> <Gold.PLP.PLP>
-36.1803

> <Gold.PLP.part.hbond>
-1.4697

> <Gold.PLP.part.metal>
0.0000

> <Gold.PLP.part.buried>
-3.6636

> <Gold.PLP.part.nonpolar>
-32.1368

> <Gold.PLP.part.repulsive>
0.5107

> <Gold.PLP.ligand.clash>
1.3184

> <Gold.PLP.ligand.torsion>
0.2591

> <Gold.PLP.Chemscore.Hbond>
0.0000

> <Gold.PLP.Chemscore.CHOScore>
0.0000

> <Gold.PLP.Chemscore.Metal>
0.0000

> <Gold.PLP.Chemscore.Internal.Correction>
   9.000000E+99

