#       Name:                CT1002167954
#       Creating user name   hitesit
#       Creation time:       Sun Apr 16 20:16:37 2023


#       File generated by GOLD software.
#

@<TRIPOS>MOLECULE
CT1002167954|ligand_prepared|mol2|1|dock1
    29    30     1
SMALL
NO_CHARGES


@<TRIPOS>ATOM
      1 C1          -9.9116  -8.0318  17.4711 C.3            1 RES1               0.0000
      2 C2          -9.5578  -9.4224  18.0367 C.ar           1 RES1               0.0000
      3 C3         -10.5873  -7.2671  18.6055 C.2            1 RES1               0.0000
      4 C4          -8.5984  -7.4157  17.0012 C.2            1 RES1               0.0000
      5 C5         -10.8776  -8.0754  16.2643 C.3            1 RES1               0.0000
      6 C6          -9.2097  -9.5753  19.3754 C.ar           1 RES1               0.0000
      7 C7          -9.5777 -10.5600  17.2341 C.ar           1 RES1               0.0000
      8 N8          -9.8715  -6.2801  19.2165 N.am           1 RES1               0.0000
      9 O9         -11.7166  -7.5523  18.9845 O.2            1 RES1               0.0000
     10 N10         -8.1405  -6.3029  17.6567 N.am           1 RES1               0.0000
     11 O11         -7.9478  -7.8937  16.0801 O.2            1 RES1               0.0000
     12 C12        -11.5067  -6.7311  15.9337 C.3            1 RES1               0.0000
     13 C13         -8.8958 -10.8207  19.8938 C.ar           1 RES1               0.0000
     14 C14         -9.2631 -11.8045  17.7545 C.ar           1 RES1               0.0000
     15 C15         -8.7019  -5.7253  18.7628 C.2            1 RES1               0.0000
     16 C16         -8.9227 -11.9361  19.0839 C.ar           1 RES1               0.0000
     17 O17         -8.2012  -4.7582  19.3296 O.2            1 RES1               0.0000
     18 H18        -10.3284  -8.4340  15.3851 H              1 RES1               0.0000
     19 H19        -11.6767  -8.7962  16.4775 H              1 RES1               0.0000
     20 H20         -9.1807  -8.7087  20.0274 H              1 RES1               0.0000
     21 H21         -9.8415 -10.4801  16.1850 H              1 RES1               0.0000
     22 H22        -10.2398  -5.9215  20.0917 H              1 RES1               0.0000
     23 H23         -7.3036  -5.8644  17.2856 H              1 RES1               0.0000
     24 H24        -12.1753  -6.8177  15.0798 H              1 RES1               0.0000
     25 H25        -12.0819  -6.3563  16.7778 H              1 RES1               0.0000
     26 H26        -10.7416  -5.9963  15.6918 H              1 RES1               0.0000
     27 H27         -8.6271 -10.9187  20.9404 H              1 RES1               0.0000
     28 H28         -9.2850 -12.6795  17.1133 H              1 RES1               0.0000
     29 H29         -8.6771 -12.9116  19.4904 H              1 RES1               0.0000
@<TRIPOS>BOND
    1    1    2 1     
    2    1    3 1     
    3    1    4 1     
    4    1    5 1     
    5    2    6 ar    
    6    2    7 ar    
    7    3    8 1     
    8    3    9 2     
    9    4   10 1     
   10    4   11 2     
   11    5   12 1     
   12    5   18 1     
   13    5   19 1     
   14    6   13 ar    
   15    6   20 1     
   16    7   14 ar    
   17    7   21 1     
   18    8   15 1     
   19    8   22 1     
   20   10   15 1     
   21   10   23 1     
   22   12   24 1     
   23   12   25 1     
   24   12   26 1     
   25   13   16 ar    
   26   13   27 1     
   27   14   16 ar    
   28   14   28 1     
   29   15   17 2     
   30   16   29 1     
@<TRIPOS>SUBSTRUCTURE
      1 RES1           1
@<TRIPOS>SET
DONOR_HYDROGENS      STATIC     ATOMS    <user>   **** ""
2 22 23
ATOM$RED        STATIC     ATOMS    COLORGROUP SYSTEM
2 22 23
@<TRIPOS>COMMENT
> <Gold.Version>
2022.3.0

> <Gold.Id.Protein>
unknown|3ovv_clean|pdb

> <Gold.Protein.RotatedTorsions>
[  604  597  595  592 ] final   24.43 input   59.96 | X-H torsion
[  622  617  616  613 ] final -159.42 input   59.98 | X-H torsion
[ 2635 2624 2623 2622 ] final  100.39 input   60.00 | X-H torsion
[ 3186 3179 3177 3174 ] final    9.90 input   59.97 | X-H torsion
[ 5212 5203 5202 5200 ] final   77.59 input   59.98 | X-H torsion

> <Gold.Protein.ActiveResidues>
 GLY50   THR51   GLY52   SER53   PHE54   GLY55   ARG56   VAL57   LYS72   GLU127 
 PHE129  ASP166  LYS168  GLU170  ASN171  THR183  ASP184  THR201  TYR330 

> <Gold.Protein.RotatedAtoms>
   -6.1212   -2.2955   14.1797 H   0  0  0  0  0  0  0  0  0  0  0  0  # atno 604  bound_to 597 
   -7.4487    2.5853   21.6923 H   0  0  0  0  0  0  0  0  0  0  0  0  # atno 622  bound_to 617 
  -14.7344   -1.0601   20.0801 H   0  0  0  0  0  0  0  0  0  0  0  0  # atno 2635 bound_to 2624
  -13.8574   -1.2913   18.6934 H   0  0  0  0  0  0  0  0  0  0  0  0  # atno 2636 bound_to 2624
  -15.3042   -0.4847   18.6346 H   0  0  0  0  0  0  0  0  0  0  0  0  # atno 2637 bound_to 2624
  -16.1463    0.5174   21.5506 H   0  0  0  0  0  0  0  0  0  0  0  0  # atno 3186 bound_to 3179
   -8.5624   -5.3568   11.5329 H   0  0  0  0  0  0  0  0  0  0  0  0  # atno 5212 bound_to 5203
   -5.2780   -2.5791   12.8172 LP  0  0  0  0  0  0  0  0  0  0  0  0  # atno 5529 bound_to 597 
   -4.9879   -1.2332   13.6952 LP  0  0  0  0  0  0  0  0  0  0  0  0  # atno 5530 bound_to 597 
   -7.5322    0.9852   21.4085 LP  0  0  0  0  0  0  0  0  0  0  0  0  # atno 5533 bound_to 617 
   -7.1358    2.0117   20.2019 LP  0  0  0  0  0  0  0  0  0  0  0  0  # atno 5534 bound_to 617 
  -15.8406    0.4424   19.9538 LP  0  0  0  0  0  0  0  0  0  0  0  0  # atno 5539 bound_to 3179
  -16.7480   -0.7114   20.6693 LP  0  0  0  0  0  0  0  0  0  0  0  0  # atno 5540 bound_to 3179
   -8.9672   -5.4045    9.9575 LP  0  0  0  0  0  0  0  0  0  0  0  0  # atno 5541 bound_to 5203
   -8.7706   -3.9685   10.7099 LP  0  0  0  0  0  0  0  0  0  0  0  0  # atno 5542 bound_to 5203

> <Gold.Score>
     Fitness  S(hb_ext) S(vdw_ext)  S(hb_int)    S(int)      intcor
     48.11       3.16      33.11       0.00      -0.57      -0.80

> <Gold.Goldscore.Fitness>
48.1098

> <Gold.Goldscore.Internal.Vdw>
-0.6595

> <Gold.Goldscore.Internal.Torsion>
-0.7144

> <Gold.Goldscore.External.Vdw>
33.1072

> <Gold.Goldscore.Internal.HBond>
0.0000

> <Gold.Goldscore.External.HBond>
3.1574

> <Gold.Goldscore.Internal.Correction>
-0.8038

> <Gold.Goldscore.Hbonds>
donor molecule, donor type, donor heavy atom, donor atom, acceptor molecule, acceptor atom, score
      L1  H     8    22       P1  2900  0.53

> <Gold.Goldscore.Internal.Vdw.Weighted>
-0.6595

> <Gold.Goldscore.Internal.Torsion.Weighted>
-0.7144

> <Gold.Goldscore.External.Vdw.Weighted>
45.5224

> <Gold.Goldscore.Internal.HBond.Weighted>
0.0000

> <Gold.Goldscore.External.HBond.Weighted>
3.1574

> <Gold.Goldscore.Internal.Correction.Weighted>
-0.8038

> <Gold.Rescore>
     Score     S(PLP)   S(hbond)     S(cho)   S(metal)  DE(clash)   DE(tors)     intcor
     41.26     -37.19       1.72       0.00       0.00       0.00       0.55       ----

> <Gold.PLP.Fitness>
41.2640

> <Gold.PLP.PLP>
-37.1916

> <Gold.PLP.part.hbond>
-2.0000

> <Gold.PLP.part.metal>
0.0000

> <Gold.PLP.part.buried>
2.7511

> <Gold.PLP.part.nonpolar>
-40.1451

> <Gold.PLP.part.repulsive>
1.2083

> <Gold.PLP.ligand.clash>
0.0000

> <Gold.PLP.ligand.torsion>
0.5459

> <Gold.PLP.Chemscore.Hbond>
1.7214

> <Gold.PLP.Chemscore.CHOScore>
0.0000

> <Gold.PLP.Chemscore.Metal>
0.0000

> <Gold.Chemscore.Hbonds>
donor molecule, donor type, donor heavy atom, donor atom, acceptor molecule, acceptor atom, score
      L1  H     8    22       P1  2900  1.00

> <Gold.PLP.Chemscore.Internal.Correction>
   9.000000E+99

