#       Name:                CT1002167954
#       Creating user name   hitesit
#       Creation time:       Sun Apr 16 20:16:43 2023


#       File generated by GOLD software.
#

@<TRIPOS>MOLECULE
CT1002167954|ligand_prepared|mol2|1|dock6
    29    30     1
SMALL
NO_CHARGES


@<TRIPOS>ATOM
      1 C1          -9.3703  -6.9715  17.1915 C.3            1 RES1               0.0000
      2 C2          -8.1696  -6.3808  17.9584 C.ar           1 RES1               0.0000
      3 C3         -10.4874  -7.1491  18.2157 C.2            1 RES1               0.0000
      4 C4          -9.6968  -5.9796  16.0806 C.2            1 RES1               0.0000
      5 C5          -9.0807  -8.3428  16.5378 C.3            1 RES1               0.0000
      6 C6          -6.9249  -6.2665  17.3465 C.ar           1 RES1               0.0000
      7 C7          -8.2916  -5.9442  19.2748 C.ar           1 RES1               0.0000
      8 N8         -11.5324  -6.2742  18.1690 N.am           1 RES1               0.0000
      9 O9         -10.4329  -8.0191  19.0763 O.2            1 RES1               0.0000
     10 N10        -10.8997  -5.3256  16.1368 N.am           1 RES1               0.0000
     11 O11         -8.9162  -5.7462  15.1660 O.2            1 RES1               0.0000
     12 C12        -10.2974  -8.9802  15.8855 C.3            1 RES1               0.0000
     13 C13         -5.8420  -5.7323  18.0251 C.ar           1 RES1               0.0000
     14 C14         -7.2074  -5.4105  19.9517 C.ar           1 RES1               0.0000
     15 C15        -11.8190  -5.4051  17.1471 C.2            1 RES1               0.0000
     16 C16         -5.9826  -5.3036  19.3278 C.ar           1 RES1               0.0000
     17 O17        -12.8535  -4.7441  17.1529 O.2            1 RES1               0.0000
     18 H18         -8.2997  -8.2139  15.7783 H              1 RES1               0.0000
     19 H19         -8.6933  -9.0248  17.3047 H              1 RES1               0.0000
     20 H20         -6.7945  -6.6008  16.3227 H              1 RES1               0.0000
     21 H21         -9.2453  -6.0195  19.7860 H              1 RES1               0.0000
     22 H22        -12.1586  -6.2651  18.9678 H              1 RES1               0.0000
     23 H23        -11.1312  -4.7238  15.3529 H              1 RES1               0.0000
     24 H24        -10.0392  -9.9398  15.4424 H              1 RES1               0.0000
     25 H25        -11.0851  -9.1460  16.6176 H              1 RES1               0.0000
     26 H26        -10.6939  -8.3400  15.1002 H              1 RES1               0.0000
     27 H27         -4.8799  -5.6516  17.5301 H              1 RES1               0.0000
     28 H28         -7.3224  -5.0749  20.9771 H              1 RES1               0.0000
     29 H29         -5.1343  -4.8848  19.8590 H              1 RES1               0.0000
@<TRIPOS>BOND
    1    1    2 1     
    2    1    3 1     
    3    1    4 1     
    4    1    5 1     
    5    2    6 ar    
    6    2    7 ar    
    7    3    8 1     
    8    3    9 2     
    9    4   10 1     
   10    4   11 2     
   11    5   12 1     
   12    5   18 1     
   13    5   19 1     
   14    6   13 ar    
   15    6   20 1     
   16    7   14 ar    
   17    7   21 1     
   18    8   15 1     
   19    8   22 1     
   20   10   15 1     
   21   10   23 1     
   22   12   24 1     
   23   12   25 1     
   24   12   26 1     
   25   13   16 ar    
   26   13   27 1     
   27   14   16 ar    
   28   14   28 1     
   29   15   17 2     
   30   16   29 1     
@<TRIPOS>SUBSTRUCTURE
      1 RES1           1
@<TRIPOS>SET
DONOR_HYDROGENS      STATIC     ATOMS    <user>   **** ""
2 22 23
ATOM$RED        STATIC     ATOMS    COLORGROUP SYSTEM
2 22 23
@<TRIPOS>COMMENT
> <Gold.Version>
2022.3.0

> <Gold.Id.Protein>
unknown|3ovv_clean|pdb

> <Gold.Protein.RotatedTorsions>
[  604  597  595  592 ] final  -52.57 input   59.96 | X-H torsion
[  622  617  616  613 ] final  -46.11 input   59.98 | X-H torsion
[ 2635 2624 2623 2622 ] final  126.83 input   60.00 | X-H torsion
[ 3186 3179 3177 3174 ] final   74.73 input   59.97 | X-H torsion
[ 5212 5203 5202 5200 ] final  139.64 input   59.98 | X-H torsion

> <Gold.Protein.ActiveResidues>
 GLY50   THR51   GLY52   SER53   PHE54   GLY55   ARG56   VAL57   LYS72   GLU127 
 PHE129  ASP166  LYS168  GLU170  ASN171  THR183  ASP184  THR201  TYR330 

> <Gold.Protein.RotatedAtoms>
   -5.7731   -2.8471   13.2138 H   0  0  0  0  0  0  0  0  0  0  0  0  # atno 604  bound_to 597 
   -7.1314    2.1168   20.2341 H   0  0  0  0  0  0  0  0  0  0  0  0  # atno 622  bound_to 617 
  -14.3520   -1.2554   19.9965 H   0  0  0  0  0  0  0  0  0  0  0  0  # atno 2635 bound_to 2624
  -14.0847   -1.1072   18.3680 H   0  0  0  0  0  0  0  0  0  0  0  0  # atno 2636 bound_to 2624
  -15.4592   -0.4735   19.0436 H   0  0  0  0  0  0  0  0  0  0  0  0  # atno 2637 bound_to 2624
  -16.6745   -0.3302   21.4482 H   0  0  0  0  0  0  0  0  0  0  0  0  # atno 3186 bound_to 3179
   -8.5705   -4.3929   11.4900 H   0  0  0  0  0  0  0  0  0  0  0  0  # atno 5212 bound_to 5203
   -4.7815   -1.5602   13.1226 LP  0  0  0  0  0  0  0  0  0  0  0  0  # atno 5529 bound_to 597 
   -5.8351   -1.6965   14.3628 LP  0  0  0  0  0  0  0  0  0  0  0  0  # atno 5530 bound_to 597 
   -7.4777    2.5165   21.7731 LP  0  0  0  0  0  0  0  0  0  0  0  0  # atno 5533 bound_to 617 
   -7.5099    0.9522   21.3058 LP  0  0  0  0  0  0  0  0  0  0  0  0  # atno 5534 bound_to 617 
  -15.7568    0.8791   20.8614 LP  0  0  0  0  0  0  0  0  0  0  0  0  # atno 5539 bound_to 3179
  -16.3001   -0.2948   19.8647 LP  0  0  0  0  0  0  0  0  0  0  0  0  # atno 5540 bound_to 3179
   -8.7548   -5.8520   10.7937 LP  0  0  0  0  0  0  0  0  0  0  0  0  # atno 5541 bound_to 5203
   -8.9749   -4.4920    9.9169 LP  0  0  0  0  0  0  0  0  0  0  0  0  # atno 5542 bound_to 5203

> <Gold.Score>
     Fitness  S(hb_ext) S(vdw_ext)  S(hb_int)    S(int)      intcor
     38.88       0.06      29.44       0.00      -1.67      -0.78

> <Gold.Goldscore.Fitness>
38.8763

> <Gold.Goldscore.Internal.Vdw>
-2.0472

> <Gold.Goldscore.Internal.Torsion>
-0.4104

> <Gold.Goldscore.External.Vdw>
29.4445

> <Gold.Goldscore.Internal.HBond>
0.0000

> <Gold.Goldscore.External.HBond>
0.0638

> <Gold.Goldscore.Internal.Correction>
-0.7838

> <Gold.Goldscore.Hbonds>
donor molecule, donor type, donor heavy atom, donor atom, acceptor molecule, acceptor atom, score
      L1  H     8    22       P1  2674  0.03

> <Gold.Goldscore.Internal.Vdw.Weighted>
-2.0472

> <Gold.Goldscore.Internal.Torsion.Weighted>
-0.4104

> <Gold.Goldscore.External.Vdw.Weighted>
40.4863

> <Gold.Goldscore.Internal.HBond.Weighted>
0.0000

> <Gold.Goldscore.External.HBond.Weighted>
0.0638

> <Gold.Goldscore.Internal.Correction.Weighted>
-0.7838

> <Gold.Rescore>
     Score     S(PLP)   S(hbond)     S(cho)   S(metal)  DE(clash)   DE(tors)     intcor
     33.69     -32.85       0.77       0.00       0.00       1.29       0.09       ----

> <Gold.PLP.Fitness>
33.6927

> <Gold.PLP.PLP>
-32.8536

> <Gold.PLP.part.hbond>
-2.0000

> <Gold.PLP.part.metal>
0.0000

> <Gold.PLP.part.buried>
0.2662

> <Gold.PLP.part.nonpolar>
-33.7306

> <Gold.PLP.part.repulsive>
1.1352

> <Gold.PLP.ligand.clash>
1.2927

> <Gold.PLP.ligand.torsion>
0.0861

> <Gold.PLP.Chemscore.Hbond>
0.7680

> <Gold.PLP.Chemscore.CHOScore>
0.0000

> <Gold.PLP.Chemscore.Metal>
0.0000

> <Gold.Chemscore.Hbonds>
donor molecule, donor type, donor heavy atom, donor atom, acceptor molecule, acceptor atom, score
      L1  H     8    22       P1  2674  0.56

> <Gold.PLP.Chemscore.Internal.Correction>
   9.000000E+99

