#       Name:                CT1002167954
#       Creating user name   hitesit
#       Creation time:       Sun Apr 16 20:16:39 2023


#       File generated by GOLD software.
#

@<TRIPOS>MOLECULE
CT1002167954|ligand_prepared|mol2|1|dock3
    29    30     1
SMALL
NO_CHARGES


@<TRIPOS>ATOM
      1 C1          -9.6001  -8.5244  17.0538 C.3            1 RES1               0.0000
      2 C2          -8.5420  -7.6172  17.7142 C.ar           1 RES1               0.0000
      3 C3          -9.3304  -8.4746  15.5527 C.2            1 RES1               0.0000
      4 C4          -9.4228  -9.9067  17.6721 C.2            1 RES1               0.0000
      5 C5         -11.0569  -8.0713  17.3064 C.3            1 RES1               0.0000
      6 C6          -8.6167  -7.3124  19.0700 C.ar           1 RES1               0.0000
      7 C7          -7.4857  -7.0809  16.9826 C.ar           1 RES1               0.0000
      8 N8          -8.7612  -9.5717  14.9763 N.am           1 RES1               0.0000
      9 O9          -9.5769  -7.4730  14.8921 O.2            1 RES1               0.0000
     10 N10         -9.0007 -10.9250  16.8580 N.am           1 RES1               0.0000
     11 O11         -9.6288 -10.1196  18.8606 O.2            1 RES1               0.0000
     12 C12        -11.2661  -6.5719  17.1644 C.3            1 RES1               0.0000
     13 C13         -7.6683  -6.5031  19.6733 C.ar           1 RES1               0.0000
     14 C14         -6.5384  -6.2717  17.5878 C.ar           1 RES1               0.0000
     15 C15         -8.6324 -10.8133  15.5450 C.2            1 RES1               0.0000
     16 C16         -6.6284  -5.9826  18.9328 C.ar           1 RES1               0.0000
     17 O17         -8.2108 -11.7646  14.8935 O.2            1 RES1               0.0000
     18 H18        -11.7155  -8.5884  16.5976 H              1 RES1               0.0000
     19 H19        -11.3504  -8.3744  18.3190 H              1 RES1               0.0000
     20 H20         -9.4293  -7.7109  19.6683 H              1 RES1               0.0000
     21 H21         -7.3954  -7.2940  15.9229 H              1 RES1               0.0000
     22 H22         -8.3977  -9.4584  14.0354 H              1 RES1               0.0000
     23 H23         -8.9571 -11.8522  17.2689 H              1 RES1               0.0000
     24 H24        -12.3048  -6.3079  17.3519 H              1 RES1               0.0000
     25 H25        -10.6449  -6.0270  17.8723 H              1 RES1               0.0000
     26 H26        -11.0078  -6.2398  16.1610 H              1 RES1               0.0000
     27 H27         -7.7444  -6.2776  20.7319 H              1 RES1               0.0000
     28 H28         -5.7221  -5.8637  17.0010 H              1 RES1               0.0000
     29 H29         -5.8854  -5.3490  19.4057 H              1 RES1               0.0000
@<TRIPOS>BOND
    1    1    2 1     
    2    1    3 1     
    3    1    4 1     
    4    1    5 1     
    5    2    6 ar    
    6    2    7 ar    
    7    3    8 1     
    8    3    9 2     
    9    4   10 1     
   10    4   11 2     
   11    5   12 1     
   12    5   18 1     
   13    5   19 1     
   14    6   13 ar    
   15    6   20 1     
   16    7   14 ar    
   17    7   21 1     
   18    8   15 1     
   19    8   22 1     
   20   10   15 1     
   21   10   23 1     
   22   12   24 1     
   23   12   25 1     
   24   12   26 1     
   25   13   16 ar    
   26   13   27 1     
   27   14   16 ar    
   28   14   28 1     
   29   15   17 2     
   30   16   29 1     
@<TRIPOS>SUBSTRUCTURE
      1 RES1           1
@<TRIPOS>SET
DONOR_HYDROGENS      STATIC     ATOMS    <user>   **** ""
2 22 23
ATOM$RED        STATIC     ATOMS    COLORGROUP SYSTEM
2 22 23
@<TRIPOS>COMMENT
> <Gold.Version>
2022.3.0

> <Gold.Id.Protein>
unknown|3ovv_clean|pdb

> <Gold.Protein.RotatedTorsions>
[  604  597  595  592 ] final   79.54 input   59.96 | X-H torsion
[  622  617  616  613 ] final    8.00 input   59.98 | X-H torsion
[ 2635 2624 2623 2622 ] final  113.18 input   60.00 | X-H torsion
[ 3186 3179 3177 3174 ] final   87.96 input   59.97 | X-H torsion
[ 5212 5203 5202 5200 ] final   70.89 input   59.98 | X-H torsion

> <Gold.Protein.ActiveResidues>
 GLY50   THR51   GLY52   SER53   PHE54   GLY55   ARG56   VAL57   LYS72   GLU127 
 PHE129  ASP166  LYS168  GLU170  ASN171  THR183  ASP184  THR201  TYR330 

> <Gold.Protein.RotatedAtoms>
   -5.7031   -1.5521   14.3300 H   0  0  0  0  0  0  0  0  0  0  0  0  # atno 604  bound_to 597 
   -7.2455    1.2848   20.3765 H   0  0  0  0  0  0  0  0  0  0  0  0  # atno 622  bound_to 617 
  -14.5471   -1.1603   20.0642 H   0  0  0  0  0  0  0  0  0  0  0  0  # atno 2635 bound_to 2624
  -13.9494   -1.2092   18.5196 H   0  0  0  0  0  0  0  0  0  0  0  0  # atno 2636 bound_to 2624
  -15.3995   -0.4666   18.8243 H   0  0  0  0  0  0  0  0  0  0  0  0  # atno 2637 bound_to 2624
  -16.7345   -0.4733   21.2982 H   0  0  0  0  0  0  0  0  0  0  0  0  # atno 3186 bound_to 3179
   -8.5769   -5.4498   11.4772 H   0  0  0  0  0  0  0  0  0  0  0  0  # atno 5212 bound_to 5203
   -5.8975   -2.8502   13.3683 LP  0  0  0  0  0  0  0  0  0  0  0  0  # atno 5529 bound_to 597 
   -4.7896   -1.7108   12.9928 LP  0  0  0  0  0  0  0  0  0  0  0  0  # atno 5530 bound_to 597 
   -7.2577    2.7916   20.9910 LP  0  0  0  0  0  0  0  0  0  0  0  0  # atno 5533 bound_to 617 
   -7.6150    1.5150   21.9445 LP  0  0  0  0  0  0  0  0  0  0  0  0  # atno 5534 bound_to 617 
  -15.8194    0.8528   21.0678 LP  0  0  0  0  0  0  0  0  0  0  0  0  # atno 5539 bound_to 3179
  -16.1771   -0.1244   19.8094 LP  0  0  0  0  0  0  0  0  0  0  0  0  # atno 5540 bound_to 3179
   -8.9799   -5.3074    9.9070 LP  0  0  0  0  0  0  0  0  0  0  0  0  # atno 5541 bound_to 5203
   -8.7433   -3.9720   10.8165 LP  0  0  0  0  0  0  0  0  0  0  0  0  # atno 5542 bound_to 5203

> <Gold.Score>
     Fitness  S(hb_ext) S(vdw_ext)  S(hb_int)    S(int)      intcor
     43.65       0.00      34.23       0.00      -3.42      -0.80

> <Gold.Goldscore.Fitness>
43.6522

> <Gold.Goldscore.Internal.Vdw>
-3.4280

> <Gold.Goldscore.Internal.Torsion>
-0.7937

> <Gold.Goldscore.External.Vdw>
34.2328

> <Gold.Goldscore.Internal.HBond>
0.0000

> <Gold.Goldscore.External.HBond>
0.0000

> <Gold.Goldscore.Internal.Correction>
-0.8038

> <Gold.Goldscore.Internal.Vdw.Weighted>
-3.4280

> <Gold.Goldscore.Internal.Torsion.Weighted>
-0.7937

> <Gold.Goldscore.External.Vdw.Weighted>
47.0701

> <Gold.Goldscore.Internal.HBond.Weighted>
0.0000

> <Gold.Goldscore.External.HBond.Weighted>
0.0000

> <Gold.Goldscore.Internal.Correction.Weighted>
-0.8038

> <Gold.Rescore>
     Score     S(PLP)   S(hbond)     S(cho)   S(metal)  DE(clash)   DE(tors)     intcor
     42.47     -44.03       0.00       0.00       0.00       1.18       0.19       ----

> <Gold.PLP.Fitness>
42.4684

> <Gold.PLP.PLP>
-44.0281

> <Gold.PLP.part.hbond>
-0.7984

> <Gold.PLP.part.metal>
0.0000

> <Gold.PLP.part.buried>
-9.0630

> <Gold.PLP.part.nonpolar>
-35.5960

> <Gold.PLP.part.repulsive>
0.2689

> <Gold.PLP.ligand.clash>
1.1762

> <Gold.PLP.ligand.torsion>
0.1918

> <Gold.PLP.Chemscore.Hbond>
0.0000

> <Gold.PLP.Chemscore.CHOScore>
0.0000

> <Gold.PLP.Chemscore.Metal>
0.0000

> <Gold.PLP.Chemscore.Internal.Correction>
   9.000000E+99

