#       Name:                CT1002167954
#       Creating user name   hitesit
#       Creation time:       Sun Apr 16 20:16:32 2023


#       File generated by GOLD software.
#

@<TRIPOS>MOLECULE
CT1002167954|ligand_prepared|mol2|1|dock2
    29    30     1
SMALL
NO_CHARGES


@<TRIPOS>ATOM
      1 C1         131.2493 140.7703 103.8121 C.3            1 RES1               0.0000
      2 C2         132.5016 139.8839 103.6545 C.ar           1 RES1               0.0000
      3 C3         131.2913 141.7785 102.6675 C.2            1 RES1               0.0000
      4 C4         130.0514 139.8281 103.7676 C.2            1 RES1               0.0000
      5 C5         131.1973 141.5464 105.1486 C.3            1 RES1               0.0000
      6 C6         133.1350 139.3473 104.7715 C.ar           1 RES1               0.0000
      7 C7         133.0326 139.5923 102.4009 C.ar           1 RES1               0.0000
      8 N8         130.4173 141.6000 101.6359 N.am           1 RES1               0.0000
      9 O9         132.1055 142.6933 102.6513 O.2            1 RES1               0.0000
     10 N10        129.1864 139.9387 102.7106 N.am           1 RES1               0.0000
     11 O11        129.8579 138.9798 104.6297 O.2            1 RES1               0.0000
     12 C12        130.1875 142.6833 105.1586 C.3            1 RES1               0.0000
     13 C13        134.2568 138.5457 104.6399 C.ar           1 RES1               0.0000
     14 C14        134.1547 138.7906 102.2716 C.ar           1 RES1               0.0000
     15 C15        129.3318 140.7613 101.6268 C.2            1 RES1               0.0000
     16 C16        134.7671 138.2665 103.3900 C.ar           1 RES1               0.0000
     17 O17        128.5399 140.7649 100.6888 O.2            1 RES1               0.0000
     18 H18        130.9476 140.8454 105.9546 H              1 RES1               0.0000
     19 H19        132.1929 141.9567 105.3577 H              1 RES1               0.0000
     20 H20        132.7492 139.5580 105.7634 H              1 RES1               0.0000
     21 H21        132.5679 139.9946 101.5071 H              1 RES1               0.0000
     22 H22        130.5864 142.1399 100.7932 H              1 RES1               0.0000
     23 H23        128.3571 139.3538 102.7338 H              1 RES1               0.0000
     24 H24        130.1917 143.1945 106.1190 H              1 RES1               0.0000
     25 H25        130.4202 143.4127 104.3855 H              1 RES1               0.0000
     26 H26        129.1822 142.3079 104.9788 H              1 RES1               0.0000
     27 H27        134.7359 138.1368 105.5233 H              1 RES1               0.0000
     28 H28        134.5533 138.5740 101.2859 H              1 RES1               0.0000
     29 H29        135.6457 137.6383 103.2872 H              1 RES1               0.0000
@<TRIPOS>BOND
    1    1    2 1     
    2    1    3 1     
    3    1    4 1     
    4    1    5 1     
    5    2    6 ar    
    6    2    7 ar    
    7    3    8 1     
    8    3    9 2     
    9    4   10 1     
   10    4   11 2     
   11    5   12 1     
   12    5   18 1     
   13    5   19 1     
   14    6   13 ar    
   15    6   20 1     
   16    7   14 ar    
   17    7   21 1     
   18    8   15 1     
   19    8   22 1     
   20   10   15 1     
   21   10   23 1     
   22   12   24 1     
   23   12   25 1     
   24   12   26 1     
   25   13   16 ar    
   26   13   27 1     
   27   14   16 ar    
   28   14   28 1     
   29   15   17 2     
   30   16   29 1     
@<TRIPOS>SUBSTRUCTURE
      1 RES1           1
@<TRIPOS>SET
DONOR_HYDROGENS      STATIC     ATOMS    <user>   **** ""
2 22 23
ATOM$RED        STATIC     ATOMS    COLORGROUP SYSTEM
2 22 23
@<TRIPOS>COMMENT
> <Gold.Version>
2022.3.0

> <Gold.Id.Protein>
unknown|7rmi_clean|pdb

> <Gold.Protein.RotatedTorsions>
[ 4415 4410 4409 4407 ] final   35.92 input   60.00 | X-H torsion
[ 7286 7277 7276 7274 ] final  -21.60 input   59.98 | X-H torsion
[ 7448 7439 7438 7436 ] final   74.42 input   59.99 | X-H torsion
[ 5718 5713 5712 5709 ] final   43.59 input   60.00 | X-H torsion
[ 4305 4286 4285 4282 ] final -108.60 input   60.01 | X-H torsion
[ 6139 6130 6129 6127 ] final    9.15 input   59.98 | X-H torsion
[ 6227 6224 6223 6220 ] final   86.48 input   60.02 | X-H torsion
[ 7183 7174 7173 7171 ] final -153.47 input   60.02 | X-H torsion

> <Gold.Protein.ActiveResidues>
 GLN24   PHE25   GLN27   MET81   PHE84   ASN85   THR86   VAL88   ASN89   PHE90  
 TYR92   ALA93   VAL94   HIS95   ASN96   GLU97   TRP98   TYR100  TYR104  CYS105 
 HIS108  ASN109  PRO112  ILE113  ALA114  ALA115  VAL116  PHE117  LEU161  ALA162 
 GLN165  SER169  THR170  GLU172  MET174  PRO175  ARG177  VAL178  VAL179  CYS180 
 MET181  ILE182  GLU183  TRP184  TYR196  HIS197  VAL200  THR201  ILE204  TRP261 
 PHE264  HIS265  PHE267  PHE268  LEU269  PRO271  TYR272  PRO275  LEU277  TYR278 
 LEU279  LYS280  LYS281  PHE282  ILE283  GLN284  GLN285  VAL286  TYR287  LEU288 
 ILE290  MET291  ALA294  MET295 

> <Gold.Protein.RotatedAtoms>
  123.1422  137.5314  110.3350 H   0  0  0  0  0  0  0  0  0  0  0  0  # atno 4305 bound_to 4286
  125.9781  146.6319   96.0527 H   0  0  0  0  0  0  0  0  0  0  0  0  # atno 4415 bound_to 4410
  132.5779  149.6601   99.7764 H   0  0  0  0  0  0  0  0  0  0  0  0  # atno 5718 bound_to 5713
  139.7902  142.1505  105.7414 H   0  0  0  0  0  0  0  0  0  0  0  0  # atno 6139 bound_to 6130
  139.5919  132.7474  102.7344 H   0  0  0  0  0  0  0  0  0  0  0  0  # atno 6227 bound_to 6224
  138.7041  137.9053   97.3225 H   0  0  0  0  0  0  0  0  0  0  0  0  # atno 7183 bound_to 7174
  132.2755  133.8256   93.6490 H   0  0  0  0  0  0  0  0  0  0  0  0  # atno 7286 bound_to 7277
  126.8249  139.9835  101.4236 H   0  0  0  0  0  0  0  0  0  0  0  0  # atno 7448 bound_to 7439
  125.7085  145.1126   95.5358 LP  0  0  0  0  0  0  0  0  0  0  0  0  # atno 14307 bound_to 4410
  126.9624  145.4284   96.5332 LP  0  0  0  0  0  0  0  0  0  0  0  0  # atno 14308 bound_to 4410
  131.1651  134.6123   94.5408 LP  0  0  0  0  0  0  0  0  0  0  0  0  # atno 14309 bound_to 7277
  132.4399  135.4216   93.9191 LP  0  0  0  0  0  0  0  0  0  0  0  0  # atno 14310 bound_to 7277
  126.8194  138.9311  102.6649 LP  0  0  0  0  0  0  0  0  0  0  0  0  # atno 14329 bound_to 7439
  125.4502  139.7203  102.2538 LP  0  0  0  0  0  0  0  0  0  0  0  0  # atno 14330 bound_to 7439
  132.4915  151.2243  100.2170 LP  0  0  0  0  0  0  0  0  0  0  0  0  # atno 14371 bound_to 5713
  132.1688  150.0481  101.3029 LP  0  0  0  0  0  0  0  0  0  0  0  0  # atno 14372 bound_to 5713
  123.1990  138.4618  111.6688 LP  0  0  0  0  0  0  0  0  0  0  0  0  # atno 14387 bound_to 4286
  124.1342  138.8205  110.3791 LP  0  0  0  0  0  0  0  0  0  0  0  0  # atno 14388 bound_to 4286
  138.8087  140.9333  105.2896 LP  0  0  0  0  0  0  0  0  0  0  0  0  # atno 14389 bound_to 6130
  138.6377  142.4141  104.6227 LP  0  0  0  0  0  0  0  0  0  0  0  0  # atno 14390 bound_to 6130
  138.5727  132.1356  103.8461 LP  0  0  0  0  0  0  0  0  0  0  0  0  # atno 14404 bound_to 6224
  139.0526  131.2193  102.5825 LP  0  0  0  0  0  0  0  0  0  0  0  0  # atno 14405 bound_to 6224
  137.5278  138.1253   96.2196 LP  0  0  0  0  0  0  0  0  0  0  0  0  # atno 14408 bound_to 7174
  138.9994  138.7957   95.9926 LP  0  0  0  0  0  0  0  0  0  0  0  0  # atno 14409 bound_to 7174

> <Gold.Score>
     Fitness  S(hb_ext) S(vdw_ext)  S(hb_int)    S(int)      intcor
     33.69       1.70      23.87       0.00      -0.83      -0.77

> <Gold.Goldscore.Fitness>
33.6879

> <Gold.Goldscore.Internal.Vdw>
-0.8559

> <Gold.Goldscore.Internal.Torsion>
-0.7421

> <Gold.Goldscore.External.Vdw>
23.8687

> <Gold.Goldscore.Internal.HBond>
0.0000

> <Gold.Goldscore.External.HBond>
1.6978

> <Gold.Goldscore.Internal.Correction>
-0.7686

> <Gold.Goldscore.Hbonds>
donor molecule, donor type, donor heavy atom, donor atom, acceptor molecule, acceptor atom, score
      P1  H  7439  7448       L1    17  0.82
      L1  H    10    23       P1  7439  0.02

> <Gold.Goldscore.Internal.Vdw.Weighted>
-0.8559

> <Gold.Goldscore.Internal.Torsion.Weighted>
-0.7421

> <Gold.Goldscore.External.Vdw.Weighted>
32.8195

> <Gold.Goldscore.Internal.HBond.Weighted>
0.0000

> <Gold.Goldscore.External.HBond.Weighted>
1.6978

> <Gold.Goldscore.Internal.Correction.Weighted>
-0.7686

> <Gold.Rescore>
     Score     S(PLP)   S(hbond)     S(cho)   S(metal)  DE(clash)   DE(tors)     intcor
     41.23     -38.97       1.34       0.00       0.00       1.31       0.23       ----

> <Gold.PLP.Fitness>
41.2347

> <Gold.PLP.PLP>
-38.9713

> <Gold.PLP.part.hbond>
-2.9729

> <Gold.PLP.part.metal>
0.0000

> <Gold.PLP.part.buried>
-3.1775

> <Gold.PLP.part.nonpolar>
-34.7912

> <Gold.PLP.part.repulsive>
0.1647

> <Gold.PLP.ligand.clash>
1.3118

> <Gold.PLP.ligand.torsion>
0.2284

> <Gold.PLP.Chemscore.Hbond>
1.3440

> <Gold.PLP.Chemscore.CHOScore>
0.0000

> <Gold.PLP.Chemscore.Metal>
0.0000

> <Gold.Chemscore.Hbonds>
donor molecule, donor type, donor heavy atom, donor atom, acceptor molecule, acceptor atom, score
      P1  H  7439  7448       L1    17  1.00
      P1  H  5650  5657       L1     9  0.13

> <Gold.PLP.Chemscore.Internal.Correction>
   9.000000E+99

