#       Name:                CT1002167954
#       Creating user name   hitesit
#       Creation time:       Sun Apr 16 20:16:39 2023


#       File generated by GOLD software.
#

@<TRIPOS>MOLECULE
CT1002167954|ligand_prepared|mol2|1|dock6
    29    30     1
SMALL
NO_CHARGES


@<TRIPOS>ATOM
      1 C1         126.6071 138.9003  95.6044 C.3            1 RES1               0.0000
      2 C2         126.1914 139.6622  96.8794 C.ar           1 RES1               0.0000
      3 C3         126.1684 137.4531  95.8079 C.2            1 RES1               0.0000
      4 C4         125.9138 139.6030  94.4424 C.2            1 RES1               0.0000
      5 C5         128.1296 138.9186  95.3340 C.3            1 RES1               0.0000
      6 C6         127.0807 139.8068  97.9401 C.ar           1 RES1               0.0000
      7 C7         124.9254 140.2271  97.0082 C.ar           1 RES1               0.0000
      8 N8         125.0825 137.0175  95.1073 N.am           1 RES1               0.0000
      9 O9         126.7425 136.7168  96.6008 O.2            1 RES1               0.0000
     10 N10        124.9573 138.9076  93.7501 N.am           1 RES1               0.0000
     11 O11        126.1755 140.7582  94.1306 O.2            1 RES1               0.0000
     12 C12        128.5066 138.4996  93.9218 C.3            1 RES1               0.0000
     13 C13        126.7185 140.4939  99.0868 C.ar           1 RES1               0.0000
     14 C14        124.5652 140.9137  98.1560 C.ar           1 RES1               0.0000
     15 C15        124.4884 137.6574  94.0493 C.2            1 RES1               0.0000
     16 C16        125.4609 141.0481  99.1954 C.ar           1 RES1               0.0000
     17 O17        123.5872 137.1196  93.4124 O.2            1 RES1               0.0000
     18 H18        128.5081 139.9323  95.5145 H              1 RES1               0.0000
     19 H19        128.6228 138.2450  96.0457 H              1 RES1               0.0000
     20 H20        128.0739 139.3754  97.8737 H              1 RES1               0.0000
     21 H21        124.2040 140.1330  96.2036 H              1 RES1               0.0000
     22 H22        124.6743 136.1344  95.3968 H              1 RES1               0.0000
     23 H23        124.5578 139.3642  92.9363 H              1 RES1               0.0000
     24 H24        129.5856 138.5300  93.7855 H              1 RES1               0.0000
     25 H25        128.1676 137.4863  93.7166 H              1 RES1               0.0000
     26 H26        128.0536 139.1636  93.1885 H              1 RES1               0.0000
     27 H27        127.4266 140.5958  99.9026 H              1 RES1               0.0000
     28 H28        123.5741 141.3477  98.2373 H              1 RES1               0.0000
     29 H29        125.1775 141.5867 100.0937 H              1 RES1               0.0000
@<TRIPOS>BOND
    1    1    2 1     
    2    1    3 1     
    3    1    4 1     
    4    1    5 1     
    5    2    6 ar    
    6    2    7 ar    
    7    3    8 1     
    8    3    9 2     
    9    4   10 1     
   10    4   11 2     
   11    5   12 1     
   12    5   18 1     
   13    5   19 1     
   14    6   13 ar    
   15    6   20 1     
   16    7   14 ar    
   17    7   21 1     
   18    8   15 1     
   19    8   22 1     
   20   10   15 1     
   21   10   23 1     
   22   12   24 1     
   23   12   25 1     
   24   12   26 1     
   25   13   16 ar    
   26   13   27 1     
   27   14   16 ar    
   28   14   28 1     
   29   15   17 2     
   30   16   29 1     
@<TRIPOS>SUBSTRUCTURE
      1 RES1           1
@<TRIPOS>SET
DONOR_HYDROGENS      STATIC     ATOMS    <user>   **** ""
2 22 23
ATOM$RED        STATIC     ATOMS    COLORGROUP SYSTEM
2 22 23
@<TRIPOS>COMMENT
> <Gold.Version>
2022.3.0

> <Gold.Id.Protein>
unknown|7rmi_clean|pdb

> <Gold.Protein.RotatedTorsions>
[ 4415 4410 4409 4407 ] final -128.55 input   60.00 | X-H torsion
[ 7286 7277 7276 7274 ] final   39.38 input   59.98 | X-H torsion
[ 7448 7439 7438 7436 ] final  148.69 input   59.99 | X-H torsion
[ 5718 5713 5712 5709 ] final   -2.84 input   60.00 | X-H torsion
[ 4305 4286 4285 4282 ] final   59.57 input   60.01 | X-H torsion
[ 6139 6130 6129 6127 ] final -169.14 input   59.98 | X-H torsion
[ 6227 6224 6223 6220 ] final  154.82 input   60.02 | X-H torsion
[ 7183 7174 7173 7171 ] final -138.04 input   60.02 | X-H torsion

> <Gold.Protein.ActiveResidues>
 GLN24   PHE25   GLN27   MET81   PHE84   ASN85   THR86   VAL88   ASN89   PHE90  
 TYR92   ALA93   VAL94   HIS95   ASN96   GLU97   TRP98   TYR100  TYR104  CYS105 
 HIS108  ASN109  PRO112  ILE113  ALA114  ALA115  VAL116  PHE117  LEU161  ALA162 
 GLN165  SER169  THR170  GLU172  MET174  PRO175  ARG177  VAL178  VAL179  CYS180 
 MET181  ILE182  GLU183  TRP184  TYR196  HIS197  VAL200  THR201  ILE204  TRP261 
 PHE264  HIS265  PHE267  PHE268  LEU269  PRO271  TYR272  PRO275  LEU277  TYR278 
 LEU279  LYS280  LYS281  PHE282  ILE283  GLN284  GLN285  VAL286  TYR287  LEU288 
 ILE290  MET291  ALA294  MET295 

> <Gold.Protein.RotatedAtoms>
  123.9395  139.0364  111.0887 H   0  0  0  0  0  0  0  0  0  0  0  0  # atno 4305 bound_to 4286
  126.2512  144.8053   95.8776 H   0  0  0  0  0  0  0  0  0  0  0  0  # atno 4415 bound_to 4410
  132.6611  150.3503   99.5287 H   0  0  0  0  0  0  0  0  0  0  0  0  # atno 5718 bound_to 5713
  138.3758  141.4901  104.7062 H   0  0  0  0  0  0  0  0  0  0  0  0  # atno 6139 bound_to 6130
  139.5216  131.8096  102.2628 H   0  0  0  0  0  0  0  0  0  0  0  0  # atno 6227 bound_to 6224
  138.9180  138.0209   97.2587 H   0  0  0  0  0  0  0  0  0  0  0  0  # atno 7183 bound_to 7174
  132.7520  134.6394   93.5356 H   0  0  0  0  0  0  0  0  0  0  0  0  # atno 7286 bound_to 7277
  125.7345  140.0995  101.6984 H   0  0  0  0  0  0  0  0  0  0  0  0  # atno 7448 bound_to 7439
  126.8573  146.1312   96.6006 LP  0  0  0  0  0  0  0  0  0  0  0  0  # atno 14307 bound_to 4410
  125.5386  146.2497   95.6449 LP  0  0  0  0  0  0  0  0  0  0  0  0  # atno 14308 bound_to 4410
  131.4940  133.8062   94.1443 LP  0  0  0  0  0  0  0  0  0  0  0  0  # atno 14309 bound_to 7277
  131.6310  135.4081   94.4299 LP  0  0  0  0  0  0  0  0  0  0  0  0  # atno 14310 bound_to 7277
  127.2550  139.5284  101.7991 LP  0  0  0  0  0  0  0  0  0  0  0  0  # atno 14329 bound_to 7439
  126.1129  139.0062  102.8429 LP  0  0  0  0  0  0  0  0  0  0  0  0  # atno 14330 bound_to 7439
  132.2961  151.1042  100.9239 LP  0  0  0  0  0  0  0  0  0  0  0  0  # atno 14371 bound_to 5713
  132.2804  149.4731  100.8455 LP  0  0  0  0  0  0  0  0  0  0  0  0  # atno 14372 bound_to 5713
  123.6608  137.9268  109.9316 LP  0  0  0  0  0  0  0  0  0  0  0  0  # atno 14387 bound_to 4286
  122.8697  137.8402  111.3575 LP  0  0  0  0  0  0  0  0  0  0  0  0  # atno 14388 bound_to 4286
  139.3311  142.7378  105.1302 LP  0  0  0  0  0  0  0  0  0  0  0  0  # atno 14389 bound_to 6130
  139.5389  141.2743  105.8241 LP  0  0  0  0  0  0  0  0  0  0  0  0  # atno 14390 bound_to 6130
  139.1783  132.8956  103.4255 LP  0  0  0  0  0  0  0  0  0  0  0  0  # atno 14404 bound_to 6224
  138.5177  131.4031  103.4779 LP  0  0  0  0  0  0  0  0  0  0  0  0  # atno 14405 bound_to 6224
  137.5144  137.9939   96.4355 LP  0  0  0  0  0  0  0  0  0  0  0  0  # atno 14408 bound_to 7174
  138.7973  138.8109   95.8410 LP  0  0  0  0  0  0  0  0  0  0  0  0  # atno 14409 bound_to 7174

> <Gold.Score>
     Fitness  S(hb_ext) S(vdw_ext)  S(hb_int)    S(int)      intcor
     31.93       0.32      23.46       0.00      -0.64      -0.76

> <Gold.Goldscore.Fitness>
31.9298

> <Gold.Goldscore.Internal.Vdw>
-0.6879

> <Gold.Goldscore.Internal.Torsion>
-0.7142

> <Gold.Goldscore.External.Vdw>
23.4594

> <Gold.Goldscore.Internal.HBond>
0.0000

> <Gold.Goldscore.External.HBond>
0.3168

> <Gold.Goldscore.Internal.Correction>
-0.7585

> <Gold.Goldscore.Hbonds>
donor molecule, donor type, donor heavy atom, donor atom, acceptor molecule, acceptor atom, score
      P1  H  4470  4473       L1    11  0.15
      L1  H     8    22       P1  7362  0.01

> <Gold.Goldscore.Internal.Vdw.Weighted>
-0.6879

> <Gold.Goldscore.Internal.Torsion.Weighted>
-0.7142

> <Gold.Goldscore.External.Vdw.Weighted>
32.2566

> <Gold.Goldscore.Internal.HBond.Weighted>
0.0000

> <Gold.Goldscore.External.HBond.Weighted>
0.3168

> <Gold.Goldscore.Internal.Correction.Weighted>
-0.7585

> <Gold.Rescore>
     Score     S(PLP)   S(hbond)     S(cho)   S(metal)  DE(clash)   DE(tors)     intcor
     29.13     -27.57       1.04       0.00       0.00       0.00       0.77       ----

> <Gold.PLP.Fitness>
29.1294

> <Gold.PLP.PLP>
-27.5664

> <Gold.PLP.part.hbond>
-2.0000

> <Gold.PLP.part.metal>
0.0000

> <Gold.PLP.part.buried>
3.1492

> <Gold.PLP.part.nonpolar>
-30.7410

> <Gold.PLP.part.repulsive>
0.3447

> <Gold.PLP.ligand.clash>
0.0000

> <Gold.PLP.ligand.torsion>
0.7733

> <Gold.PLP.Chemscore.Hbond>
1.0366

> <Gold.PLP.Chemscore.CHOScore>
0.0000

> <Gold.PLP.Chemscore.Metal>
0.0000

> <Gold.Chemscore.Hbonds>
donor molecule, donor type, donor heavy atom, donor atom, acceptor molecule, acceptor atom, score
      L1  H     8    22       P1  7362  0.31
      P1  H  4470  4473       L1    11  0.96

> <Gold.PLP.Chemscore.Internal.Correction>
   9.000000E+99

