#       Name:                CT1002167954
#       Creating user name   hitesit
#       Creation time:       Sun Apr 16 20:16:31 2023


#       File generated by GOLD software.
#

@<TRIPOS>MOLECULE
CT1002167954|ligand_prepared|mol2|1|dock1
    29    30     1
SMALL
NO_CHARGES


@<TRIPOS>ATOM
      1 C1         128.7181 141.7390 100.3088 C.3            1 RES1               0.0000
      2 C2         128.0495 140.7741  99.3084 C.ar           1 RES1               0.0000
      3 C3         129.2750 142.8946  99.4825 C.2            1 RES1               0.0000
      4 C4         127.6322 142.1480 101.2978 C.2            1 RES1               0.0000
      5 C5         129.8787 141.1036 101.1093 C.3            1 RES1               0.0000
      6 C6         128.7494 139.6841  98.7995 C.ar           1 RES1               0.0000
      7 C7         126.7352 140.9590  98.8880 C.ar           1 RES1               0.0000
      8 N8         128.6185 144.0885  99.5431 N.am           1 RES1               0.0000
      9 O9         130.2519 142.7496  98.7580 O.2            1 RES1               0.0000
     10 N10        127.2368 143.4600 101.3110 N.am           1 RES1               0.0000
     11 O11        127.1037 141.3426 102.0542 O.2            1 RES1               0.0000
     12 C12        130.3331 141.9375 102.2969 C.3            1 RES1               0.0000
     13 C13        128.1558 138.8090  97.9050 C.ar           1 RES1               0.0000
     14 C14        126.1436 140.0828  97.9931 C.ar           1 RES1               0.0000
     15 C15        127.6590 144.4424 100.4573 C.2            1 RES1               0.0000
     16 C16        126.8526 139.0074  97.5016 C.ar           1 RES1               0.0000
     17 O17        127.2165 145.5868 100.4960 O.2            1 RES1               0.0000
     18 H18        129.5603 140.1182 101.4709 H              1 RES1               0.0000
     19 H19        130.7318 140.9541 100.4359 H              1 RES1               0.0000
     20 H20        129.7767 139.5133  99.1036 H              1 RES1               0.0000
     21 H21        126.1586 141.7988  99.2607 H              1 RES1               0.0000
     22 H22        128.8637 144.7824  98.8439 H              1 RES1               0.0000
     23 H23        126.5657 143.7292 102.0234 H              1 RES1               0.0000
     24 H24        131.1487 141.4464 102.8235 H              1 RES1               0.0000
     25 H25        130.6804 142.9157 101.9710 H              1 RES1               0.0000
     26 H26        129.5158 142.0848 102.9999 H              1 RES1               0.0000
     27 H27        128.7185 137.9650  97.5200 H              1 RES1               0.0000
     28 H28        125.1178 140.2432  97.6779 H              1 RES1               0.0000
     29 H29        126.3877 138.3215  96.8011 H              1 RES1               0.0000
@<TRIPOS>BOND
    1    1    2 1     
    2    1    3 1     
    3    1    4 1     
    4    1    5 1     
    5    2    6 ar    
    6    2    7 ar    
    7    3    8 1     
    8    3    9 2     
    9    4   10 1     
   10    4   11 2     
   11    5   12 1     
   12    5   18 1     
   13    5   19 1     
   14    6   13 ar    
   15    6   20 1     
   16    7   14 ar    
   17    7   21 1     
   18    8   15 1     
   19    8   22 1     
   20   10   15 1     
   21   10   23 1     
   22   12   24 1     
   23   12   25 1     
   24   12   26 1     
   25   13   16 ar    
   26   13   27 1     
   27   14   16 ar    
   28   14   28 1     
   29   15   17 2     
   30   16   29 1     
@<TRIPOS>SUBSTRUCTURE
      1 RES1           1
@<TRIPOS>SET
DONOR_HYDROGENS      STATIC     ATOMS    <user>   **** ""
2 22 23
ATOM$RED        STATIC     ATOMS    COLORGROUP SYSTEM
2 22 23
@<TRIPOS>COMMENT
> <Gold.Version>
2022.3.0

> <Gold.Id.Protein>
unknown|7rmi_clean|pdb

> <Gold.Protein.RotatedTorsions>
[ 4415 4410 4409 4407 ] final  142.89 input   60.00 | X-H torsion
[ 7286 7277 7276 7274 ] final -121.71 input   59.98 | X-H torsion
[ 7448 7439 7438 7436 ] final  -37.97 input   59.99 | X-H torsion
[ 5718 5713 5712 5709 ] final  102.24 input   60.00 | X-H torsion
[ 4305 4286 4285 4282 ] final -163.41 input   60.01 | X-H torsion
[ 6139 6130 6129 6127 ] final  100.79 input   59.98 | X-H torsion
[ 6227 6224 6223 6220 ] final -164.89 input   60.02 | X-H torsion
[ 7183 7174 7173 7171 ] final   50.91 input   60.02 | X-H torsion

> <Gold.Protein.ActiveResidues>
 GLN24   PHE25   GLN27   MET81   PHE84   ASN85   THR86   VAL88   ASN89   PHE90  
 TYR92   ALA93   VAL94   HIS95   ASN96   GLU97   TRP98   TYR100  TYR104  CYS105 
 HIS108  ASN109  PRO112  ILE113  ALA114  ALA115  VAL116  PHE117  LEU161  ALA162 
 GLN165  SER169  THR170  GLU172  MET174  PRO175  ARG177  VAL178  VAL179  CYS180 
 MET181  ILE182  GLU183  TRP184  TYR196  HIS197  VAL200  THR201  ILE204  TRP261 
 PHE264  HIS265  PHE267  PHE268  LEU269  PRO271  TYR272  PRO275  LEU277  TYR278 
 LEU279  LYS280  LYS281  PHE282  ILE283  GLN284  GLN285  VAL286  TYR287  LEU288 
 ILE290  MET291  ALA294  MET295 

> <Gold.Protein.RotatedAtoms>
  122.8512  137.6766  111.1332 H   0  0  0  0  0  0  0  0  0  0  0  0  # atno 4305 bound_to 4286
  126.9718  145.6353   96.5851 H   0  0  0  0  0  0  0  0  0  0  0  0  # atno 4415 bound_to 4410
  132.3414  149.3957  100.6221 H   0  0  0  0  0  0  0  0  0  0  0  0  # atno 5718 bound_to 5713
  138.9630  142.6728  104.8206 H   0  0  0  0  0  0  0  0  0  0  0  0  # atno 6139 bound_to 6130
  139.1706  131.3095  102.4700 H   0  0  0  0  0  0  0  0  0  0  0  0  # atno 6227 bound_to 6224
  137.7969  138.4497   95.8287 H   0  0  0  0  0  0  0  0  0  0  0  0  # atno 7183 bound_to 7174
  131.1852  134.3009   94.4521 H   0  0  0  0  0  0  0  0  0  0  0  0  # atno 7286 bound_to 7277
  126.9166  138.9597  102.5916 H   0  0  0  0  0  0  0  0  0  0  0  0  # atno 7448 bound_to 7439
  125.8201  146.5740   95.9213 LP  0  0  0  0  0  0  0  0  0  0  0  0  # atno 14307 bound_to 4410
  125.8498  144.9709   95.6115 LP  0  0  0  0  0  0  0  0  0  0  0  0  # atno 14308 bound_to 4410
  132.1925  135.5295   94.1014 LP  0  0  0  0  0  0  0  0  0  0  0  0  # atno 14309 bound_to 7277
  132.5107  134.0258   93.5496 LP  0  0  0  0  0  0  0  0  0  0  0  0  # atno 14310 bound_to 7277
  125.4576  139.6381  102.3477 LP  0  0  0  0  0  0  0  0  0  0  0  0  # atno 14329 bound_to 7439
  126.7197  140.0445  101.3946 LP  0  0  0  0  0  0  0  0  0  0  0  0  # atno 14330 bound_to 7439
  132.6550  150.5918   99.5642 LP  0  0  0  0  0  0  0  0  0  0  0  0  # atno 14371 bound_to 5713
  132.2435  150.9470  101.1040 LP  0  0  0  0  0  0  0  0  0  0  0  0  # atno 14372 bound_to 5713
  123.7913  138.9916  111.3198 LP  0  0  0  0  0  0  0  0  0  0  0  0  # atno 14387 bound_to 4286
  123.8350  138.1444  109.9244 LP  0  0  0  0  0  0  0  0  0  0  0  0  # atno 14388 bound_to 4286
  139.7546  141.7087  105.8661 LP  0  0  0  0  0  0  0  0  0  0  0  0  # atno 14389 bound_to 6130
  138.5243  141.1129  104.9730 LP  0  0  0  0  0  0  0  0  0  0  0  0  # atno 14390 bound_to 6130
  139.5284  132.8432  102.8811 LP  0  0  0  0  0  0  0  0  0  0  0  0  # atno 14404 bound_to 6224
  138.5209  131.9589  103.8137 LP  0  0  0  0  0  0  0  0  0  0  0  0  # atno 14405 bound_to 6224
  139.2852  138.6242   96.4633 LP  0  0  0  0  0  0  0  0  0  0  0  0  # atno 14408 bound_to 7174
  138.1553  137.7487   97.2529 LP  0  0  0  0  0  0  0  0  0  0  0  0  # atno 14409 bound_to 7174

> <Gold.Score>
     Fitness  S(hb_ext) S(vdw_ext)  S(hb_int)    S(int)      intcor
     32.63       1.41      23.08       0.00      -0.53      -0.78

> <Gold.Goldscore.Fitness>
32.6276

> <Gold.Goldscore.Internal.Vdw>
-0.6917

> <Gold.Goldscore.Internal.Torsion>
-0.6161

> <Gold.Goldscore.External.Vdw>
23.0838

> <Gold.Goldscore.Internal.HBond>
0.0000

> <Gold.Goldscore.External.HBond>
1.4133

> <Gold.Goldscore.Internal.Correction>
-0.7819

> <Gold.Goldscore.Hbonds>
donor molecule, donor type, donor heavy atom, donor atom, acceptor molecule, acceptor atom, score
      L1  H     8    22       P1  5901  0.71

> <Gold.Goldscore.Internal.Vdw.Weighted>
-0.6917

> <Gold.Goldscore.Internal.Torsion.Weighted>
-0.6161

> <Gold.Goldscore.External.Vdw.Weighted>
31.7402

> <Gold.Goldscore.Internal.HBond.Weighted>
0.0000

> <Gold.Goldscore.External.HBond.Weighted>
1.4133

> <Gold.Goldscore.Internal.Correction.Weighted>
-0.7819

> <Gold.Rescore>
     Score     S(PLP)   S(hbond)     S(cho)   S(metal)  DE(clash)   DE(tors)     intcor
     36.66     -34.68       1.00       0.00       0.00       0.00       0.51       ----

> <Gold.PLP.Fitness>
36.6605

> <Gold.PLP.PLP>
-34.6797

> <Gold.PLP.part.hbond>
-1.6924

> <Gold.PLP.part.metal>
0.0000

> <Gold.PLP.part.buried>
-4.9437

> <Gold.PLP.part.nonpolar>
-29.1670

> <Gold.PLP.part.repulsive>
0.6000

> <Gold.PLP.ligand.clash>
0.0000

> <Gold.PLP.ligand.torsion>
0.5096

> <Gold.PLP.Chemscore.Hbond>
1.0000

> <Gold.PLP.Chemscore.CHOScore>
0.0000

> <Gold.PLP.Chemscore.Metal>
0.0000

> <Gold.Chemscore.Hbonds>
donor molecule, donor type, donor heavy atom, donor atom, acceptor molecule, acceptor atom, score
      L1  H     8    22       P1  5901  0.73

> <Gold.PLP.Chemscore.Internal.Correction>
   9.000000E+99

