#       Name:                CT1002167954
#       Creating user name   hitesit
#       Creation time:       Sun Apr 16 20:16:44 2023


#       File generated by GOLD software.
#

@<TRIPOS>MOLECULE
CT1002167954|ligand_prepared|mol2|1|dock10
    29    30     1
SMALL
NO_CHARGES


@<TRIPOS>ATOM
      1 C1         131.0554 140.5055 104.3406 C.3            1 RES1               0.0000
      2 C2         132.4716 139.8977 104.2810 C.ar           1 RES1               0.0000
      3 C3         130.6772 140.5667 105.8176 C.2            1 RES1               0.0000
      4 C4         131.1476 141.8692 103.6650 C.2            1 RES1               0.0000
      5 C5         129.9866 139.6738 103.5940 C.3            1 RES1               0.0000
      6 C6         132.9245 139.2681 103.1254 C.ar           1 RES1               0.0000
      7 C7         133.3361 139.9609 105.3706 C.ar           1 RES1               0.0000
      8 N8         130.6812 141.7899 106.4207 N.am           1 RES1               0.0000
      9 O9         130.4179 139.5524 106.4534 O.2            1 RES1               0.0000
     10 N10        130.9416 142.9831 104.4361 N.am           1 RES1               0.0000
     11 O11        131.4133 141.9898 102.4754 O.2            1 RES1               0.0000
     12 C12        128.5579 140.0958 103.8990 C.3            1 RES1               0.0000
     13 C13        134.1965 138.7241 103.0604 C.ar           1 RES1               0.0000
     14 C14        134.6078 139.4160 105.3035 C.ar           1 RES1               0.0000
     15 C15        130.7429 143.0064 105.7897 C.2            1 RES1               0.0000
     16 C16        135.0391 138.7981 104.1491 C.ar           1 RES1               0.0000
     17 O17        130.6199 144.0516 106.4218 O.2            1 RES1               0.0000
     18 H18        130.1588 139.7649 102.5145 H              1 RES1               0.0000
     19 H19        130.1082 138.6177 103.8650 H              1 RES1               0.0000
     20 H20        132.2746 139.1981 102.2595 H              1 RES1               0.0000
     21 H21        133.0178 140.4414 106.2895 H              1 RES1               0.0000
     22 H22        130.6341 141.8012 107.4346 H              1 RES1               0.0000
     23 H23        130.9356 143.8777 103.9566 H              1 RES1               0.0000
     24 H24        127.8484 139.4805 103.3498 H              1 RES1               0.0000
     25 H25        128.3439 139.9939 104.9609 H              1 RES1               0.0000
     26 H26        128.3943 141.1343 103.6184 H              1 RES1               0.0000
     27 H27        134.5307 138.2376 102.1500 H              1 RES1               0.0000
     28 H28        135.2673 139.4760 106.1630 H              1 RES1               0.0000
     29 H29        136.0357 138.3721 104.0978 H              1 RES1               0.0000
@<TRIPOS>BOND
    1    1    2 1     
    2    1    3 1     
    3    1    4 1     
    4    1    5 1     
    5    2    6 ar    
    6    2    7 ar    
    7    3    8 1     
    8    3    9 2     
    9    4   10 1     
   10    4   11 2     
   11    5   12 1     
   12    5   18 1     
   13    5   19 1     
   14    6   13 ar    
   15    6   20 1     
   16    7   14 ar    
   17    7   21 1     
   18    8   15 1     
   19    8   22 1     
   20   10   15 1     
   21   10   23 1     
   22   12   24 1     
   23   12   25 1     
   24   12   26 1     
   25   13   16 ar    
   26   13   27 1     
   27   14   16 ar    
   28   14   28 1     
   29   15   17 2     
   30   16   29 1     
@<TRIPOS>SUBSTRUCTURE
      1 RES1           1
@<TRIPOS>SET
DONOR_HYDROGENS      STATIC     ATOMS    <user>   **** ""
2 22 23
ATOM$RED        STATIC     ATOMS    COLORGROUP SYSTEM
2 22 23
@<TRIPOS>COMMENT
> <Gold.Version>
2022.3.0

> <Gold.Id.Protein>
unknown|7rmi_clean|pdb

> <Gold.Protein.RotatedTorsions>
[ 4415 4410 4409 4407 ] final  -41.74 input   60.00 | X-H torsion
[ 7286 7277 7276 7274 ] final -161.90 input   59.98 | X-H torsion
[ 7448 7439 7438 7436 ] final  -34.78 input   59.99 | X-H torsion
[ 5718 5713 5712 5709 ] final  162.23 input   60.00 | X-H torsion
[ 4305 4286 4285 4282 ] final   25.93 input   60.01 | X-H torsion
[ 6139 6130 6129 6127 ] final  155.00 input   59.98 | X-H torsion
[ 6227 6224 6223 6220 ] final   -2.64 input   60.02 | X-H torsion
[ 7183 7174 7173 7171 ] final  126.03 input   60.02 | X-H torsion

> <Gold.Protein.ActiveResidues>
 GLN24   PHE25   GLN27   MET81   PHE84   ASN85   THR86   VAL88   ASN89   PHE90  
 TYR92   ALA93   VAL94   HIS95   ASN96   GLU97   TRP98   TYR100  TYR104  CYS105 
 HIS108  ASN109  PRO112  ILE113  ALA114  ALA115  VAL116  PHE117  LEU161  ALA162 
 GLN165  SER169  THR170  GLU172  MET174  PRO175  ARG177  VAL178  VAL179  CYS180 
 MET181  ILE182  GLU183  TRP184  TYR196  HIS197  VAL200  THR201  ILE204  TRP261 
 PHE264  HIS265  PHE267  PHE268  LEU269  PRO271  TYR272  PRO275  LEU277  TYR278 
 LEU279  LYS280  LYS281  PHE282  ILE283  GLN284  GLN285  VAL286  TYR287  LEU288 
 ILE290  MET291  ALA294  MET295 

> <Gold.Protein.RotatedAtoms>
  124.1154  138.9357  110.5862 H   0  0  0  0  0  0  0  0  0  0  0  0  # atno 4305 bound_to 4286
  125.4623  145.7430   95.4853 H   0  0  0  0  0  0  0  0  0  0  0  0  # atno 4415 bound_to 4410
  132.1735  150.0287  101.2910 H   0  0  0  0  0  0  0  0  0  0  0  0  # atno 5718 bound_to 5713
  138.4397  142.0469  104.5700 H   0  0  0  0  0  0  0  0  0  0  0  0  # atno 6139 bound_to 6130
  138.8076  132.5715  103.7744 H   0  0  0  0  0  0  0  0  0  0  0  0  # atno 6227 bound_to 6224
  137.6276  137.8334   96.7746 H   0  0  0  0  0  0  0  0  0  0  0  0  # atno 7183 bound_to 7174
  131.2505  134.9320   94.5575 H   0  0  0  0  0  0  0  0  0  0  0  0  # atno 7286 bound_to 7277
  126.9560  138.9736  102.5605 H   0  0  0  0  0  0  0  0  0  0  0  0  # atno 7448 bound_to 7439
  126.6632  144.9129   96.2042 LP  0  0  0  0  0  0  0  0  0  0  0  0  # atno 14307 bound_to 4410
  126.5273  146.5235   96.4365 LP  0  0  0  0  0  0  0  0  0  0  0  0  # atno 14308 bound_to 4410
  132.6334  135.2128   93.7477 LP  0  0  0  0  0  0  0  0  0  0  0  0  # atno 14309 bound_to 7277
  132.0041  133.7068   93.7972 LP  0  0  0  0  0  0  0  0  0  0  0  0  # atno 14310 bound_to 7277
  125.4655  139.6029  102.3860 LP  0  0  0  0  0  0  0  0  0  0  0  0  # atno 14329 bound_to 7439
  126.6721  140.0656  101.3878 LP  0  0  0  0  0  0  0  0  0  0  0  0  # atno 14330 bound_to 7439
  132.5817  149.6718   99.7566 LP  0  0  0  0  0  0  0  0  0  0  0  0  # atno 14371 bound_to 5713
  132.4859  151.2294  100.2379 LP  0  0  0  0  0  0  0  0  0  0  0  0  # atno 14372 bound_to 5713
  123.2886  137.6003  110.1608 LP  0  0  0  0  0  0  0  0  0  0  0  0  # atno 14387 bound_to 4286
  123.0647  138.2680  111.6341 LP  0  0  0  0  0  0  0  0  0  0  0  0  # atno 14388 bound_to 4286
  139.6789  142.4940  105.5259 LP  0  0  0  0  0  0  0  0  0  0  0  0  # atno 14389 bound_to 6130
  139.1268  140.9577  105.5655 LP  0  0  0  0  0  0  0  0  0  0  0  0  # atno 14390 bound_to 6130
  138.7530  131.1521  102.9798 LP  0  0  0  0  0  0  0  0  0  0  0  0  # atno 14404 bound_to 6224
  139.6617  132.3798  102.4022 LP  0  0  0  0  0  0  0  0  0  0  0  0  # atno 14405 bound_to 6224
  138.4325  138.7579   95.7041 LP  0  0  0  0  0  0  0  0  0  0  0  0  # atno 14408 bound_to 7174
  139.1785  138.2356   97.0597 LP  0  0  0  0  0  0  0  0  0  0  0  0  # atno 14409 bound_to 7174

> <Gold.Score>
     Fitness  S(hb_ext) S(vdw_ext)  S(hb_int)    S(int)      intcor
     33.15       1.41      23.78       0.00      -0.95      -0.76

> <Gold.Goldscore.Fitness>
33.1509

> <Gold.Goldscore.Internal.Vdw>
-1.0887

> <Gold.Goldscore.Internal.Torsion>
-0.6204

> <Gold.Goldscore.External.Vdw>
23.7767

> <Gold.Goldscore.Internal.HBond>
0.0000

> <Gold.Goldscore.External.HBond>
1.4085

> <Gold.Goldscore.Internal.Correction>
-0.7585

> <Gold.Goldscore.Hbonds>
donor molecule, donor type, donor heavy atom, donor atom, acceptor molecule, acceptor atom, score
      P1  H  4274  4279       L1     9  0.70

> <Gold.Goldscore.Internal.Vdw.Weighted>
-1.0887

> <Gold.Goldscore.Internal.Torsion.Weighted>
-0.6204

> <Gold.Goldscore.External.Vdw.Weighted>
32.6930

> <Gold.Goldscore.Internal.HBond.Weighted>
0.0000

> <Gold.Goldscore.External.HBond.Weighted>
1.4085

> <Gold.Goldscore.Internal.Correction.Weighted>
-0.7585

> <Gold.Rescore>
     Score     S(PLP)   S(hbond)     S(cho)   S(metal)  DE(clash)   DE(tors)     intcor
     34.97     -34.63       0.61       0.00       0.00       1.10       0.19       ----

> <Gold.PLP.Fitness>
34.9724

> <Gold.PLP.PLP>
-34.6332

> <Gold.PLP.part.hbond>
-2.2475

> <Gold.PLP.part.metal>
0.0000

> <Gold.PLP.part.buried>
-1.7245

> <Gold.PLP.part.nonpolar>
-33.8918

> <Gold.PLP.part.repulsive>
1.8048

> <Gold.PLP.ligand.clash>
1.1048

> <Gold.PLP.ligand.torsion>
0.1929

> <Gold.PLP.Chemscore.Hbond>
0.6100

> <Gold.PLP.Chemscore.CHOScore>
0.0000

> <Gold.PLP.Chemscore.Metal>
0.0000

> <Gold.Chemscore.Hbonds>
donor molecule, donor type, donor heavy atom, donor atom, acceptor molecule, acceptor atom, score
      P1  H  4274  4279       L1     9  0.75

> <Gold.PLP.Chemscore.Internal.Correction>
   9.000000E+99

