#       Name:                CT1002167954
#       Creating user name   hitesit
#       Creation time:       Sun Apr 16 20:16:34 2023


#       File generated by GOLD software.
#

@<TRIPOS>MOLECULE
CT1002167954|ligand_prepared|mol2|1|dock3
    29    30     1
SMALL
NO_CHARGES


@<TRIPOS>ATOM
      1 C1         126.4080 139.7697  96.0485 C.3            1 RES1               0.0000
      2 C2         126.0276 139.2976  94.6304 C.ar           1 RES1               0.0000
      3 C3         126.4654 141.2935  95.9918 C.2            1 RES1               0.0000
      4 C4         125.3347 139.2219  96.9827 C.2            1 RES1               0.0000
      5 C5         127.7786 139.2444  96.5353 C.3            1 RES1               0.0000
      6 C6         127.0082 139.0972  93.6634 C.ar           1 RES1               0.0000
      7 C7         124.7030 139.0562  94.2756 C.ar           1 RES1               0.0000
      8 N8         125.4483 141.9864  96.5795 N.am           1 RES1               0.0000
      9 O9         127.3687 141.8775  95.4060 O.2            1 RES1               0.0000
     10 N10        124.5178 140.1197  97.6186 N.am           1 RES1               0.0000
     11 O11        125.1784 138.0203  97.1611 O.2            1 RES1               0.0000
     12 C12        127.9962 139.3947  98.0327 C.3            1 RES1               0.0000
     13 C13        126.6770 138.6682  92.3888 C.ar           1 RES1               0.0000
     14 C14        124.3740 138.6273  93.0003 C.ar           1 RES1               0.0000
     15 C15        124.5059 141.4757  97.4356 C.2            1 RES1               0.0000
     16 C16        125.3599 138.4325  92.0566 C.ar           1 RES1               0.0000
     17 O17        123.7042 142.2122  98.0029 O.2            1 RES1               0.0000
     18 H18        127.8642 138.1832  96.2708 H              1 RES1               0.0000
     19 H19        128.5725 139.7866  96.0070 H              1 RES1               0.0000
     20 H20        128.0498 139.2799  93.9058 H              1 RES1               0.0000
     21 H21        123.9106 139.2037  95.0015 H              1 RES1               0.0000
     22 H22        125.3823 142.9757  96.3624 H              1 RES1               0.0000
     23 H23        123.8573 139.7423  98.2907 H              1 RES1               0.0000
     24 H24        128.9725 139.0108  98.3210 H              1 RES1               0.0000
     25 H25        127.9429 140.4407  98.3272 H              1 RES1               0.0000
     26 H26        127.2387 138.8468  98.5894 H              1 RES1               0.0000
     27 H27        127.4565 138.5177  91.6493 H              1 RES1               0.0000
     28 H28        123.3360 138.4437  92.7431 H              1 RES1               0.0000
     29 H29        125.1008 138.0961  91.0582 H              1 RES1               0.0000
@<TRIPOS>BOND
    1    1    2 1     
    2    1    3 1     
    3    1    4 1     
    4    1    5 1     
    5    2    6 ar    
    6    2    7 ar    
    7    3    8 1     
    8    3    9 2     
    9    4   10 1     
   10    4   11 2     
   11    5   12 1     
   12    5   18 1     
   13    5   19 1     
   14    6   13 ar    
   15    6   20 1     
   16    7   14 ar    
   17    7   21 1     
   18    8   15 1     
   19    8   22 1     
   20   10   15 1     
   21   10   23 1     
   22   12   24 1     
   23   12   25 1     
   24   12   26 1     
   25   13   16 ar    
   26   13   27 1     
   27   14   16 ar    
   28   14   28 1     
   29   15   17 2     
   30   16   29 1     
@<TRIPOS>SUBSTRUCTURE
      1 RES1           1
@<TRIPOS>SET
DONOR_HYDROGENS      STATIC     ATOMS    <user>   **** ""
2 22 23
ATOM$RED        STATIC     ATOMS    COLORGROUP SYSTEM
2 22 23
@<TRIPOS>COMMENT
> <Gold.Version>
2022.3.0

> <Gold.Id.Protein>
unknown|7rmi_clean|pdb

> <Gold.Protein.RotatedTorsions>
[ 4415 4410 4409 4407 ] final  151.52 input   60.00 | X-H torsion
[ 7286 7277 7276 7274 ] final   67.19 input   59.98 | X-H torsion
[ 7448 7439 7438 7436 ] final   92.58 input   59.99 | X-H torsion
[ 5718 5713 5712 5709 ] final  131.74 input   60.00 | X-H torsion
[ 4305 4286 4285 4282 ] final -166.67 input   60.01 | X-H torsion
[ 6139 6130 6129 6127 ] final  -73.95 input   59.98 | X-H torsion
[ 6227 6224 6223 6220 ] final -101.20 input   60.02 | X-H torsion
[ 7183 7174 7173 7171 ] final   62.67 input   60.02 | X-H torsion

> <Gold.Protein.ActiveResidues>
 GLN24   PHE25   GLN27   MET81   PHE84   ASN85   THR86   VAL88   ASN89   PHE90  
 TYR92   ALA93   VAL94   HIS95   ASN96   GLU97   TRP98   TYR100  TYR104  CYS105 
 HIS108  ASN109  PRO112  ILE113  ALA114  ALA115  VAL116  PHE117  LEU161  ALA162 
 GLN165  SER169  THR170  GLU172  MET174  PRO175  ARG177  VAL178  VAL179  CYS180 
 MET181  ILE182  GLU183  TRP184  TYR196  HIS197  VAL200  THR201  ILE204  TRP261 
 PHE264  HIS265  PHE267  PHE268  LEU269  PRO271  TYR272  PRO275  LEU277  TYR278 
 LEU279  LYS280  LYS281  PHE282  ILE283  GLN284  GLN285  VAL286  TYR287  LEU288 
 ILE290  MET291  ALA294  MET295 

> <Gold.Protein.RotatedAtoms>
  122.8508  137.7051  111.1781 H   0  0  0  0  0  0  0  0  0  0  0  0  # atno 4305 bound_to 4286
  126.9658  145.4984   96.5523 H   0  0  0  0  0  0  0  0  0  0  0  0  # atno 4415 bound_to 4410
  132.2347  149.6144  101.0321 H   0  0  0  0  0  0  0  0  0  0  0  0  # atno 5718 bound_to 5713
  139.2639  141.0280  105.6606 H   0  0  0  0  0  0  0  0  0  0  0  0  # atno 6139 bound_to 6130
  138.5993  131.2588  103.2750 H   0  0  0  0  0  0  0  0  0  0  0  0  # atno 6227 bound_to 6224
  137.6777  138.3437   95.9353 H   0  0  0  0  0  0  0  0  0  0  0  0  # atno 7183 bound_to 7174
  132.6972  135.0653   93.6695 H   0  0  0  0  0  0  0  0  0  0  0  0  # atno 7286 bound_to 7277
  126.5573  140.1028  101.3844 H   0  0  0  0  0  0  0  0  0  0  0  0  # atno 7448 bound_to 7439
  125.9224  146.6219   96.0072 LP  0  0  0  0  0  0  0  0  0  0  0  0  # atno 14307 bound_to 4410
  125.7536  145.0608   95.5586 LP  0  0  0  0  0  0  0  0  0  0  0  0  # atno 14308 bound_to 4410
  131.8519  133.6928   93.8906 LP  0  0  0  0  0  0  0  0  0  0  0  0  # atno 14309 bound_to 7277
  131.3284  135.0926   94.5487 LP  0  0  0  0  0  0  0  0  0  0  0  0  # atno 14310 bound_to 7277
  127.0449  139.0099  102.4873 LP  0  0  0  0  0  0  0  0  0  0  0  0  # atno 14329 bound_to 7439
  125.4942  139.5215  102.4709 LP  0  0  0  0  0  0  0  0  0  0  0  0  # atno 14330 bound_to 7439
  132.6508  150.1123   99.5397 LP  0  0  0  0  0  0  0  0  0  0  0  0  # atno 14371 bound_to 5713
  132.3552  151.2061  100.7156 LP  0  0  0  0  0  0  0  0  0  0  0  0  # atno 14372 bound_to 5713
  123.8231  139.0060  111.2792 LP  0  0  0  0  0  0  0  0  0  0  0  0  # atno 14387 bound_to 4286
  123.8035  138.1013  109.9198 LP  0  0  0  0  0  0  0  0  0  0  0  0  # atno 14388 bound_to 4286
  138.3849  141.8748  104.5839 LP  0  0  0  0  0  0  0  0  0  0  0  0  # atno 14389 bound_to 6130
  139.5911  142.6025  105.4097 LP  0  0  0  0  0  0  0  0  0  0  0  0  # atno 14390 bound_to 6130
  139.6102  132.0556  102.2788 LP  0  0  0  0  0  0  0  0  0  0  0  0  # atno 14404 bound_to 6224
  139.0140  132.7975  103.6058 LP  0  0  0  0  0  0  0  0  0  0  0  0  # atno 14405 bound_to 6224
  139.2241  138.6998   96.2964 LP  0  0  0  0  0  0  0  0  0  0  0  0  # atno 14408 bound_to 7174
  138.3364  137.7799   97.3125 LP  0  0  0  0  0  0  0  0  0  0  0  0  # atno 14409 bound_to 7174

> <Gold.Score>
     Fitness  S(hb_ext) S(vdw_ext)  S(hb_int)    S(int)      intcor
     31.63       0.60      23.13       0.00      -0.77      -0.77

> <Gold.Goldscore.Fitness>
31.6320

> <Gold.Goldscore.Internal.Vdw>
-0.8310

> <Gold.Goldscore.Internal.Torsion>
-0.7105

> <Gold.Goldscore.External.Vdw>
23.1299

> <Gold.Goldscore.Internal.HBond>
0.0000

> <Gold.Goldscore.External.HBond>
0.6011

> <Gold.Goldscore.Internal.Correction>
-0.7686

> <Gold.Goldscore.Hbonds>
donor molecule, donor type, donor heavy atom, donor atom, acceptor molecule, acceptor atom, score
      L1  H     8    22       P1  4410  0.30

> <Gold.Goldscore.Internal.Vdw.Weighted>
-0.8310

> <Gold.Goldscore.Internal.Torsion.Weighted>
-0.7105

> <Gold.Goldscore.External.Vdw.Weighted>
31.8037

> <Gold.Goldscore.Internal.HBond.Weighted>
0.0000

> <Gold.Goldscore.External.HBond.Weighted>
0.6011

> <Gold.Goldscore.Internal.Correction.Weighted>
-0.7686

> <Gold.Rescore>
     Score     S(PLP)   S(hbond)     S(cho)   S(metal)  DE(clash)   DE(tors)     intcor
     37.15     -34.22       0.99       0.00       0.00       0.00       0.03       ----

> <Gold.PLP.Fitness>
37.1459

> <Gold.PLP.PLP>
-34.2229

> <Gold.PLP.part.hbond>
-1.0000

> <Gold.PLP.part.metal>
0.0000

> <Gold.PLP.part.buried>
-5.1481

> <Gold.PLP.part.nonpolar>
-29.6187

> <Gold.PLP.part.repulsive>
0.1125

> <Gold.PLP.ligand.clash>
0.0000

> <Gold.PLP.ligand.torsion>
0.0254

> <Gold.PLP.Chemscore.Hbond>
0.9913

> <Gold.PLP.Chemscore.CHOScore>
0.0000

> <Gold.PLP.Chemscore.Metal>
0.0000

> <Gold.Chemscore.Hbonds>
donor molecule, donor type, donor heavy atom, donor atom, acceptor molecule, acceptor atom, score
      L1  H     8    22       P1  4469  0.12

> <Gold.PLP.Chemscore.Internal.Correction>
   9.000000E+99

