@<TRIPOS>MOLECULE
C:PO41011
     8     7     1     0     1
SMALL
NO_CHARGES
****
Generated from the CSD

@<TRIPOS>ATOM
     1 P       20.1949   7.0869   6.9720   P.3       1 PO41011   0.0000
     2 O1      20.2299   8.5399   6.5830   O.2       1 PO41011   0.0000
     3 O2      21.4529   6.3209   6.6140   O.3       1 PO41011   0.0000
     4 O3      18.9538   6.3829   6.4610   O.3       1 PO41011   0.0000
     5 O4      20.0659   7.1699   8.5490   O.3       1 PO41011   0.0000
     6 H1      22.2316   6.7288   7.0761   H         1 PO41011   0.0000
     7 H2      18.9276   6.4361   5.4698   H         1 PO41011   0.0000
     8 H3      19.2339   7.6565   8.7879   H         1 PO41011   0.0000
@<TRIPOS>BOND
     1     1     2    2
     2     1     3    1
     3     1     4    1
     4     1     5    1
     5     3     6    1
     6     4     7    1
     7     5     8    1
@<TRIPOS>SUBSTRUCTURE
     1 PO41011     1 GROUP             0 C     PO4     0  
@<TRIPOS>SET
CCDC_LIGAND STATIC ATOMS
8 1 2 3 4 5 6 7 8 
