#       Name:                CT1002167954
#       Creating user name   hitesit
#       Creation time:       Sun Apr 16 02:21:57 2023


#       File generated by GOLD software.
#

@<TRIPOS>MOLECULE
CT1002167954|ligand_prepared|mol2|1|dock3
    29    30     1
SMALL
NO_CHARGES


@<TRIPOS>ATOM
      1 C1          20.9510  22.6637  40.5262 C.3            1 RES1               0.0000
      2 C2          19.9847  21.5032  40.2131 C.ar           1 RES1               0.0000
      3 C3          21.1481  22.6608  42.0393 C.2            1 RES1               0.0000
      4 C4          22.2229  22.3857  39.7327 C.2            1 RES1               0.0000
      5 C5          20.4177  24.0523  40.1030 C.3            1 RES1               0.0000
      6 C6          19.6126  20.6031  41.2072 C.ar           1 RES1               0.0000
      7 C7          19.4559  21.3216  38.9380 C.ar           1 RES1               0.0000
      8 N8          22.3401  22.2052  42.5204 N.am           1 RES1               0.0000
      9 O9          20.2565  23.0157  42.8005 O.2            1 RES1               0.0000
     10 N10         23.3701  22.1163  40.4321 N.am           1 RES1               0.0000
     11 O11         22.2383  22.3812  38.5079 O.2            1 RES1               0.0000
     12 C12         21.3929  25.1893  40.3644 C.3            1 RES1               0.0000
     13 C13         18.7412  19.5610  40.9371 C.ar           1 RES1               0.0000
     14 C14         18.5847  20.2787  38.6700 C.ar           1 RES1               0.0000
     15 C15         23.4794  21.9832  41.7895 C.2            1 RES1               0.0000
     16 C16         18.2264  19.3983  39.6686 C.ar           1 RES1               0.0000
     17 O17         24.5348  21.6855  42.3415 O.2            1 RES1               0.0000
     18 H18         20.1820  24.0285  39.0319 H              1 RES1               0.0000
     19 H19         19.4866  24.2537  40.6469 H              1 RES1               0.0000
     20 H20         20.0095  20.7137  42.2108 H              1 RES1               0.0000
     21 H21         19.7246  22.0014  38.1366 H              1 RES1               0.0000
     22 H22         22.3888  22.0116  43.5156 H              1 RES1               0.0000
     23 H23         24.2214  22.0047  39.8906 H              1 RES1               0.0000
     24 H24         20.9694  26.1407  40.0495 H              1 RES1               0.0000
     25 H25         21.6301  25.2582  41.4241 H              1 RES1               0.0000
     26 H26         22.3213  25.0343  39.8187 H              1 RES1               0.0000
     27 H27         18.4634  18.8700  41.7262 H              1 RES1               0.0000
     28 H28         18.1825  20.1541  37.6700 H              1 RES1               0.0000
     29 H29         17.5435  18.5821  39.4574 H              1 RES1               0.0000
@<TRIPOS>BOND
    1    1    2 1     
    2    1    3 1     
    3    1    4 1     
    4    1    5 1     
    5    2    6 ar    
    6    2    7 ar    
    7    3    8 1     
    8    3    9 2     
    9    4   10 1     
   10    4   11 2     
   11    5   12 1     
   12    5   18 1     
   13    5   19 1     
   14    6   13 ar    
   15    6   20 1     
   16    7   14 ar    
   17    7   21 1     
   18    8   15 1     
   19    8   22 1     
   20   10   15 1     
   21   10   23 1     
   22   12   24 1     
   23   12   25 1     
   24   12   26 1     
   25   13   16 ar    
   26   13   27 1     
   27   14   16 ar    
   28   14   28 1     
   29   15   17 2     
   30   16   29 1     
@<TRIPOS>SUBSTRUCTURE
      1 RES1           1
@<TRIPOS>SET
DONOR_HYDROGENS      STATIC     ATOMS    <user>   **** ""
2 22 23
ATOM$RED        STATIC     ATOMS    COLORGROUP SYSTEM
2 22 23
@<TRIPOS>COMMENT
> <Gold.Version>
2022.3.0

> <Gold.Id.Protein>
unknown|2zaz_clean|pdb

> <Gold.Protein.RotatedTorsions>
[ 1027 1018 1017 1015 ] final   71.17 input   60.00 | X-H torsion
[ 5159 5154 5153 5150 ] final  -21.05 input   60.02 | X-H torsion

> <Gold.Protein.ActiveResidues>
 TYR69   ARG73   ASP324  GLN325  SER326  PHE327  GLU328  ARG330  LEU332  TRP337 
 LEU340  ASP343  GLU344 

> <Gold.Protein.RotatedAtoms>
   23.1946   22.7744   37.5224 H   0  0  0  0  0  0  0  0  0  0  0  0  # atno 1027 bound_to 1018
   23.6405   19.7576   43.8934 H   0  0  0  0  0  0  0  0  0  0  0  0  # atno 5159 bound_to 5154
   24.0841   24.1148   37.7655 LP  0  0  0  0  0  0  0  0  0  0  0  0  # atno 5589 bound_to 1018
   24.3691   22.7708   38.6482 LP  0  0  0  0  0  0  0  0  0  0  0  0  # atno 5590 bound_to 1018
   22.4195   19.7819   44.9688 LP  0  0  0  0  0  0  0  0  0  0  0  0  # atno 5597 bound_to 5154
   22.4510   18.6520   43.7903 LP  0  0  0  0  0  0  0  0  0  0  0  0  # atno 5598 bound_to 5154

> <Gold.Score>
     Fitness  S(hb_ext) S(vdw_ext)  S(hb_int)    S(int)      intcor
     28.93       3.68      20.23       0.00      -2.57      -0.76

> <Gold.Goldscore.Fitness>
28.9331

> <Gold.Goldscore.Internal.Vdw>
-2.9527

> <Gold.Goldscore.Internal.Torsion>
-0.3734

> <Gold.Goldscore.External.Vdw>
20.2340

> <Gold.Goldscore.Internal.HBond>
0.0000

> <Gold.Goldscore.External.HBond>
3.6790

> <Gold.Goldscore.Internal.Correction>
-0.7585

> <Gold.Goldscore.Hbonds>
donor molecule, donor type, donor heavy atom, donor atom, acceptor molecule, acceptor atom, score
      P1  H  1018  1027       L1    11  0.02
      P1  H  1095  1098       L1    17  0.50
      P1  H  5154  5159       L1    17  0.25
      L1  H     8    22       P1  5126  0.02

> <Gold.Goldscore.Internal.Vdw.Weighted>
-2.9527

> <Gold.Goldscore.Internal.Torsion.Weighted>
-0.3734

> <Gold.Goldscore.External.Vdw.Weighted>
27.8217

> <Gold.Goldscore.Internal.HBond.Weighted>
0.0000

> <Gold.Goldscore.External.HBond.Weighted>
3.6790

> <Gold.Goldscore.Internal.Correction.Weighted>
-0.7585

> <Gold.Rescore>
     Score     S(PLP)   S(hbond)     S(cho)   S(metal)  DE(clash)   DE(tors)     intcor
     23.81     -17.73       2.76       0.00       0.00       2.05       0.07       ----

> <Gold.PLP.Fitness>
23.8093

> <Gold.PLP.PLP>
-17.7300

> <Gold.PLP.part.hbond>
-6.6720

> <Gold.PLP.part.metal>
0.0000

> <Gold.PLP.part.buried>
-2.9958

> <Gold.PLP.part.nonpolar>
-12.4409

> <Gold.PLP.part.repulsive>
4.5406

> <Gold.PLP.ligand.clash>
2.0460

> <Gold.PLP.ligand.torsion>
0.0713

> <Gold.PLP.Chemscore.Hbond>
2.7560

> <Gold.PLP.Chemscore.CHOScore>
0.0000

> <Gold.PLP.Chemscore.Metal>
0.0000

> <Gold.Chemscore.Hbonds>
donor molecule, donor type, donor heavy atom, donor atom, acceptor molecule, acceptor atom, score
      L1  H    10    23       P1  1018  0.04
      P1  H  1018  1027       L1    11  0.26
      P1  H  5160  5171       L1    17  0.14

> <Gold.PLP.Chemscore.Internal.Correction>
   9.000000E+99

