#       Name:                CT1002167954
#       Creating user name   hitesit
#       Creation time:       Sun Apr 16 02:21:54 2023


#       File generated by GOLD software.
#

@<TRIPOS>MOLECULE
CT1002167954|ligand_prepared|mol2|1|dock1
    29    30     1
SMALL
NO_CHARGES


@<TRIPOS>ATOM
      1 C1          20.8072  24.7917  40.9950 C.3            1 RES1               0.0000
      2 C2          20.8732  25.0603  39.4777 C.ar           1 RES1               0.0000
      3 C3          19.9818  23.5203  41.1695 C.2            1 RES1               0.0000
      4 C4          22.2508  24.6663  41.4693 C.2            1 RES1               0.0000
      5 C5          20.1361  25.9275  41.8020 C.3            1 RES1               0.0000
      6 C6          21.6964  24.2944  38.6576 C.ar           1 RES1               0.0000
      7 C7          20.1162  26.0669  38.8842 C.ar           1 RES1               0.0000
      8 N8          20.6454  22.3774  41.5060 N.am           1 RES1               0.0000
      9 O9          18.7723  23.5120  40.9761 O.2            1 RES1               0.0000
     10 N10         22.6682  23.4493  41.9408 N.am           1 RES1               0.0000
     11 O11         23.0351  25.6059  41.4234 O.2            1 RES1               0.0000
     12 C12         20.2371  25.7513  43.3089 C.3            1 RES1               0.0000
     13 C13         21.7584  24.5245  37.2933 C.ar           1 RES1               0.0000
     14 C14         20.1798  26.2954  37.5195 C.ar           1 RES1               0.0000
     15 C15         21.9398  22.2911  41.9520 C.2            1 RES1               0.0000
     16 C16         21.0000  25.5247  36.7232 C.ar           1 RES1               0.0000
     17 O17         22.4027  21.2228  42.3414 O.2            1 RES1               0.0000
     18 H18         20.6037  26.8807  41.5258 H              1 RES1               0.0000
     19 H19         19.0765  25.9805  41.5229 H              1 RES1               0.0000
     20 H20         22.3024  23.5045  39.0887 H              1 RES1               0.0000
     21 H21         19.4648  26.6864  39.4912 H              1 RES1               0.0000
     22 H22         20.1319  21.5063  41.4178 H              1 RES1               0.0000
     23 H23         23.6092  23.4024  42.3186 H              1 RES1               0.0000
     24 H24         19.7505  26.5750  43.8270 H              1 RES1               0.0000
     25 H25         19.7598  24.8250  43.6218 H              1 RES1               0.0000
     26 H26         21.2778  25.7198  43.6247 H              1 RES1               0.0000
     27 H27         22.4065  23.9160  36.6711 H              1 RES1               0.0000
     28 H28         19.5816  27.0841  37.0753 H              1 RES1               0.0000
     29 H29         21.0484  25.7044  35.6543 H              1 RES1               0.0000
@<TRIPOS>BOND
    1    1    2 1     
    2    1    3 1     
    3    1    4 1     
    4    1    5 1     
    5    2    6 ar    
    6    2    7 ar    
    7    3    8 1     
    8    3    9 2     
    9    4   10 1     
   10    4   11 2     
   11    5   12 1     
   12    5   18 1     
   13    5   19 1     
   14    6   13 ar    
   15    6   20 1     
   16    7   14 ar    
   17    7   21 1     
   18    8   15 1     
   19    8   22 1     
   20   10   15 1     
   21   10   23 1     
   22   12   24 1     
   23   12   25 1     
   24   12   26 1     
   25   13   16 ar    
   26   13   27 1     
   27   14   16 ar    
   28   14   28 1     
   29   15   17 2     
   30   16   29 1     
@<TRIPOS>SUBSTRUCTURE
      1 RES1           1
@<TRIPOS>SET
DONOR_HYDROGENS      STATIC     ATOMS    <user>   **** ""
2 22 23
ATOM$RED        STATIC     ATOMS    COLORGROUP SYSTEM
2 22 23
@<TRIPOS>COMMENT
> <Gold.Version>
2022.3.0

> <Gold.Id.Protein>
unknown|2zaz_clean|pdb

> <Gold.Protein.RotatedTorsions>
[ 1027 1018 1017 1015 ] final -133.45 input   60.00 | X-H torsion
[ 5159 5154 5153 5150 ] final   13.54 input   60.02 | X-H torsion

> <Gold.Protein.ActiveResidues>
 TYR69   ARG73   ASP324  GLN325  SER326  PHE327  GLU328  ARG330  LEU332  TRP337 
 LEU340  ASP343  GLU344 

> <Gold.Protein.RotatedAtoms>
   24.5747   23.3011   38.6001 H   0  0  0  0  0  0  0  0  0  0  0  0  # atno 1027 bound_to 1018
   23.5092   19.3261   43.5672 H   0  0  0  0  0  0  0  0  0  0  0  0  # atno 5159 bound_to 5154
   23.4111   22.4051   37.9000 LP  0  0  0  0  0  0  0  0  0  0  0  0  # atno 5589 bound_to 1018
   23.6517   23.9497   37.4278 LP  0  0  0  0  0  0  0  0  0  0  0  0  # atno 5590 bound_to 1018
   22.8848   20.0779   44.8683 LP  0  0  0  0  0  0  0  0  0  0  0  0  # atno 5597 bound_to 5154
   22.1178   18.7906   44.2193 LP  0  0  0  0  0  0  0  0  0  0  0  0  # atno 5598 bound_to 5154

> <Gold.Score>
     Fitness  S(hb_ext) S(vdw_ext)  S(hb_int)    S(int)      intcor
     25.65       6.14      14.21       0.00      -0.02      -0.76

> <Gold.Goldscore.Fitness>
25.6541

> <Gold.Goldscore.Internal.Vdw>
-0.3148

> <Gold.Goldscore.Internal.Torsion>
-0.4610

> <Gold.Goldscore.External.Vdw>
14.2064

> <Gold.Goldscore.Internal.HBond>
0.0000

> <Gold.Goldscore.External.HBond>
6.1376

> <Gold.Goldscore.Internal.Correction>
-0.7585

> <Gold.Goldscore.Hbonds>
donor molecule, donor type, donor heavy atom, donor atom, acceptor molecule, acceptor atom, score
      P1  H  5216  5228       L1    17  1.00
      L1  H    10    23       P1  5123  0.07

> <Gold.Goldscore.Internal.Vdw.Weighted>
-0.3148

> <Gold.Goldscore.Internal.Torsion.Weighted>
-0.4610

> <Gold.Goldscore.External.Vdw.Weighted>
19.5338

> <Gold.Goldscore.Internal.HBond.Weighted>
0.0000

> <Gold.Goldscore.External.HBond.Weighted>
6.1376

> <Gold.Goldscore.Internal.Correction.Weighted>
-0.7585

> <Gold.Rescore>
     Score     S(PLP)   S(hbond)     S(cho)   S(metal)  DE(clash)   DE(tors)     intcor
     23.64     -18.14       1.84       0.00       0.00       0.00       0.01       ----

> <Gold.PLP.Fitness>
23.6354

> <Gold.PLP.PLP>
-18.1371

> <Gold.PLP.part.hbond>
-2.0000

> <Gold.PLP.part.metal>
0.0000

> <Gold.PLP.part.buried>
-4.0004

> <Gold.PLP.part.nonpolar>
-13.2591

> <Gold.PLP.part.repulsive>
0.3173

> <Gold.PLP.ligand.clash>
0.0000

> <Gold.PLP.ligand.torsion>
0.0109

> <Gold.PLP.Chemscore.Hbond>
1.8400

> <Gold.PLP.Chemscore.CHOScore>
0.0000

> <Gold.PLP.Chemscore.Metal>
0.0000

> <Gold.Chemscore.Hbonds>
donor molecule, donor type, donor heavy atom, donor atom, acceptor molecule, acceptor atom, score
      P1  H  5216  5228       L1    17  1.00

> <Gold.PLP.Chemscore.Internal.Correction>
   9.000000E+99

