#       Name:                CT1002167954
#       Creating user name   hitesit
#       Creation time:       Sun Apr 16 02:21:58 2023


#       File generated by GOLD software.
#

@<TRIPOS>MOLECULE
CT1002167954|ligand_prepared|mol2|1|dock4
    29    30     1
SMALL
NO_CHARGES


@<TRIPOS>ATOM
      1 C1          21.0141  23.5170  40.2189 C.3            1 RES1               0.0000
      2 C2          20.7519  23.9774  38.7705 C.ar           1 RES1               0.0000
      3 C3          19.8704  24.0765  41.0600 C.2            1 RES1               0.0000
      4 C4          21.0696  21.9938  40.1790 C.2            1 RES1               0.0000
      5 C5          22.3506  24.0286  40.8049 C.3            1 RES1               0.0000
      6 C6          19.4731  23.9089  38.2256 C.ar           1 RES1               0.0000
      7 C7          21.7763  24.4745  37.9692 C.ar           1 RES1               0.0000
      8 N8          18.9155  23.2025  41.4892 N.am           1 RES1               0.0000
      9 O9          19.7866  25.2727  41.3095 O.2            1 RES1               0.0000
     10 N10         20.0887  21.2981  40.8360 N.am           1 RES1               0.0000
     11 O11         21.9444  21.3899  39.5706 O.2            1 RES1               0.0000
     12 C12         22.5360  23.7084  42.2798 C.3            1 RES1               0.0000
     13 C13         19.2267  24.3250  36.9278 C.ar           1 RES1               0.0000
     14 C14         21.5278  24.8898  36.6714 C.ar           1 RES1               0.0000
     15 C15         18.9970  21.8334  41.4635 C.2            1 RES1               0.0000
     16 C16         20.2536  24.8161  36.1500 C.ar           1 RES1               0.0000
     17 O17         18.1285  21.1401  41.9852 O.2            1 RES1               0.0000
     18 H18         23.1779  23.5817  40.2399 H              1 RES1               0.0000
     19 H19         22.4018  25.1161  40.6706 H              1 RES1               0.0000
     20 H20         18.6530  23.5230  38.8218 H              1 RES1               0.0000
     21 H21         22.7868  24.5406  38.3580 H              1 RES1               0.0000
     22 H22         18.0619  23.6040  41.8639 H              1 RES1               0.0000
     23 H23         20.1811  20.2876  40.8596 H              1 RES1               0.0000
     24 H24         23.4891  24.0894  42.6404 H              1 RES1               0.0000
     25 H25         21.7441  24.1588  42.8748 H              1 RES1               0.0000
     26 H26         22.5156  22.6335  42.4467 H              1 RES1               0.0000
     27 H27         18.2225  24.2637  36.5217 H              1 RES1               0.0000
     28 H28         22.3391  25.2751  36.0627 H              1 RES1               0.0000
     29 H29         20.0603  25.1424  35.1334 H              1 RES1               0.0000
@<TRIPOS>BOND
    1    1    2 1     
    2    1    3 1     
    3    1    4 1     
    4    1    5 1     
    5    2    6 ar    
    6    2    7 ar    
    7    3    8 1     
    8    3    9 2     
    9    4   10 1     
   10    4   11 2     
   11    5   12 1     
   12    5   18 1     
   13    5   19 1     
   14    6   13 ar    
   15    6   20 1     
   16    7   14 ar    
   17    7   21 1     
   18    8   15 1     
   19    8   22 1     
   20   10   15 1     
   21   10   23 1     
   22   12   24 1     
   23   12   25 1     
   24   12   26 1     
   25   13   16 ar    
   26   13   27 1     
   27   14   16 ar    
   28   14   28 1     
   29   15   17 2     
   30   16   29 1     
@<TRIPOS>SUBSTRUCTURE
      1 RES1           1
@<TRIPOS>SET
DONOR_HYDROGENS      STATIC     ATOMS    <user>   **** ""
2 22 23
ATOM$RED        STATIC     ATOMS    COLORGROUP SYSTEM
2 22 23
@<TRIPOS>COMMENT
> <Gold.Version>
2022.3.0

> <Gold.Id.Protein>
unknown|2zaz_clean|pdb

> <Gold.Protein.RotatedTorsions>
[ 1027 1018 1017 1015 ] final  109.46 input   60.00 | X-H torsion
[ 5159 5154 5153 5150 ] final  -60.65 input   60.02 | X-H torsion

> <Gold.Protein.ActiveResidues>
 TYR69   ARG73   ASP324  GLN325  SER326  PHE327  GLU328  ARG330  LEU332  TRP337 
 LEU340  ASP343  GLU344 

> <Gold.Protein.RotatedAtoms>
   23.4437   22.3926   37.9335 H   0  0  0  0  0  0  0  0  0  0  0  0  # atno 1027 bound_to 1018
   23.4452   20.0877   44.3986 H   0  0  0  0  0  0  0  0  0  0  0  0  # atno 5159 bound_to 5154
   23.6177   23.9224   37.4078 LP  0  0  0  0  0  0  0  0  0  0  0  0  # atno 5589 bound_to 1018
   24.5846   23.3477   38.5916 LP  0  0  0  0  0  0  0  0  0  0  0  0  # atno 5590 bound_to 1018
   22.0762   19.2855   44.7596 LP  0  0  0  0  0  0  0  0  0  0  0  0  # atno 5597 bound_to 5154
   22.9908   18.8160   43.4908 LP  0  0  0  0  0  0  0  0  0  0  0  0  # atno 5598 bound_to 5154

> <Gold.Score>
     Fitness  S(hb_ext) S(vdw_ext)  S(hb_int)    S(int)      intcor
     27.52       6.40      15.51       0.00      -0.21      -0.76

> <Gold.Goldscore.Fitness>
27.5194

> <Gold.Goldscore.Internal.Vdw>
-0.5313

> <Gold.Goldscore.Internal.Torsion>
-0.4382

> <Gold.Goldscore.External.Vdw>
15.5117

> <Gold.Goldscore.Internal.HBond>
0.0000

> <Gold.Goldscore.External.HBond>
6.4017

> <Gold.Goldscore.Internal.Correction>
-0.7585

> <Gold.Goldscore.Hbonds>
donor molecule, donor type, donor heavy atom, donor atom, acceptor molecule, acceptor atom, score
      P1  H  1018  1027       L1    11  0.20
      P1  H  5215  5226       L1    11  1.00

> <Gold.Goldscore.Internal.Vdw.Weighted>
-0.5313

> <Gold.Goldscore.Internal.Torsion.Weighted>
-0.4382

> <Gold.Goldscore.External.Vdw.Weighted>
21.3286

> <Gold.Goldscore.Internal.HBond.Weighted>
0.0000

> <Gold.Goldscore.External.HBond.Weighted>
6.4017

> <Gold.Goldscore.Internal.Correction.Weighted>
-0.7585

> <Gold.Rescore>
     Score     S(PLP)   S(hbond)     S(cho)   S(metal)  DE(clash)   DE(tors)     intcor
     22.05     -18.95       1.77       0.00       0.00       1.79       0.21       ----

> <Gold.PLP.Fitness>
22.0485

> <Gold.PLP.PLP>
-18.9530

> <Gold.PLP.part.hbond>
-2.0000

> <Gold.PLP.part.metal>
0.0000

> <Gold.PLP.part.buried>
-2.5770

> <Gold.PLP.part.nonpolar>
-14.6809

> <Gold.PLP.part.repulsive>
0.1701

> <Gold.PLP.ligand.clash>
1.7933

> <Gold.PLP.ligand.torsion>
0.2076

> <Gold.PLP.Chemscore.Hbond>
1.7680

> <Gold.PLP.Chemscore.CHOScore>
0.0000

> <Gold.PLP.Chemscore.Metal>
0.0000

> <Gold.Chemscore.Hbonds>
donor molecule, donor type, donor heavy atom, donor atom, acceptor molecule, acceptor atom, score
      P1  H  1018  1027       L1    11  0.15
      P1  H  5215  5226       L1    11  0.88

> <Gold.PLP.Chemscore.Internal.Correction>
   9.000000E+99

