#       Name:                GA Fitting Points
#       Creating user name   hitesit
#       Creation time:       Sun Apr 16 02:22:41 2023


#       Fitting Points Used by GA Software.
#

@<TRIPOS>MOLECULE
GA Fitting Points
   469    0    0
SMALL
NO_CHARGES


@<TRIPOS>ATOM
      1 ****       -47.2500  28.7500 -22.7500 Du        
      2 ****       -47.2500  29.0000 -23.0000 Du        
      3 ****       -47.2500  29.0000 -22.7500 Du        
      4 ****       -47.2500  29.0000 -22.5000 Du        
      5 ****       -47.2500  29.2500 -23.2500 Du        
      6 ****       -47.2500  29.2500 -23.0000 Du        
      7 ****       -47.2500  29.2500 -22.7500 Du        
      8 ****       -47.2500  29.2500 -22.5000 Du        
      9 ****       -47.2500  29.5000 -23.5000 Du        
     10 ****       -47.2500  29.5000 -23.2500 Du        
     11 ****       -47.2500  29.5000 -23.0000 Du        
     12 ****       -47.2500  29.5000 -22.7500 Du        
     13 ****       -47.2500  29.7500 -23.7500 Du        
     14 ****       -47.2500  29.7500 -23.5000 Du        
     15 ****       -47.2500  29.7500 -23.2500 Du        
     16 ****       -47.2500  29.7500 -23.0000 Du        
     17 ****       -47.2500  29.7500 -22.7500 Du        
     18 ****       -47.2500  30.0000 -23.7500 Du        
     19 ****       -47.2500  30.0000 -23.5000 Du        
     20 ****       -47.2500  30.0000 -23.2500 Du        
     21 ****       -47.2500  30.0000 -23.0000 Du        
     22 ****       -47.2500  30.0000 -22.7500 Du        
     23 ****       -47.0000  28.2500 -22.5000 Du        
     24 ****       -47.0000  28.5000 -22.7500 Du        
     25 ****       -47.0000  28.5000 -22.5000 Du        
     26 ****       -47.0000  28.5000 -22.2500 Du        
     27 ****       -47.0000  28.7500 -23.0000 Du        
     28 ****       -47.0000  28.7500 -22.7500 Du        
     29 ****       -47.0000  28.7500 -22.5000 Du        
     30 ****       -47.0000  28.7500 -22.2500 Du        
     31 ****       -47.0000  28.7500 -22.0000 Du        
     32 ****       -47.0000  28.7500 -21.7500 Du        
     33 ****       -47.0000  29.0000 -23.2500 Du        
     34 ****       -47.0000  29.0000 -23.0000 Du        
     35 ****       -47.0000  29.0000 -22.7500 Du        
     36 ****       -47.0000  29.0000 -22.5000 Du        
     37 ****       -47.0000  29.0000 -22.2500 Du        
     38 ****       -47.0000  29.0000 -22.0000 Du        
     39 ****       -47.0000  29.0000 -21.7500 Du        
     40 ****       -47.0000  29.2500 -23.5000 Du        
     41 ****       -47.0000  29.2500 -23.2500 Du        
     42 ****       -47.0000  29.2500 -23.0000 Du        
     43 ****       -47.0000  29.2500 -22.7500 Du        
     44 ****       -47.0000  29.2500 -22.5000 Du        
     45 ****       -47.0000  29.2500 -22.2500 Du        
     46 ****       -47.0000  29.2500 -22.0000 Du        
     47 ****       -47.0000  29.2500 -21.7500 Du        
     48 ****       -47.0000  29.2500 -21.5000 Du        
     49 ****       -47.0000  29.2500 -21.2500 Du        
     50 ****       -47.0000  29.5000 -23.7500 Du        
     51 ****       -47.0000  29.5000 -23.5000 Du        
     52 ****       -47.0000  29.5000 -23.2500 Du        
     53 ****       -47.0000  29.5000 -23.0000 Du        
     54 ****       -47.0000  29.5000 -22.7500 Du        
     55 ****       -47.0000  29.5000 -22.5000 Du        
     56 ****       -47.0000  29.5000 -22.2500 Du        
     57 ****       -47.0000  29.5000 -22.0000 Du        
     58 ****       -47.0000  29.5000 -21.7500 Du        
     59 ****       -47.0000  29.5000 -21.5000 Du        
     60 ****       -47.0000  29.5000 -21.2500 Du        
     61 ****       -47.0000  29.7500 -24.2500 Du        
     62 ****       -47.0000  29.7500 -24.0000 Du        
     63 ****       -47.0000  29.7500 -23.7500 Du        
     64 ****       -47.0000  29.7500 -23.5000 Du        
     65 ****       -47.0000  29.7500 -23.2500 Du        
     66 ****       -47.0000  29.7500 -23.0000 Du        
     67 ****       -47.0000  29.7500 -22.7500 Du        
     68 ****       -47.0000  29.7500 -22.5000 Du        
     69 ****       -47.0000  29.7500 -22.2500 Du        
     70 ****       -47.0000  29.7500 -22.0000 Du        
     71 ****       -47.0000  29.7500 -21.7500 Du        
     72 ****       -47.0000  29.7500 -21.5000 Du        
     73 ****       -47.0000  29.7500 -21.2500 Du        
     74 ****       -47.0000  29.7500 -21.0000 Du        
     75 ****       -47.0000  30.0000 -24.7500 Du        
     76 ****       -47.0000  30.0000 -24.5000 Du        
     77 ****       -47.0000  30.0000 -24.2500 Du        
     78 ****       -47.0000  30.0000 -24.0000 Du        
     79 ****       -47.0000  30.0000 -23.7500 Du        
     80 ****       -47.0000  30.0000 -23.5000 Du        
     81 ****       -47.0000  30.0000 -23.2500 Du        
     82 ****       -47.0000  30.0000 -23.0000 Du        
     83 ****       -47.0000  30.0000 -22.7500 Du        
     84 ****       -47.0000  30.0000 -22.5000 Du        
     85 ****       -47.0000  30.0000 -22.2500 Du        
     86 ****       -47.0000  30.0000 -22.0000 Du        
     87 ****       -47.0000  30.0000 -21.7500 Du        
     88 ****       -47.0000  30.0000 -21.5000 Du        
     89 ****       -47.0000  30.0000 -21.2500 Du        
     90 ****       -47.0000  30.0000 -21.0000 Du        
     91 ****       -47.0000  30.0000 -20.7500 Du        
     92 ****       -47.0000  30.2500 -24.0000 Du        
     93 ****       -47.0000  30.2500 -23.7500 Du        
     94 ****       -47.0000  30.2500 -23.5000 Du        
     95 ****       -47.0000  30.2500 -23.2500 Du        
     96 ****       -47.0000  30.2500 -23.0000 Du        
     97 ****       -47.0000  30.2500 -22.7500 Du        
     98 ****       -47.0000  30.2500 -22.5000 Du        
     99 ****       -47.0000  30.2500 -22.2500 Du        
    100 ****       -47.0000  30.2500 -22.0000 Du        
    101 ****       -47.0000  30.2500 -21.7500 Du        
    102 ****       -47.0000  30.2500 -21.5000 Du        
    103 ****       -47.0000  30.2500 -21.2500 Du        
    104 ****       -47.0000  30.2500 -21.0000 Du        
    105 ****       -47.0000  30.2500 -20.7500 Du        
    106 ****       -47.0000  30.5000 -23.0000 Du        
    107 ****       -47.0000  30.5000 -22.7500 Du        
    108 ****       -47.0000  30.5000 -22.5000 Du        
    109 ****       -47.0000  30.5000 -22.2500 Du        
    110 ****       -46.7500  28.0000 -22.5000 Du        
    111 ****       -46.7500  28.0000 -22.2500 Du        
    112 ****       -46.7500  28.0000 -22.0000 Du        
    113 ****       -46.7500  28.2500 -22.5000 Du        
    114 ****       -46.7500  28.2500 -22.2500 Du        
    115 ****       -46.7500  28.2500 -22.0000 Du        
    116 ****       -46.7500  28.2500 -21.7500 Du        
    117 ****       -46.7500  28.5000 -22.7500 Du        
    118 ****       -46.7500  28.5000 -22.5000 Du        
    119 ****       -46.7500  28.5000 -22.2500 Du        
    120 ****       -46.7500  28.5000 -22.0000 Du        
    121 ****       -46.7500  28.5000 -21.7500 Du        
    122 ****       -46.7500  28.7500 -23.0000 Du        
    123 ****       -46.7500  28.7500 -22.7500 Du        
    124 ****       -46.7500  28.7500 -22.5000 Du        
    125 ****       -46.7500  28.7500 -22.2500 Du        
    126 ****       -46.7500  28.7500 -22.0000 Du        
    127 ****       -46.7500  28.7500 -21.7500 Du        
    128 ****       -46.7500  28.7500 -21.5000 Du        
    129 ****       -46.7500  28.7500 -21.2500 Du        
    130 ****       -46.7500  29.0000 -23.2500 Du        
    131 ****       -46.7500  29.0000 -23.0000 Du        
    132 ****       -46.7500  29.0000 -22.7500 Du        
    133 ****       -46.7500  29.0000 -22.5000 Du        
    134 ****       -46.7500  29.0000 -22.2500 Du        
    135 ****       -46.7500  29.0000 -22.0000 Du        
    136 ****       -46.7500  29.0000 -21.7500 Du        
    137 ****       -46.7500  29.0000 -21.5000 Du        
    138 ****       -46.7500  29.0000 -21.2500 Du        
    139 ****       -46.7500  29.0000 -21.0000 Du        
    140 ****       -46.7500  29.0000 -20.7500 Du        
    141 ****       -46.7500  29.2500 -23.2500 Du        
    142 ****       -46.7500  29.2500 -23.0000 Du        
    143 ****       -46.7500  29.2500 -22.7500 Du        
    144 ****       -46.7500  29.2500 -22.5000 Du        
    145 ****       -46.7500  29.2500 -22.2500 Du        
    146 ****       -46.7500  29.2500 -22.0000 Du        
    147 ****       -46.7500  29.2500 -21.7500 Du        
    148 ****       -46.7500  29.2500 -21.5000 Du        
    149 ****       -46.7500  29.2500 -21.2500 Du        
    150 ****       -46.7500  29.2500 -21.0000 Du        
    151 ****       -46.7500  29.2500 -20.7500 Du        
    152 ****       -46.7500  29.5000 -23.7500 Du        
    153 ****       -46.7500  29.5000 -23.5000 Du        
    154 ****       -46.7500  29.5000 -23.2500 Du        
    155 ****       -46.7500  29.5000 -23.0000 Du        
    156 ****       -46.7500  29.5000 -22.7500 Du        
    157 ****       -46.7500  29.5000 -22.5000 Du        
    158 ****       -46.7500  29.5000 -22.2500 Du        
    159 ****       -46.7500  29.5000 -22.0000 Du        
    160 ****       -46.7500  29.5000 -21.7500 Du        
    161 ****       -46.7500  29.5000 -21.5000 Du        
    162 ****       -46.7500  29.5000 -21.2500 Du        
    163 ****       -46.7500  29.5000 -21.0000 Du        
    164 ****       -46.7500  29.5000 -20.7500 Du        
    165 ****       -46.7500  29.7500 -24.2500 Du        
    166 ****       -46.7500  29.7500 -24.0000 Du        
    167 ****       -46.7500  29.7500 -23.7500 Du        
    168 ****       -46.7500  29.7500 -23.5000 Du        
    169 ****       -46.7500  29.7500 -23.2500 Du        
    170 ****       -46.7500  29.7500 -23.0000 Du        
    171 ****       -46.7500  29.7500 -22.7500 Du        
    172 ****       -46.7500  29.7500 -22.5000 Du        
    173 ****       -46.7500  29.7500 -22.2500 Du        
    174 ****       -46.7500  29.7500 -22.0000 Du        
    175 ****       -46.7500  29.7500 -21.7500 Du        
    176 ****       -46.7500  29.7500 -21.5000 Du        
    177 ****       -46.7500  29.7500 -21.2500 Du        
    178 ****       -46.7500  29.7500 -21.0000 Du        
    179 ****       -46.7500  29.7500 -20.7500 Du        
    180 ****       -46.7500  30.0000 -25.2500 Du        
    181 ****       -46.7500  30.0000 -25.0000 Du        
    182 ****       -46.7500  30.0000 -24.7500 Du        
    183 ****       -46.7500  30.0000 -24.5000 Du        
    184 ****       -46.7500  30.0000 -24.2500 Du        
    185 ****       -46.7500  30.0000 -24.0000 Du        
    186 ****       -46.7500  30.0000 -23.7500 Du        
    187 ****       -46.7500  30.0000 -23.5000 Du        
    188 ****       -46.7500  30.0000 -23.2500 Du        
    189 ****       -46.7500  30.0000 -23.0000 Du        
    190 ****       -46.7500  30.0000 -22.7500 Du        
    191 ****       -46.7500  30.0000 -22.5000 Du        
    192 ****       -46.7500  30.0000 -22.2500 Du        
    193 ****       -46.7500  30.0000 -22.0000 Du        
    194 ****       -46.7500  30.0000 -21.7500 Du        
    195 ****       -46.7500  30.0000 -21.5000 Du        
    196 ****       -46.7500  30.0000 -21.2500 Du        
    197 ****       -46.7500  30.0000 -21.0000 Du        
    198 ****       -46.7500  30.0000 -20.7500 Du        
    199 ****       -46.7500  30.2500 -25.7500 Du        
    200 ****       -46.7500  30.2500 -25.5000 Du        
    201 ****       -46.7500  30.2500 -25.2500 Du        
    202 ****       -46.7500  30.2500 -25.0000 Du        
    203 ****       -46.7500  30.2500 -24.7500 Du        
    204 ****       -46.7500  30.2500 -24.5000 Du        
    205 ****       -46.7500  30.2500 -24.2500 Du        
    206 ****       -46.7500  30.2500 -24.0000 Du        
    207 ****       -46.7500  30.2500 -23.7500 Du        
    208 ****       -46.7500  30.2500 -23.5000 Du        
    209 ****       -46.7500  30.2500 -23.2500 Du        
    210 ****       -46.7500  30.2500 -23.0000 Du        
    211 ****       -46.7500  30.2500 -22.7500 Du        
    212 ****       -46.7500  30.2500 -22.5000 Du        
    213 ****       -46.7500  30.2500 -22.2500 Du        
    214 ****       -46.7500  30.2500 -22.0000 Du        
    215 ****       -46.7500  30.2500 -21.7500 Du        
    216 ****       -46.7500  30.2500 -21.5000 Du        
    217 ****       -46.7500  30.2500 -21.2500 Du        
    218 ****       -46.7500  30.2500 -21.0000 Du        
    219 ****       -46.7500  30.2500 -20.7500 Du        
    220 ****       -46.7500  30.5000 -25.7500 Du        
    221 ****       -46.7500  30.5000 -23.7500 Du        
    222 ****       -46.7500  30.5000 -23.5000 Du        
    223 ****       -46.7500  30.5000 -23.2500 Du        
    224 ****       -46.7500  30.5000 -23.0000 Du        
    225 ****       -46.7500  30.5000 -22.7500 Du        
    226 ****       -46.7500  30.5000 -22.5000 Du        
    227 ****       -46.7500  30.5000 -22.2500 Du        
    228 ****       -46.7500  30.5000 -22.0000 Du        
    229 ****       -46.7500  30.5000 -21.7500 Du        
    230 ****       -46.7500  30.5000 -21.5000 Du        
    231 ****       -46.7500  30.5000 -21.2500 Du        
    232 ****       -46.7500  30.5000 -21.0000 Du        
    233 ****       -46.7500  30.5000 -20.7500 Du        
    234 ****       -46.7500  30.7500 -23.0000 Du        
    235 ****       -46.7500  30.7500 -22.7500 Du        
    236 ****       -46.7500  30.7500 -22.5000 Du        
    237 ****       -46.7500  30.7500 -22.2500 Du        
    238 ****       -46.7500  30.7500 -22.0000 Du        
    239 ****       -46.5000  28.0000 -22.0000 Du        
    240 ****       -46.5000  28.0000 -21.7500 Du        
    241 ****       -46.5000  28.2500 -22.0000 Du        
    242 ****       -46.5000  28.2500 -21.7500 Du        
    243 ****       -46.5000  28.5000 -22.0000 Du        
    244 ****       -46.5000  28.5000 -21.7500 Du        
    245 ****       -46.5000  28.5000 -21.5000 Du        
    246 ****       -46.5000  28.5000 -21.2500 Du        
    247 ****       -46.5000  28.5000 -21.0000 Du        
    248 ****       -46.5000  28.7500 -22.2500 Du        
    249 ****       -46.5000  28.7500 -22.0000 Du        
    250 ****       -46.5000  28.7500 -21.7500 Du        
    251 ****       -46.5000  28.7500 -21.5000 Du        
    252 ****       -46.5000  28.7500 -21.2500 Du        
    253 ****       -46.5000  28.7500 -21.0000 Du        
    254 ****       -46.5000  28.7500 -20.7500 Du        
    255 ****       -46.5000  29.0000 -22.2500 Du        
    256 ****       -46.5000  29.0000 -22.0000 Du        
    257 ****       -46.5000  29.0000 -21.7500 Du        
    258 ****       -46.5000  29.0000 -21.5000 Du        
    259 ****       -46.5000  29.0000 -21.2500 Du        
    260 ****       -46.5000  29.0000 -21.0000 Du        
    261 ****       -46.5000  29.0000 -20.7500 Du        
    262 ****       -46.5000  29.2500 -22.5000 Du        
    263 ****       -46.5000  29.2500 -22.2500 Du        
    264 ****       -46.5000  29.2500 -22.0000 Du        
    265 ****       -46.5000  29.2500 -21.7500 Du        
    266 ****       -46.5000  29.2500 -21.5000 Du        
    267 ****       -46.5000  29.2500 -21.2500 Du        
    268 ****       -46.5000  29.2500 -21.0000 Du        
    269 ****       -46.5000  29.2500 -20.7500 Du        
    270 ****       -46.5000  29.5000 -22.7500 Du        
    271 ****       -46.5000  29.5000 -22.5000 Du        
    272 ****       -46.5000  29.5000 -22.2500 Du        
    273 ****       -46.5000  29.5000 -22.0000 Du        
    274 ****       -46.5000  29.5000 -21.7500 Du        
    275 ****       -46.5000  29.5000 -21.5000 Du        
    276 ****       -46.5000  29.5000 -21.2500 Du        
    277 ****       -46.5000  29.5000 -21.0000 Du        
    278 ****       -46.5000  29.5000 -20.7500 Du        
    279 ****       -46.5000  29.7500 -23.2500 Du        
    280 ****       -46.5000  29.7500 -23.0000 Du        
    281 ****       -46.5000  29.7500 -22.7500 Du        
    282 ****       -46.5000  29.7500 -22.5000 Du        
    283 ****       -46.5000  29.7500 -22.2500 Du        
    284 ****       -46.5000  29.7500 -22.0000 Du        
    285 ****       -46.5000  29.7500 -21.7500 Du        
    286 ****       -46.5000  29.7500 -21.5000 Du        
    287 ****       -46.5000  29.7500 -21.2500 Du        
    288 ****       -46.5000  29.7500 -21.0000 Du        
    289 ****       -46.5000  29.7500 -20.7500 Du        
    290 ****       -46.5000  30.0000 -23.7500 Du        
    291 ****       -46.5000  30.0000 -23.5000 Du        
    292 ****       -46.5000  30.0000 -23.2500 Du        
    293 ****       -46.5000  30.0000 -23.0000 Du        
    294 ****       -46.5000  30.0000 -22.7500 Du        
    295 ****       -46.5000  30.0000 -22.5000 Du        
    296 ****       -46.5000  30.0000 -22.2500 Du        
    297 ****       -46.5000  30.0000 -22.0000 Du        
    298 ****       -46.5000  30.0000 -21.7500 Du        
    299 ****       -46.5000  30.0000 -21.5000 Du        
    300 ****       -46.5000  30.0000 -21.2500 Du        
    301 ****       -46.5000  30.0000 -21.0000 Du        
    302 ****       -46.5000  30.0000 -20.7500 Du        
    303 ****       -46.5000  30.0000 -20.5000 Du        
    304 ****       -46.5000  30.2500 -25.7500 Du        
    305 ****       -46.5000  30.2500 -25.5000 Du        
    306 ****       -46.5000  30.2500 -25.2500 Du        
    307 ****       -46.5000  30.2500 -25.0000 Du        
    308 ****       -46.5000  30.2500 -24.7500 Du        
    309 ****       -46.5000  30.2500 -24.0000 Du        
    310 ****       -46.5000  30.2500 -23.7500 Du        
    311 ****       -46.5000  30.2500 -23.5000 Du        
    312 ****       -46.5000  30.2500 -23.2500 Du        
    313 ****       -46.5000  30.2500 -23.0000 Du        
    314 ****       -46.5000  30.2500 -22.7500 Du        
    315 ****       -46.5000  30.2500 -22.5000 Du        
    316 ****       -46.5000  30.2500 -22.2500 Du        
    317 ****       -46.5000  30.2500 -22.0000 Du        
    318 ****       -46.5000  30.2500 -21.7500 Du        
    319 ****       -46.5000  30.2500 -21.5000 Du        
    320 ****       -46.5000  30.2500 -21.2500 Du        
    321 ****       -46.5000  30.2500 -21.0000 Du        
    322 ****       -46.5000  30.2500 -20.7500 Du        
    323 ****       -46.5000  30.5000 -26.0000 Du        
    324 ****       -46.5000  30.5000 -25.7500 Du        
    325 ****       -46.5000  30.5000 -25.5000 Du        
    326 ****       -46.5000  30.5000 -25.2500 Du        
    327 ****       -46.5000  30.5000 -23.7500 Du        
    328 ****       -46.5000  30.5000 -23.5000 Du        
    329 ****       -46.5000  30.5000 -23.2500 Du        
    330 ****       -46.5000  30.5000 -23.0000 Du        
    331 ****       -46.5000  30.5000 -22.7500 Du        
    332 ****       -46.5000  30.5000 -22.5000 Du        
    333 ****       -46.5000  30.5000 -22.2500 Du        
    334 ****       -46.5000  30.5000 -22.0000 Du        
    335 ****       -46.5000  30.5000 -21.7500 Du        
    336 ****       -46.5000  30.5000 -21.5000 Du        
    337 ****       -46.5000  30.5000 -21.2500 Du        
    338 ****       -46.5000  30.5000 -21.0000 Du        
    339 ****       -46.5000  30.5000 -20.7500 Du        
    340 ****       -46.5000  30.7500 -23.0000 Du        
    341 ****       -46.5000  30.7500 -22.7500 Du        
    342 ****       -46.5000  30.7500 -22.5000 Du        
    343 ****       -46.5000  30.7500 -22.2500 Du        
    344 ****       -46.5000  30.7500 -22.0000 Du        
    345 ****       -46.5000  30.7500 -21.7500 Du        
    346 ****       -46.5000  30.7500 -21.5000 Du        
    347 ****       -46.5000  30.7500 -21.2500 Du        
    348 ****       -46.5000  30.7500 -21.0000 Du        
    349 ****       -46.5000  30.7500 -20.7500 Du        
    350 ****       -46.2500  28.0000 -21.0000 Du        
    351 ****       -46.2500  28.2500 -21.2500 Du        
    352 ****       -46.2500  28.2500 -21.0000 Du        
    353 ****       -46.2500  28.2500 -20.7500 Du        
    354 ****       -46.2500  28.5000 -21.2500 Du        
    355 ****       -46.2500  28.5000 -21.0000 Du        
    356 ****       -46.2500  28.5000 -20.7500 Du        
    357 ****       -46.2500  28.7500 -21.2500 Du        
    358 ****       -46.2500  28.7500 -21.0000 Du        
    359 ****       -46.2500  28.7500 -20.7500 Du        
    360 ****       -46.2500  29.0000 -21.2500 Du        
    361 ****       -46.2500  29.0000 -21.0000 Du        
    362 ****       -46.2500  29.0000 -20.7500 Du        
    363 ****       -46.2500  29.2500 -21.5000 Du        
    364 ****       -46.2500  29.2500 -21.2500 Du        
    365 ****       -46.2500  29.2500 -21.0000 Du        
    366 ****       -46.2500  29.2500 -20.7500 Du        
    367 ****       -46.2500  29.5000 -21.7500 Du        
    368 ****       -46.2500  29.5000 -21.5000 Du        
    369 ****       -46.2500  29.5000 -21.2500 Du        
    370 ****       -46.2500  29.5000 -21.0000 Du        
    371 ****       -46.2500  29.5000 -20.7500 Du        
    372 ****       -46.2500  29.7500 -22.0000 Du        
    373 ****       -46.2500  29.7500 -21.7500 Du        
    374 ****       -46.2500  29.7500 -21.5000 Du        
    375 ****       -46.2500  29.7500 -21.2500 Du        
    376 ****       -46.2500  29.7500 -21.0000 Du        
    377 ****       -46.2500  29.7500 -20.7500 Du        
    378 ****       -46.2500  30.0000 -22.5000 Du        
    379 ****       -46.2500  30.0000 -22.2500 Du        
    380 ****       -46.2500  30.0000 -22.0000 Du        
    381 ****       -46.2500  30.0000 -21.7500 Du        
    382 ****       -46.2500  30.0000 -21.5000 Du        
    383 ****       -46.2500  30.0000 -21.2500 Du        
    384 ****       -46.2500  30.0000 -21.0000 Du        
    385 ****       -46.2500  30.0000 -20.7500 Du        
    386 ****       -46.2500  30.2500 -22.7500 Du        
    387 ****       -46.2500  30.2500 -22.5000 Du        
    388 ****       -46.2500  30.2500 -22.2500 Du        
    389 ****       -46.2500  30.2500 -22.0000 Du        
    390 ****       -46.2500  30.2500 -21.7500 Du        
    391 ****       -46.2500  30.2500 -21.5000 Du        
    392 ****       -46.2500  30.2500 -21.2500 Du        
    393 ****       -46.2500  30.2500 -21.0000 Du        
    394 ****       -46.2500  30.2500 -20.7500 Du        
    395 ****       -46.2500  30.5000 -22.7500 Du        
    396 ****       -46.2500  30.5000 -22.5000 Du        
    397 ****       -46.2500  30.5000 -22.2500 Du        
    398 ****       -46.2500  30.5000 -22.0000 Du        
    399 ****       -46.2500  30.5000 -21.7500 Du        
    400 ****       -46.2500  30.5000 -21.5000 Du        
    401 ****       -46.2500  30.5000 -21.2500 Du        
    402 ****       -46.2500  30.5000 -21.0000 Du        
    403 ****       -46.2500  30.5000 -20.7500 Du        
    404 ****       -46.2500  30.7500 -22.2500 Du        
    405 ****       -46.2500  30.7500 -22.0000 Du        
    406 ****       -46.2500  30.7500 -21.7500 Du        
    407 ****       -46.2500  30.7500 -21.5000 Du        
    408 ****       -46.2500  30.7500 -21.2500 Du        
    409 ****       -46.2500  30.7500 -21.0000 Du        
    410 ****       -46.2500  30.7500 -20.7500 Du        
    411 ****       -46.2500  31.0000 -21.2500 Du        
    412 ****       -46.2500  31.0000 -21.0000 Du        
    413 ****       -46.0000  28.0000 -21.0000 Du        
    414 ****       -46.0000  28.0000 -20.7500 Du        
    415 ****       -46.0000  28.2500 -21.0000 Du        
    416 ****       -46.0000  28.2500 -20.7500 Du        
    417 ****       -46.0000  28.5000 -20.7500 Du        
    418 ****       -46.0000  28.7500 -21.0000 Du        
    419 ****       -46.0000  28.7500 -20.7500 Du        
    420 ****       -46.0000  29.0000 -21.0000 Du        
    421 ****       -46.0000  29.0000 -20.7500 Du        
    422 ****       -46.0000  29.2500 -20.7500 Du        
    423 ****       -46.0000  29.5000 -21.0000 Du        
    424 ****       -46.0000  29.5000 -20.7500 Du        
    425 ****       -46.0000  29.7500 -21.2500 Du        
    426 ****       -46.0000  29.7500 -21.0000 Du        
    427 ****       -46.0000  29.7500 -20.7500 Du        
    428 ****       -46.0000  30.0000 -21.5000 Du        
    429 ****       -46.0000  30.0000 -21.2500 Du        
    430 ****       -46.0000  30.0000 -21.0000 Du        
    431 ****       -46.0000  30.0000 -20.7500 Du        
    432 ****       -46.0000  30.2500 -22.0000 Du        
    433 ****       -46.0000  30.2500 -21.7500 Du        
    434 ****       -46.0000  30.2500 -21.5000 Du        
    435 ****       -46.0000  30.2500 -21.2500 Du        
    436 ****       -46.0000  30.2500 -21.0000 Du        
    437 ****       -46.0000  30.2500 -20.7500 Du        
    438 ****       -46.0000  30.5000 -22.0000 Du        
    439 ****       -46.0000  30.5000 -21.7500 Du        
    440 ****       -46.0000  30.5000 -21.5000 Du        
    441 ****       -46.0000  30.5000 -21.2500 Du        
    442 ****       -46.0000  30.5000 -21.0000 Du        
    443 ****       -46.0000  30.5000 -20.7500 Du        
    444 ****       -46.0000  30.7500 -22.0000 Du        
    445 ****       -46.0000  30.7500 -21.7500 Du        
    446 ****       -46.0000  30.7500 -21.5000 Du        
    447 ****       -46.0000  30.7500 -21.2500 Du        
    448 ****       -46.0000  30.7500 -21.0000 Du        
    449 ****       -46.0000  30.7500 -20.7500 Du        
    450 ****       -46.0000  31.0000 -21.2500 Du        
    451 ****       -45.7500  27.5000 -20.7500 Du        
    452 ****       -45.7500  27.7500 -20.7500 Du        
    453 ****       -45.7500  28.0000 -20.7500 Du        
    454 ****       -45.7500  28.2500 -20.7500 Du        
    455 ****       -45.7500  30.0000 -21.0000 Du        
    456 ****       -45.7500  30.0000 -20.7500 Du        
    457 ****       -45.7500  30.2500 -21.2500 Du        
    458 ****       -45.7500  30.2500 -21.0000 Du        
    459 ****       -45.7500  30.2500 -20.7500 Du        
    460 ****       -45.7500  30.5000 -21.2500 Du        
    461 ****       -45.7500  30.5000 -21.0000 Du        
    462 ****       -45.7500  30.5000 -20.7500 Du        
    463 ****       -45.7500  30.7500 -21.2500 Du        
    464 ****       -45.7500  30.7500 -21.0000 Du        
    465 ****       -45.5000  27.0000 -20.7500 Du        
    466 ****       -45.5000  27.2500 -20.7500 Du        
    467 ****       -45.2500  27.0000 -20.7500 Du        
    468 ****       -45.2500  27.2500 -20.7500 Du        
    469 ****       -45.0000  27.0000 -20.7500 Du        
