#       Name:                CT1002167954
#       Creating user name   hitesit
#       Creation time:       Sun Apr 16 02:22:50 2023


#       File generated by GOLD software.
#

@<TRIPOS>MOLECULE
CT1002167954|ligand_prepared|mol2|1|dock9
    29    30     1
SMALL
NO_CHARGES


@<TRIPOS>ATOM
      1 C1         -45.8431  28.0628 -18.9101 C.3            1 RES1               0.0000
      2 C2         -46.1907  28.3492 -20.3852 C.ar           1 RES1               0.0000
      3 C3         -46.1021  26.5753 -18.6899 C.2            1 RES1               0.0000
      4 C4         -44.3864  28.4744 -18.7274 C.2            1 RES1               0.0000
      5 C5         -46.6964  28.8647 -17.9000 C.3            1 RES1               0.0000
      6 C6         -46.6294  29.6102 -20.7779 C.ar           1 RES1               0.0000
      7 C7         -46.0753  27.3651 -21.3634 C.ar           1 RES1               0.0000
      8 N8         -45.0183  25.7548 -18.5801 N.am           1 RES1               0.0000
      9 O9         -47.2399  26.1234 -18.6528 O.2            1 RES1               0.0000
     10 N10        -43.4725  27.4932 -18.4453 N.am           1 RES1               0.0000
     11 O11        -44.0192  29.6373 -18.8416 O.2            1 RES1               0.0000
     12 C12        -46.5784  28.3684 -16.4676 C.3            1 RES1               0.0000
     13 C13        -46.9387  29.8786 -22.1010 C.ar           1 RES1               0.0000
     14 C14        -46.3854  27.6356 -22.6859 C.ar           1 RES1               0.0000
     15 C15        -43.7174  26.1480 -18.3937 C.2            1 RES1               0.0000
     16 C16        -46.8165  28.8918 -23.0559 C.ar           1 RES1               0.0000
     17 O17        -42.8323  25.3224 -18.1882 O.2            1 RES1               0.0000
     18 H18        -46.3892  29.9172 -17.9355 H              1 RES1               0.0000
     19 H19        -47.7485  28.8120 -18.2064 H              1 RES1               0.0000
     20 H20        -46.7340  30.3987 -20.0401 H              1 RES1               0.0000
     21 H21        -45.7390  26.3693 -21.0952 H              1 RES1               0.0000
     22 H22        -45.1910  24.7565 -18.6423 H              1 RES1               0.0000
     23 H23        -42.5214  27.7933 -18.2561 H              1 RES1               0.0000
     24 H24        -47.1968  28.9653 -15.8004 H              1 RES1               0.0000
     25 H25        -46.8999  27.3318 -16.3907 H              1 RES1               0.0000
     26 H26        -45.5488  28.4305 -16.1215 H              1 RES1               0.0000
     27 H27        -47.2789  30.8685 -22.3867 H              1 RES1               0.0000
     28 H28        -46.2883  26.8557 -23.4340 H              1 RES1               0.0000
     29 H29        -47.0585  29.1024 -24.0924 H              1 RES1               0.0000
@<TRIPOS>BOND
    1    1    2 1     
    2    1    3 1     
    3    1    4 1     
    4    1    5 1     
    5    2    6 ar    
    6    2    7 ar    
    7    3    8 1     
    8    3    9 2     
    9    4   10 1     
   10    4   11 2     
   11    5   12 1     
   12    5   18 1     
   13    5   19 1     
   14    6   13 ar    
   15    6   20 1     
   16    7   14 ar    
   17    7   21 1     
   18    8   15 1     
   19    8   22 1     
   20   10   15 1     
   21   10   23 1     
   22   12   24 1     
   23   12   25 1     
   24   12   26 1     
   25   13   16 ar    
   26   13   27 1     
   27   14   16 ar    
   28   14   28 1     
   29   15   17 2     
   30   16   29 1     
@<TRIPOS>SUBSTRUCTURE
      1 RES1           1
@<TRIPOS>SET
DONOR_HYDROGENS      STATIC     ATOMS    <user>   **** ""
2 22 23
ATOM$RED        STATIC     ATOMS    COLORGROUP SYSTEM
2 22 23
@<TRIPOS>COMMENT
> <Gold.Version>
2022.3.0

> <Gold.Id.Protein>
unknown|7ta6_clean|pdb

> <Gold.Protein.RotatedTorsions>
[ 11622 11535 11534 11532 ] final  108.87 input   60.01 | X-H torsion
[ 12183 12075 12074 12072 ] final  100.96 input   60.00 | X-H torsion
[ 12413 12376 12377 12378 ] final  -66.61 input   12.64 | X-H torsion
[ 12469 12432 12433 12434 ] final  -44.86 input   -4.29 | X-H torsion
[ 12567 12491 12492 12493 ] final  118.53 input   85.07 | X-H torsion
[ 17235 17166 17170 17167 ] final   -6.58 input   60.00 | X-H torsion
[ 12727 12623 12624 12625 ] final -140.79 input   40.46 | X-H torsion
[ 17240 17169 17168 17167 ] final  -53.33 input   59.99 | X-H torsion
[ 6021 5950 5951 5952 ] final  -82.33 input   61.17 | X-H torsion
[ 6190 6106 6107 6108 ] final   21.93 input   34.45 | X-H torsion
[ 17658 17540 17541 17542 ] final  -74.04 input  113.35 | X-H torsion
[ 20694 5953 5952 5951 ] final  114.65 input   -0.00 | X-H torsion
[ 20701 12379 12378 12377 ] final   70.19 input    0.00 | X-H torsion
[ 20704 12435 12434 12433 ] final   33.66 input    0.00 | X-H torsion
[ 20707 12494 12493 12492 ] final   -8.98 input    0.00 | X-H torsion
[ 20710 2578 2577 2576 ] final  -24.22 input    0.00 | X-H torsion
[ 20715 12231 12230 12229 ] final  101.97 input   -0.00 | X-H torsion

> <Gold.Protein.ActiveResidues>
 TRP28   LEU57   ILE58   TYR59   LEU94   TYR115  PRO117  TYR119  LEU120  GLY121 
 GLY122  VAL123  PHE124  LEU157  XCP1    LEU2    TRP4    ILE6   

> <Gold.Protein.RotatedAtoms>
  -50.4091   25.1279  -26.3310 H   0  0  0  0  0  0  0  0  0  0  0  0  # atno 6021 bound_to 5950
  -53.6388   27.4448  -26.3746 H   0  0  0  0  0  0  0  0  0  0  0  0  # atno 6190 bound_to 6106
  -44.6034   19.9110  -20.0048 H   0  0  0  0  0  0  0  0  0  0  0  0  # atno 11622 bound_to 11535
  -48.2773   32.1350  -24.4710 H   0  0  0  0  0  0  0  0  0  0  0  0  # atno 12183 bound_to 12075
  -52.3371   29.3408  -20.5655 H   0  0  0  0  0  0  0  0  0  0  0  0  # atno 12413 bound_to 12376
  -49.4324   27.0355  -22.6252 H   0  0  0  0  0  0  0  0  0  0  0  0  # atno 12469 bound_to 12432
  -47.2466   23.9958  -21.3845 H   0  0  0  0  0  0  0  0  0  0  0  0  # atno 12567 bound_to 12491
  -48.9072   21.0361  -21.9654 H   0  0  0  0  0  0  0  0  0  0  0  0  # atno 12727 bound_to 12623
  -37.4736   27.5653  -21.4584 H   0  0  0  0  0  0  0  0  0  0  0  0  # atno 17235 bound_to 17166
  -38.4956   27.0897  -20.2434 H   0  0  0  0  0  0  0  0  0  0  0  0  # atno 17236 bound_to 17166
  -38.8969   25.5559  -25.2529 H   0  0  0  0  0  0  0  0  0  0  0  0  # atno 17240 bound_to 17169
  -37.4164   22.6584  -26.1892 H   0  0  0  0  0  0  0  0  0  0  0  0  # atno 17658 bound_to 17540
  -50.9426   27.5553  -23.8980 LP  0  0  0  0  0  0  0  0  0  0  0  0  # atno 20694 bound_to 5953
  -52.0828   26.5516  -23.0658 LP  0  0  0  0  0  0  0  0  0  0  0  0  # atno 20695 bound_to 5953
  -46.1879   20.1108  -20.3158 LP  0  0  0  0  0  0  0  0  0  0  0  0  # atno 20696 bound_to 11535
  -45.1373   19.8620  -21.5410 LP  0  0  0  0  0  0  0  0  0  0  0  0  # atno 20697 bound_to 11535
  -49.6525   31.5464  -25.1127 LP  0  0  0  0  0  0  0  0  0  0  0  0  # atno 20698 bound_to 12075
  -49.0936   30.9601  -23.6947 LP  0  0  0  0  0  0  0  0  0  0  0  0  # atno 20699 bound_to 12075
  -51.2571   30.7135  -20.6308 LP  0  0  0  0  0  0  0  0  0  0  0  0  # atno 20700 bound_to 12376
  -50.4624   27.9594  -19.1153 LP  0  0  0  0  0  0  0  0  0  0  0  0  # atno 20701 bound_to 12379
  -48.7653   27.9822  -19.4611 LP  0  0  0  0  0  0  0  0  0  0  0  0  # atno 20702 bound_to 12379
  -50.4076   27.2737  -21.1961 LP  0  0  0  0  0  0  0  0  0  0  0  0  # atno 20703 bound_to 12432
  -50.0530   25.2260  -23.4956 LP  0  0  0  0  0  0  0  0  0  0  0  0  # atno 20704 bound_to 12435
  -50.0659   23.4986  -23.3694 LP  0  0  0  0  0  0  0  0  0  0  0  0  # atno 20705 bound_to 12435
  -48.9786   23.9519  -21.6385 LP  0  0  0  0  0  0  0  0  0  0  0  0  # atno 20706 bound_to 12491
  -47.7662   21.4756  -20.1377 LP  0  0  0  0  0  0  0  0  0  0  0  0  # atno 20707 bound_to 12494
  -49.1048   20.3764  -20.1364 LP  0  0  0  0  0  0  0  0  0  0  0  0  # atno 20708 bound_to 12494
  -37.3688   26.0468  -20.8338 LP  0  0  0  0  0  0  0  0  0  0  0  0  # atno 20709 bound_to 17166
  -41.9767   32.3660  -24.3851 LP  0  0  0  0  0  0  0  0  0  0  0  0  # atno 20710 bound_to 2578
  -40.4129   31.6310  -24.5042 LP  0  0  0  0  0  0  0  0  0  0  0  0  # atno 20711 bound_to 2578
  -49.5578   20.7037  -23.5553 LP  0  0  0  0  0  0  0  0  0  0  0  0  # atno 20712 bound_to 12623
  -37.4292   25.9355  -25.8448 LP  0  0  0  0  0  0  0  0  0  0  0  0  # atno 20713 bound_to 17169
  -38.6611   27.0009  -25.9635 LP  0  0  0  0  0  0  0  0  0  0  0  0  # atno 20714 bound_to 17169
  -51.6741   31.4993  -23.0379 LP  0  0  0  0  0  0  0  0  0  0  0  0  # atno 20715 bound_to 12231
  -53.1274   30.5643  -23.1552 LP  0  0  0  0  0  0  0  0  0  0  0  0  # atno 20716 bound_to 12231
  -50.7139   24.2474  -24.8482 LP  0  0  0  0  0  0  0  0  0  0  0  0  # atno 20717 bound_to 5950
  -52.3593   27.0480  -25.2524 LP  0  0  0  0  0  0  0  0  0  0  0  0  # atno 20718 bound_to 6106

> <Gold.Score>
     Fitness  S(hb_ext) S(vdw_ext)  S(hb_int)    S(int)      intcor
     21.18       0.00      15.99       0.00      -0.81      -0.76

> <Gold.Goldscore.Fitness>
21.1827

> <Gold.Goldscore.Internal.Vdw>
-0.9340

> <Gold.Goldscore.Internal.Torsion>
-0.6299

> <Gold.Goldscore.External.Vdw>
15.9914

> <Gold.Goldscore.Internal.HBond>
0.0000

> <Gold.Goldscore.External.HBond>
0.0000

> <Gold.Goldscore.Internal.Correction>
-0.7585

> <Gold.Goldscore.Internal.Vdw.Weighted>
-0.9340

> <Gold.Goldscore.Internal.Torsion.Weighted>
-0.6299

> <Gold.Goldscore.External.Vdw.Weighted>
21.9882

> <Gold.Goldscore.Internal.HBond.Weighted>
0.0000

> <Gold.Goldscore.External.HBond.Weighted>
0.0000

> <Gold.Goldscore.Internal.Correction.Weighted>
-0.7585

> <Gold.Rescore>
     Score     S(PLP)   S(hbond)     S(cho)   S(metal)  DE(clash)   DE(tors)     intcor
     21.35     -22.95       0.00       0.00       0.00       0.01       0.79       ----

> <Gold.PLP.Fitness>
21.3509

> <Gold.PLP.PLP>
-22.9502

> <Gold.PLP.part.hbond>
0.0000

> <Gold.PLP.part.metal>
0.0000

> <Gold.PLP.part.buried>
-2.3096

> <Gold.PLP.part.nonpolar>
-20.7955

> <Gold.PLP.part.repulsive>
0.0815

> <Gold.PLP.ligand.clash>
0.0103

> <Gold.PLP.ligand.torsion>
0.7945

> <Gold.PLP.Chemscore.Hbond>
0.0000

> <Gold.PLP.Chemscore.CHOScore>
0.0000

> <Gold.PLP.Chemscore.Metal>
0.0000

> <Gold.PLP.Chemscore.Internal.Correction>
   9.000000E+99

