#       Name:                CT1002167954
#       Creating user name   hitesit
#       Creation time:       Sun Apr 16 02:22:46 2023


#       File generated by GOLD software.
#

@<TRIPOS>MOLECULE
CT1002167954|ligand_prepared|mol2|1|dock3
    29    30     1
SMALL
NO_CHARGES


@<TRIPOS>ATOM
      1 C1         -45.3697  27.4050 -19.4729 C.3            1 RES1               0.0000
      2 C2         -45.9648  28.3008 -20.5784 C.ar           1 RES1               0.0000
      3 C3         -46.5311  26.5912 -18.9095 C.2            1 RES1               0.0000
      4 C4         -44.2876  26.5643 -20.1414 C.2            1 RES1               0.0000
      5 C5         -44.7150  28.1934 -18.3148 C.3            1 RES1               0.0000
      6 C6         -46.2096  29.6502 -20.3418 C.ar           1 RES1               0.0000
      7 C7         -46.2711  27.7936 -21.8384 C.ar           1 RES1               0.0000
      8 N8         -46.5980  25.2707 -19.2436 N.am           1 RES1               0.0000
      9 O9         -47.3967  27.1093 -18.2149 O.2            1 RES1               0.0000
     10 N10        -44.4815  25.2099 -20.2165 N.am           1 RES1               0.0000
     11 O11        -43.2764  27.0645 -20.6185 O.2            1 RES1               0.0000
     12 C12        -43.9315  27.3220 -17.3457 C.3            1 RES1               0.0000
     13 C13        -46.7386  30.4638 -21.3300 C.ar           1 RES1               0.0000
     14 C14        -46.8003  28.6091 -22.8251 C.ar           1 RES1               0.0000
     15 C15        -45.6018  24.5285 -19.8253 C.2            1 RES1               0.0000
     16 C16        -47.0339  29.9441 -22.5722 C.ar           1 RES1               0.0000
     17 O17        -45.7242  23.3163 -19.9754 O.2            1 RES1               0.0000
     18 H18        -44.0390  28.9465 -18.7382 H              1 RES1               0.0000
     19 H19        -45.4997  28.7217 -17.7592 H              1 RES1               0.0000
     20 H20        -45.9858  30.0764 -19.3696 H              1 RES1               0.0000
     21 H21        -46.0967  26.7461 -22.0595 H              1 RES1               0.0000
     22 H22        -47.4694  24.7906 -19.0423 H              1 RES1               0.0000
     23 H23        -43.7202  24.6585 -20.5994 H              1 RES1               0.0000
     24 H24        -43.4931  27.9246 -16.5531 H              1 RES1               0.0000
     25 H25        -44.5786  26.5774 -16.8868 H              1 RES1               0.0000
     26 H26        -43.1266  26.8009 -17.8600 H              1 RES1               0.0000
     27 H27        -46.9218  31.5135 -21.1255 H              1 RES1               0.0000
     28 H28        -47.0318  28.1956 -23.8011 H              1 RES1               0.0000
     29 H29        -47.4479  30.5818 -23.3462 H              1 RES1               0.0000
@<TRIPOS>BOND
    1    1    2 1     
    2    1    3 1     
    3    1    4 1     
    4    1    5 1     
    5    2    6 ar    
    6    2    7 ar    
    7    3    8 1     
    8    3    9 2     
    9    4   10 1     
   10    4   11 2     
   11    5   12 1     
   12    5   18 1     
   13    5   19 1     
   14    6   13 ar    
   15    6   20 1     
   16    7   14 ar    
   17    7   21 1     
   18    8   15 1     
   19    8   22 1     
   20   10   15 1     
   21   10   23 1     
   22   12   24 1     
   23   12   25 1     
   24   12   26 1     
   25   13   16 ar    
   26   13   27 1     
   27   14   16 ar    
   28   14   28 1     
   29   15   17 2     
   30   16   29 1     
@<TRIPOS>SUBSTRUCTURE
      1 RES1           1
@<TRIPOS>SET
DONOR_HYDROGENS      STATIC     ATOMS    <user>   **** ""
2 22 23
ATOM$RED        STATIC     ATOMS    COLORGROUP SYSTEM
2 22 23
@<TRIPOS>COMMENT
> <Gold.Version>
2022.3.0

> <Gold.Id.Protein>
unknown|7ta6_clean|pdb

> <Gold.Protein.RotatedTorsions>
[ 11622 11535 11534 11532 ] final   24.76 input   60.01 | X-H torsion
[ 12183 12075 12074 12072 ] final  -83.44 input   60.00 | X-H torsion
[ 12413 12376 12377 12378 ] final   59.82 input   12.64 | X-H torsion
[ 12469 12432 12433 12434 ] final  169.62 input   -4.29 | X-H torsion
[ 12567 12491 12492 12493 ] final -113.42 input   85.07 | X-H torsion
[ 17235 17166 17170 17167 ] final -139.85 input   60.00 | X-H torsion
[ 12727 12623 12624 12625 ] final  155.00 input   40.46 | X-H torsion
[ 17240 17169 17168 17167 ] final  156.39 input   59.99 | X-H torsion
[ 6021 5950 5951 5952 ] final   96.37 input   61.17 | X-H torsion
[ 6190 6106 6107 6108 ] final    3.54 input   34.45 | X-H torsion
[ 17658 17540 17541 17542 ] final -146.13 input  113.35 | X-H torsion
[ 20694 5953 5952 5951 ] final  160.12 input   -0.00 | X-H torsion
[ 20701 12379 12378 12377 ] final -101.66 input    0.00 | X-H torsion
[ 20704 12435 12434 12433 ] final   -5.39 input    0.00 | X-H torsion
[ 20707 12494 12493 12492 ] final -112.64 input    0.00 | X-H torsion
[ 20710 2578 2577 2576 ] final  164.24 input    0.00 | X-H torsion
[ 20715 12231 12230 12229 ] final  167.41 input   -0.00 | X-H torsion

> <Gold.Protein.ActiveResidues>
 TRP28   LEU57   ILE58   TYR59   LEU94   TYR115  PRO117  TYR119  LEU120  GLY121 
 GLY122  VAL123  PHE124  LEU157  XCP1    LEU2    TRP4    ILE6   

> <Gold.Protein.RotatedAtoms>
  -50.7390   24.2571  -24.8104 H   0  0  0  0  0  0  0  0  0  0  0  0  # atno 6021 bound_to 5950
  -53.7956   27.3781  -26.1492 H   0  0  0  0  0  0  0  0  0  0  0  0  # atno 6190 bound_to 6106
  -45.8348   20.0964  -19.8573 H   0  0  0  0  0  0  0  0  0  0  0  0  # atno 11622 bound_to 11535
  -49.7094   30.9395  -24.3180 H   0  0  0  0  0  0  0  0  0  0  0  0  # atno 12183 bound_to 12075
  -51.1229   30.2062  -20.0429 H   0  0  0  0  0  0  0  0  0  0  0  0  # atno 12413 bound_to 12376
  -49.9758   27.5477  -21.1145 H   0  0  0  0  0  0  0  0  0  0  0  0  # atno 12469 bound_to 12432
  -48.5923   24.3199  -22.1904 H   0  0  0  0  0  0  0  0  0  0  0  0  # atno 12567 bound_to 12491
  -49.6767   21.4729  -22.2939 H   0  0  0  0  0  0  0  0  0  0  0  0  # atno 12727 bound_to 12623
  -37.5065   25.9951  -20.6704 H   0  0  0  0  0  0  0  0  0  0  0  0  # atno 17235 bound_to 17166
  -37.3310   27.4076  -21.5195 H   0  0  0  0  0  0  0  0  0  0  0  0  # atno 17236 bound_to 17166
  -37.4873   26.3881  -26.0257 H   0  0  0  0  0  0  0  0  0  0  0  0  # atno 17240 bound_to 17169
  -38.2019   22.3371  -25.5957 H   0  0  0  0  0  0  0  0  0  0  0  0  # atno 17658 bound_to 17540
  -51.4696   27.8981  -23.6681 LP  0  0  0  0  0  0  0  0  0  0  0  0  # atno 20694 bound_to 5953
  -51.5558   26.2088  -23.2958 LP  0  0  0  0  0  0  0  0  0  0  0  0  # atno 20695 bound_to 5953
  -45.7079   19.9479  -21.4727 LP  0  0  0  0  0  0  0  0  0  0  0  0  # atno 20696 bound_to 11535
  -44.3771   19.8383  -20.5327 LP  0  0  0  0  0  0  0  0  0  0  0  0  # atno 20697 bound_to 11535
  -48.3247   31.6020  -23.7768 LP  0  0  0  0  0  0  0  0  0  0  0  0  # atno 20698 bound_to 12075
  -48.9795   32.1082  -25.1845 LP  0  0  0  0  0  0  0  0  0  0  0  0  # atno 20699 bound_to 12075
  -52.4411   29.8696  -21.1403 LP  0  0  0  0  0  0  0  0  0  0  0  0  # atno 20700 bound_to 12376
  -48.7772   28.1045  -19.4674 LP  0  0  0  0  0  0  0  0  0  0  0  0  # atno 20701 bound_to 12379
  -50.4505   27.8371  -19.1090 LP  0  0  0  0  0  0  0  0  0  0  0  0  # atno 20702 bound_to 12379
  -49.8754   26.7719  -22.6759 LP  0  0  0  0  0  0  0  0  0  0  0  0  # atno 20703 bound_to 12432
  -50.4881   25.0603  -23.1515 LP  0  0  0  0  0  0  0  0  0  0  0  0  # atno 20704 bound_to 12435
  -49.6308   23.6643  -23.7135 LP  0  0  0  0  0  0  0  0  0  0  0  0  # atno 20705 bound_to 12435
  -47.6794   23.6389  -20.8603 LP  0  0  0  0  0  0  0  0  0  0  0  0  # atno 20706 bound_to 12491
  -48.0725   20.1614  -20.3204 LP  0  0  0  0  0  0  0  0  0  0  0  0  # atno 20707 bound_to 12494
  -48.7986   21.6906  -19.9537 LP  0  0  0  0  0  0  0  0  0  0  0  0  # atno 20708 bound_to 12494
  -38.4836   27.2801  -20.3528 LP  0  0  0  0  0  0  0  0  0  0  0  0  # atno 20709 bound_to 17166
  -40.3689   31.7496  -24.5224 LP  0  0  0  0  0  0  0  0  0  0  0  0  # atno 20710 bound_to 2578
  -42.0206   32.2473  -24.3670 LP  0  0  0  0  0  0  0  0  0  0  0  0  # atno 20711 bound_to 2578
  -48.8109   20.2798  -23.2365 LP  0  0  0  0  0  0  0  0  0  0  0  0  # atno 20712 bound_to 12623
  -39.0445   26.7745  -25.7533 LP  0  0  0  0  0  0  0  0  0  0  0  0  # atno 20713 bound_to 17169
  -38.4649   25.3241  -25.2770 LP  0  0  0  0  0  0  0  0  0  0  0  0  # atno 20714 bound_to 17169
  -51.6723   30.5831  -23.2308 LP  0  0  0  0  0  0  0  0  0  0  0  0  # atno 20715 bound_to 12231
  -53.1292   31.4805  -22.9623 LP  0  0  0  0  0  0  0  0  0  0  0  0  # atno 20716 bound_to 12231
  -50.3959   25.0868  -26.3140 LP  0  0  0  0  0  0  0  0  0  0  0  0  # atno 20717 bound_to 5950
  -52.2063   27.1131  -25.4725 LP  0  0  0  0  0  0  0  0  0  0  0  0  # atno 20718 bound_to 6106

> <Gold.Score>
     Fitness  S(hb_ext) S(vdw_ext)  S(hb_int)    S(int)      intcor
     26.73       0.00      19.84       0.00      -0.55      -0.79

> <Gold.Goldscore.Fitness>
26.7256

> <Gold.Goldscore.Internal.Vdw>
-0.8305

> <Gold.Goldscore.Internal.Torsion>
-0.5062

> <Gold.Goldscore.External.Vdw>
19.8380

> <Gold.Goldscore.Internal.HBond>
0.0000

> <Gold.Goldscore.External.HBond>
0.0000

> <Gold.Goldscore.Internal.Correction>
-0.7850

> <Gold.Goldscore.Internal.Vdw.Weighted>
-0.8305

> <Gold.Goldscore.Internal.Torsion.Weighted>
-0.5062

> <Gold.Goldscore.External.Vdw.Weighted>
27.2773

> <Gold.Goldscore.Internal.HBond.Weighted>
0.0000

> <Gold.Goldscore.External.HBond.Weighted>
0.0000

> <Gold.Goldscore.Internal.Correction.Weighted>
-0.7850

> <Gold.Rescore>
     Score     S(PLP)   S(hbond)     S(cho)   S(metal)  DE(clash)   DE(tors)     intcor
     24.63     -24.65       0.00       0.00       0.00       0.00       0.01       ----

> <Gold.PLP.Fitness>
24.6266

> <Gold.PLP.PLP>
-24.6494

> <Gold.PLP.part.hbond>
0.0000

> <Gold.PLP.part.metal>
0.0000

> <Gold.PLP.part.buried>
-4.5269

> <Gold.PLP.part.nonpolar>
-21.3396

> <Gold.PLP.part.repulsive>
0.4372

> <Gold.PLP.ligand.clash>
0.0000

> <Gold.PLP.ligand.torsion>
0.0114

> <Gold.PLP.Chemscore.Hbond>
0.0000

> <Gold.PLP.Chemscore.CHOScore>
0.0000

> <Gold.PLP.Chemscore.Metal>
0.0000

> <Gold.PLP.Chemscore.Internal.Correction>
   9.000000E+99

