#       Name:                CT1002167954
#       Creating user name   hitesit
#       Creation time:       Sun Apr 16 02:22:44 2023


#       File generated by GOLD software.
#

@<TRIPOS>MOLECULE
CT1002167954|ligand_prepared|mol2|1|dock1
    29    30     1
SMALL
NO_CHARGES


@<TRIPOS>ATOM
      1 C1         -47.0073  30.5663 -19.6901 C.3            1 RES1               0.0000
      2 C2         -46.8769  30.1342 -21.1649 C.ar           1 RES1               0.0000
      3 C3         -45.9765  31.6705 -19.4744 C.2            1 RES1               0.0000
      4 C4         -48.4514  31.0185 -19.5041 C.2            1 RES1               0.0000
      5 C5         -46.7286  29.4298 -18.6791 C.3            1 RES1               0.0000
      6 C6         -46.8678  28.7861 -21.5102 C.ar           1 RES1               0.0000
      7 C7         -46.7679  31.0705 -22.1896 C.ar           1 RES1               0.0000
      8 N8         -46.4348  32.9503 -19.3652 N.am           1 RES1               0.0000
      9 O9         -44.7766  31.4267 -19.4403 O.2            1 RES1               0.0000
     10 N10        -48.6793  32.3403 -19.2234 N.am           1 RES1               0.0000
     11 O11        -49.3951  30.2455 -19.6145 O.2            1 RES1               0.0000
     12 C12        -46.6671  29.8967 -17.2333 C.3            1 RES1               0.0000
     13 C13        -46.7566  28.3884 -22.8322 C.ar           1 RES1               0.0000
     14 C14        -46.6566  30.6706 -23.5111 C.ar           1 RES1               0.0000
     15 C15        -47.7385  33.3327 -19.1759 C.2            1 RES1               0.0000
     16 C16        -46.6514  29.3302 -23.8335 C.ar           1 RES1               0.0000
     17 O17        -48.0275  34.5082 -18.9714 O.2            1 RES1               0.0000
     18 H18        -47.5170  28.6729 -18.7725 H              1 RES1               0.0000
     19 H19        -45.7745  28.9537 -18.9371 H              1 RES1               0.0000
     20 H20        -46.9471  28.0306 -20.7356 H              1 RES1               0.0000
     21 H21        -46.7687  32.1305 -21.9594 H              1 RES1               0.0000
     22 H22        -45.7445  33.6915 -19.4305 H              1 RES1               0.0000
     23 H23        -49.6392  32.6093 -19.0320 H              1 RES1               0.0000
     24 H24        -46.4692  29.0605 -16.5659 H              1 RES1               0.0000
     25 H25        -45.8766  30.6321 -17.0987 H              1 RES1               0.0000
     26 H26        -47.6088  30.3529 -16.9350 H              1 RES1               0.0000
     27 H27        -46.7517  27.3322 -23.0805 H              1 RES1               0.0000
     28 H28        -46.5734  31.4153 -24.2958 H              1 RES1               0.0000
     29 H29        -46.5648  29.0183 -24.8691 H              1 RES1               0.0000
@<TRIPOS>BOND
    1    1    2 1     
    2    1    3 1     
    3    1    4 1     
    4    1    5 1     
    5    2    6 ar    
    6    2    7 ar    
    7    3    8 1     
    8    3    9 2     
    9    4   10 1     
   10    4   11 2     
   11    5   12 1     
   12    5   18 1     
   13    5   19 1     
   14    6   13 ar    
   15    6   20 1     
   16    7   14 ar    
   17    7   21 1     
   18    8   15 1     
   19    8   22 1     
   20   10   15 1     
   21   10   23 1     
   22   12   24 1     
   23   12   25 1     
   24   12   26 1     
   25   13   16 ar    
   26   13   27 1     
   27   14   16 ar    
   28   14   28 1     
   29   15   17 2     
   30   16   29 1     
@<TRIPOS>SUBSTRUCTURE
      1 RES1           1
@<TRIPOS>SET
DONOR_HYDROGENS      STATIC     ATOMS    <user>   **** ""
2 22 23
ATOM$RED        STATIC     ATOMS    COLORGROUP SYSTEM
2 22 23
@<TRIPOS>COMMENT
> <Gold.Version>
2022.3.0

> <Gold.Id.Protein>
unknown|7ta6_clean|pdb

> <Gold.Protein.RotatedTorsions>
[ 11622 11535 11534 11532 ] final  174.59 input   60.01 | X-H torsion
[ 12183 12075 12074 12072 ] final  -77.64 input   60.00 | X-H torsion
[ 12413 12376 12377 12378 ] final  -23.80 input   12.64 | X-H torsion
[ 12469 12432 12433 12434 ] final   21.04 input   -4.29 | X-H torsion
[ 12567 12491 12492 12493 ] final  131.33 input   85.07 | X-H torsion
[ 17235 17166 17170 17167 ] final  112.05 input   60.00 | X-H torsion
[ 12727 12623 12624 12625 ] final    4.84 input   40.46 | X-H torsion
[ 17240 17169 17168 17167 ] final  -50.07 input   59.99 | X-H torsion
[ 6021 5950 5951 5952 ] final  -75.43 input   61.17 | X-H torsion
[ 6190 6106 6107 6108 ] final   32.93 input   34.45 | X-H torsion
[ 17658 17540 17541 17542 ] final   69.42 input  113.35 | X-H torsion
[ 20694 5953 5952 5951 ] final  168.85 input   -0.00 | X-H torsion
[ 20701 12379 12378 12377 ] final  122.00 input    0.00 | X-H torsion
[ 20704 12435 12434 12433 ] final  -41.00 input    0.00 | X-H torsion
[ 20707 12494 12493 12492 ] final   16.85 input    0.00 | X-H torsion
[ 20710 2578 2577 2576 ] final  -53.46 input    0.00 | X-H torsion
[ 20715 12231 12230 12229 ] final   61.32 input   -0.00 | X-H torsion

> <Gold.Protein.ActiveResidues>
 TRP28   LEU57   ILE58   TYR59   LEU94   TYR115  PRO117  TYR119  LEU120  GLY121 
 GLY122  VAL123  PHE124  LEU157  XCP1    LEU2    TRP4    ILE6   

> <Gold.Protein.RotatedAtoms>
  -50.3782   25.2094  -26.2686 H   0  0  0  0  0  0  0  0  0  0  0  0  # atno 6021 bound_to 5950
  -53.5121   27.4754  -26.4829 H   0  0  0  0  0  0  0  0  0  0  0  0  # atno 6190 bound_to 6106
  -44.4694   19.8095  -21.0066 H   0  0  0  0  0  0  0  0  0  0  0  0  # atno 11622 bound_to 11535
  -49.7438   30.9720  -24.4002 H   0  0  0  0  0  0  0  0  0  0  0  0  # atno 12183 bound_to 12075
  -51.9051   29.3238  -20.0856 H   0  0  0  0  0  0  0  0  0  0  0  0  # atno 12413 bound_to 12376
  -50.2952   26.6315  -22.5086 H   0  0  0  0  0  0  0  0  0  0  0  0  # atno 12469 bound_to 12432
  -47.2470   24.1009  -21.5530 H   0  0  0  0  0  0  0  0  0  0  0  0  # atno 12567 bound_to 12491
  -49.1536   20.3829  -23.5116 H   0  0  0  0  0  0  0  0  0  0  0  0  # atno 12727 bound_to 12623
  -38.4974   27.1107  -20.2523 H   0  0  0  0  0  0  0  0  0  0  0  0  # atno 17235 bound_to 17166
  -37.3741   26.0291  -20.8139 H   0  0  0  0  0  0  0  0  0  0  0  0  # atno 17236 bound_to 17166
  -38.9362   25.5917  -25.2575 H   0  0  0  0  0  0  0  0  0  0  0  0  # atno 17240 bound_to 17169
  -38.2701   24.0083  -25.6979 H   0  0  0  0  0  0  0  0  0  0  0  0  # atno 17658 bound_to 17540
  -51.5850   27.9076  -23.6051 LP  0  0  0  0  0  0  0  0  0  0  0  0  # atno 20694 bound_to 5953
  -51.4404   26.1993  -23.3587 LP  0  0  0  0  0  0  0  0  0  0  0  0  # atno 20695 bound_to 5953
  -45.3857   20.0501  -19.6837 LP  0  0  0  0  0  0  0  0  0  0  0  0  # atno 20696 bound_to 11535
  -46.0745   20.0249  -21.1641 LP  0  0  0  0  0  0  0  0  0  0  0  0  # atno 20697 bound_to 11535
  -48.3710   31.5332  -23.7296 LP  0  0  0  0  0  0  0  0  0  0  0  0  # atno 20698 bound_to 12075
  -48.8987   32.1442  -25.1491 LP  0  0  0  0  0  0  0  0  0  0  0  0  # atno 20699 bound_to 12075
  -51.6784   30.7300  -21.0987 LP  0  0  0  0  0  0  0  0  0  0  0  0  # atno 20700 bound_to 12376
  -50.1202   27.2847  -19.1366 LP  0  0  0  0  0  0  0  0  0  0  0  0  # atno 20701 bound_to 12379
  -49.1076   28.6569  -19.4397 LP  0  0  0  0  0  0  0  0  0  0  0  0  # atno 20702 bound_to 12379
  -49.5624   27.6694  -21.3103 LP  0  0  0  0  0  0  0  0  0  0  0  0  # atno 20703 bound_to 12432
  -50.7215   24.6327  -22.9440 LP  0  0  0  0  0  0  0  0  0  0  0  0  # atno 20704 bound_to 12435
  -49.3974   24.0919  -23.9210 LP  0  0  0  0  0  0  0  0  0  0  0  0  # atno 20705 bound_to 12435
  -48.9783   23.8505  -21.4758 LP  0  0  0  0  0  0  0  0  0  0  0  0  # atno 20706 bound_to 12491
  -48.0667   21.7053  -20.0554 LP  0  0  0  0  0  0  0  0  0  0  0  0  # atno 20707 bound_to 12494
  -48.8043   20.1467  -20.2187 LP  0  0  0  0  0  0  0  0  0  0  0  0  # atno 20708 bound_to 12494
  -37.4652   27.5392  -21.4597 LP  0  0  0  0  0  0  0  0  0  0  0  0  # atno 20709 bound_to 17166
  -41.7031   32.6996  -24.4551 LP  0  0  0  0  0  0  0  0  0  0  0  0  # atno 20710 bound_to 2578
  -40.6865   31.2974  -24.4342 LP  0  0  0  0  0  0  0  0  0  0  0  0  # atno 20711 bound_to 2578
  -49.3187   21.3377  -22.0547 LP  0  0  0  0  0  0  0  0  0  0  0  0  # atno 20712 bound_to 12623
  -37.4386   25.8882  -25.8212 LP  0  0  0  0  0  0  0  0  0  0  0  0  # atno 20713 bound_to 17169
  -38.6121   27.0122  -25.9825 LP  0  0  0  0  0  0  0  0  0  0  0  0  # atno 20714 bound_to 17169
  -52.1548   31.8470  -22.9385 LP  0  0  0  0  0  0  0  0  0  0  0  0  # atno 20715 bound_to 12231
  -52.6467   30.2166  -23.2547 LP  0  0  0  0  0  0  0  0  0  0  0  0  # atno 20716 bound_to 12231
  -50.7437   24.1688  -24.9083 LP  0  0  0  0  0  0  0  0  0  0  0  0  # atno 20717 bound_to 5950
  -52.4830   27.0181  -25.1466 LP  0  0  0  0  0  0  0  0  0  0  0  0  # atno 20718 bound_to 6106

> <Gold.Score>
     Fitness  S(hb_ext) S(vdw_ext)  S(hb_int)    S(int)      intcor
     28.66       0.00      21.27       0.00      -0.59      -0.85

> <Gold.Goldscore.Fitness>
28.6612

> <Gold.Goldscore.Internal.Vdw>
-0.9600

> <Gold.Goldscore.Internal.Torsion>
-0.4738

> <Gold.Goldscore.External.Vdw>
21.2702

> <Gold.Goldscore.Internal.HBond>
0.0000

> <Gold.Goldscore.External.HBond>
0.0000

> <Gold.Goldscore.Internal.Correction>
-0.8485

> <Gold.Goldscore.Internal.Vdw.Weighted>
-0.9600

> <Gold.Goldscore.Internal.Torsion.Weighted>
-0.4738

> <Gold.Goldscore.External.Vdw.Weighted>
29.2465

> <Gold.Goldscore.Internal.HBond.Weighted>
0.0000

> <Gold.Goldscore.External.HBond.Weighted>
0.0000

> <Gold.Goldscore.Internal.Correction.Weighted>
-0.8485

> <Gold.Rescore>
     Score     S(PLP)   S(hbond)     S(cho)   S(metal)  DE(clash)   DE(tors)     intcor
     22.99     -24.09       0.00       0.00       0.00       0.00       0.55       ----

> <Gold.PLP.Fitness>
22.9872

> <Gold.PLP.PLP>
-24.0893

> <Gold.PLP.part.hbond>
0.0000

> <Gold.PLP.part.metal>
0.0000

> <Gold.PLP.part.buried>
1.7941

> <Gold.PLP.part.nonpolar>
-25.8581

> <Gold.PLP.part.repulsive>
0.1063

> <Gold.PLP.ligand.clash>
0.0000

> <Gold.PLP.ligand.torsion>
0.5511

> <Gold.PLP.Chemscore.Hbond>
0.0000

> <Gold.PLP.Chemscore.CHOScore>
0.0000

> <Gold.PLP.Chemscore.Metal>
0.0000

> <Gold.PLP.Chemscore.Internal.Correction>
   9.000000E+99

