#       Name:                CT1002167954
#       Creating user name   hitesit
#       Creation time:       Sun Apr 16 02:22:46 2023


#       File generated by GOLD software.
#

@<TRIPOS>MOLECULE
CT1002167954|ligand_prepared|mol2|1|dock4
    29    30     1
SMALL
NO_CHARGES


@<TRIPOS>ATOM
      1 C1         -46.8338  30.5141 -19.5617 C.3            1 RES1               0.0000
      2 C2         -46.7608  30.1130 -21.0491 C.ar           1 RES1               0.0000
      3 C3         -48.2636  30.9864 -19.3149 C.2            1 RES1               0.0000
      4 C4         -46.4421  29.2739 -18.7658 C.2            1 RES1               0.0000
      5 C5         -45.8655  31.6559 -19.1742 C.3            1 RES1               0.0000
      6 C6         -46.8627  28.7781 -21.4290 C.ar           1 RES1               0.0000
      7 C7         -46.5948  31.0653 -22.0513 C.ar           1 RES1               0.0000
      8 N8         -49.0897  30.1595 -18.6123 N.am           1 RES1               0.0000
      9 O9         -48.6715  32.0504 -19.7639 O.2            1 RES1               0.0000
     10 N10        -47.3965  28.6917 -17.9734 N.am           1 RES1               0.0000
     11 O11        -45.3205  28.7861 -18.8306 O.2            1 RES1               0.0000
     12 C12        -45.7589  31.8872 -17.6750 C.3            1 RES1               0.0000
     13 C13        -46.8038  28.4087 -22.7625 C.ar           1 RES1               0.0000
     14 C14        -46.5359  30.6936 -23.3843 C.ar           1 RES1               0.0000
     15 C15        -48.7112  29.0602 -17.8843 C.2            1 RES1               0.0000
     16 C16        -46.6408  29.3660 -23.7410 C.ar           1 RES1               0.0000
     17 O17        -49.5223  28.4532 -17.1909 O.2            1 RES1               0.0000
     18 H18        -44.8684  31.4220 -19.5671 H              1 RES1               0.0000
     19 H19        -46.2047  32.5837 -19.6512 H              1 RES1               0.0000
     20 H20        -46.9888  28.0104 -20.6728 H              1 RES1               0.0000
     21 H21        -46.5089  32.1155 -21.7940 H              1 RES1               0.0000
     22 H22        -50.0807  30.3787 -18.6299 H              1 RES1               0.0000
     23 H23        -47.0993  27.9112 -17.3964 H              1 RES1               0.0000
     24 H24        -45.0672  32.6985 -17.4581 H              1 RES1               0.0000
     25 H25        -46.7283  32.1469 -17.2549 H              1 RES1               0.0000
     26 H26        -45.4000  30.9920 -17.1713 H              1 RES1               0.0000
     27 H27        -46.8854  27.3624 -23.0379 H              1 RES1               0.0000
     28 H28        -46.4070  31.4504 -24.1510 H              1 RES1               0.0000
     29 H29        -46.5951  29.0764 -24.7857 H              1 RES1               0.0000
@<TRIPOS>BOND
    1    1    2 1     
    2    1    3 1     
    3    1    4 1     
    4    1    5 1     
    5    2    6 ar    
    6    2    7 ar    
    7    3    8 1     
    8    3    9 2     
    9    4   10 1     
   10    4   11 2     
   11    5   12 1     
   12    5   18 1     
   13    5   19 1     
   14    6   13 ar    
   15    6   20 1     
   16    7   14 ar    
   17    7   21 1     
   18    8   15 1     
   19    8   22 1     
   20   10   15 1     
   21   10   23 1     
   22   12   24 1     
   23   12   25 1     
   24   12   26 1     
   25   13   16 ar    
   26   13   27 1     
   27   14   16 ar    
   28   14   28 1     
   29   15   17 2     
   30   16   29 1     
@<TRIPOS>SUBSTRUCTURE
      1 RES1           1
@<TRIPOS>SET
DONOR_HYDROGENS      STATIC     ATOMS    <user>   **** ""
2 22 23
ATOM$RED        STATIC     ATOMS    COLORGROUP SYSTEM
2 22 23
@<TRIPOS>COMMENT
> <Gold.Version>
2022.3.0

> <Gold.Id.Protein>
unknown|7ta6_clean|pdb

> <Gold.Protein.RotatedTorsions>
[ 11622 11535 11534 11532 ] final   18.72 input   60.01 | X-H torsion
[ 12183 12075 12074 12072 ] final  -73.55 input   60.00 | X-H torsion
[ 12413 12376 12377 12378 ] final -163.56 input   12.64 | X-H torsion
[ 12469 12432 12433 12434 ] final  174.19 input   -4.29 | X-H torsion
[ 12567 12491 12492 12493 ] final  150.31 input   85.07 | X-H torsion
[ 17235 17166 17170 17167 ] final  -17.01 input   60.00 | X-H torsion
[ 12727 12623 12624 12625 ] final -120.66 input   40.46 | X-H torsion
[ 17240 17169 17168 17167 ] final    8.09 input   59.99 | X-H torsion
[ 6021 5950 5951 5952 ] final   -2.34 input   61.17 | X-H torsion
[ 6190 6106 6107 6108 ] final   60.42 input   34.45 | X-H torsion
[ 17658 17540 17541 17542 ] final  106.67 input  113.35 | X-H torsion
[ 20694 5953 5952 5951 ] final   38.06 input   -0.00 | X-H torsion
[ 20701 12379 12378 12377 ] final  -14.68 input    0.00 | X-H torsion
[ 20704 12435 12434 12433 ] final    4.84 input    0.00 | X-H torsion
[ 20707 12494 12493 12492 ] final  164.96 input    0.00 | X-H torsion
[ 20710 2578 2577 2576 ] final   19.38 input    0.00 | X-H torsion
[ 20715 12231 12230 12229 ] final   93.78 input   -0.00 | X-H torsion

> <Gold.Protein.ActiveResidues>
 TRP28   LEU57   ILE58   TYR59   LEU94   TYR115  PRO117  TYR119  LEU120  GLY121 
 GLY122  VAL123  PHE124  LEU157  XCP1    LEU2    TRP4    ILE6   

> <Gold.Protein.RotatedAtoms>
  -50.2845   25.4568  -25.2403 H   0  0  0  0  0  0  0  0  0  0  0  0  # atno 6021 bound_to 5950
  -53.1237   27.5135  -26.6384 H   0  0  0  0  0  0  0  0  0  0  0  0  # atno 6190 bound_to 6106
  -45.9121   20.1022  -19.9183 H   0  0  0  0  0  0  0  0  0  0  0  0  # atno 11622 bound_to 11535
  -49.7635   30.9985  -24.4584 H   0  0  0  0  0  0  0  0  0  0  0  0  # atno 12183 bound_to 12075
  -52.1382   30.4115  -21.3203 H   0  0  0  0  0  0  0  0  0  0  0  0  # atno 12413 bound_to 12376
  -49.9122   27.5753  -21.1272 H   0  0  0  0  0  0  0  0  0  0  0  0  # atno 12469 bound_to 12432
  -47.3274   24.2427  -21.7975 H   0  0  0  0  0  0  0  0  0  0  0  0  # atno 12567 bound_to 12491
  -48.7058   20.8210  -22.0625 H   0  0  0  0  0  0  0  0  0  0  0  0  # atno 12727 bound_to 12623
  -37.3598   27.4440  -21.5097 H   0  0  0  0  0  0  0  0  0  0  0  0  # atno 17235 bound_to 17166
  -38.4956   27.2464  -20.3189 H   0  0  0  0  0  0  0  0  0  0  0  0  # atno 17236 bound_to 17166
  -39.2214   26.4094  -25.5379 H   0  0  0  0  0  0  0  0  0  0  0  0  # atno 17240 bound_to 17169
  -38.6239   23.6768  -25.4136 H   0  0  0  0  0  0  0  0  0  0  0  0  # atno 17658 bound_to 17540
  -50.8938   26.4976  -23.7226 LP  0  0  0  0  0  0  0  0  0  0  0  0  # atno 20694 bound_to 5953
  -52.1316   27.6093  -23.2412 LP  0  0  0  0  0  0  0  0  0  0  0  0  # atno 20695 bound_to 5953
  -45.6169   19.9321  -21.5093 LP  0  0  0  0  0  0  0  0  0  0  0  0  # atno 20696 bound_to 11535
  -44.3902   19.8482  -20.4347 LP  0  0  0  0  0  0  0  0  0  0  0  0  # atno 20697 bound_to 11535
  -48.4076   31.4848  -23.7005 LP  0  0  0  0  0  0  0  0  0  0  0  0  # atno 20698 bound_to 12075
  -48.8422   32.1661  -25.1195 LP  0  0  0  0  0  0  0  0  0  0  0  0  # atno 20699 bound_to 12075
  -51.4510   29.6694  -19.8947 LP  0  0  0  0  0  0  0  0  0  0  0  0  # atno 20700 bound_to 12376
  -49.7129   28.8302  -19.3293 LP  0  0  0  0  0  0  0  0  0  0  0  0  # atno 20701 bound_to 12379
  -49.5148   27.1114  -19.2471 LP  0  0  0  0  0  0  0  0  0  0  0  0  # atno 20702 bound_to 12379
  -49.9376   26.7450  -22.6635 LP  0  0  0  0  0  0  0  0  0  0  0  0  # atno 20703 bound_to 12432
  -50.3856   25.1399  -23.2352 LP  0  0  0  0  0  0  0  0  0  0  0  0  # atno 20704 bound_to 12435
  -49.7333   23.5847  -23.6297 LP  0  0  0  0  0  0  0  0  0  0  0  0  # atno 20705 bound_to 12435
  -48.9007   23.7135  -21.2397 LP  0  0  0  0  0  0  0  0  0  0  0  0  # atno 20706 bound_to 12491
  -49.1577   20.4485  -20.1164 LP  0  0  0  0  0  0  0  0  0  0  0  0  # atno 20707 bound_to 12494
  -47.7133   21.4035  -20.1576 LP  0  0  0  0  0  0  0  0  0  0  0  0  # atno 20708 bound_to 12494
  -37.4809   26.0119  -20.7089 LP  0  0  0  0  0  0  0  0  0  0  0  0  # atno 20709 bound_to 17166
  -42.0067   31.7274  -24.3134 LP  0  0  0  0  0  0  0  0  0  0  0  0  # atno 20710 bound_to 2578
  -40.3828   32.2695  -24.5759 LP  0  0  0  0  0  0  0  0  0  0  0  0  # atno 20711 bound_to 2578
  -49.7533   20.9125  -23.4611 LP  0  0  0  0  0  0  0  0  0  0  0  0  # atno 20712 bound_to 12623
  -38.0214   25.3186  -25.4018 LP  0  0  0  0  0  0  0  0  0  0  0  0  # atno 20713 bound_to 17169
  -37.7422   26.7585  -26.1196 LP  0  0  0  0  0  0  0  0  0  0  0  0  # atno 20714 bound_to 17169
  -51.7482   31.5952  -23.0137 LP  0  0  0  0  0  0  0  0  0  0  0  0  # atno 20715 bound_to 12231
  -53.0532   30.4684  -23.1795 LP  0  0  0  0  0  0  0  0  0  0  0  0  # atno 20716 bound_to 12231
  -50.8340   23.9303  -25.8996 LP  0  0  0  0  0  0  0  0  0  0  0  0  # atno 20717 bound_to 5950
  -52.8623   26.9808  -24.9947 LP  0  0  0  0  0  0  0  0  0  0  0  0  # atno 20718 bound_to 6106

> <Gold.Score>
     Fitness  S(hb_ext) S(vdw_ext)  S(hb_int)    S(int)      intcor
     27.48       0.00      20.73       0.00      -1.03      -0.76

> <Gold.Goldscore.Fitness>
27.4771

> <Gold.Goldscore.Internal.Vdw>
-1.2621

> <Gold.Goldscore.Internal.Torsion>
-0.5248

> <Gold.Goldscore.External.Vdw>
20.7312

> <Gold.Goldscore.Internal.HBond>
0.0000

> <Gold.Goldscore.External.HBond>
0.0000

> <Gold.Goldscore.Internal.Correction>
-0.7585

> <Gold.Goldscore.Internal.Vdw.Weighted>
-1.2621

> <Gold.Goldscore.Internal.Torsion.Weighted>
-0.5248

> <Gold.Goldscore.External.Vdw.Weighted>
28.5054

> <Gold.Goldscore.Internal.HBond.Weighted>
0.0000

> <Gold.Goldscore.External.HBond.Weighted>
0.0000

> <Gold.Goldscore.Internal.Correction.Weighted>
-0.7585

> <Gold.Rescore>
     Score     S(PLP)   S(hbond)     S(cho)   S(metal)  DE(clash)   DE(tors)     intcor
     19.71     -21.96       0.00       0.00       0.00       0.33       0.96       ----

> <Gold.PLP.Fitness>
19.7126

> <Gold.PLP.PLP>
-21.9551

> <Gold.PLP.part.hbond>
-1.0000

> <Gold.PLP.part.metal>
0.0000

> <Gold.PLP.part.buried>
1.3361

> <Gold.PLP.part.nonpolar>
-23.5390

> <Gold.PLP.part.repulsive>
0.1450

> <Gold.PLP.ligand.clash>
0.3279

> <Gold.PLP.ligand.torsion>
0.9573

> <Gold.PLP.Chemscore.Hbond>
0.0000

> <Gold.PLP.Chemscore.CHOScore>
0.0000

> <Gold.PLP.Chemscore.Metal>
0.0000

> <Gold.PLP.Chemscore.Internal.Correction>
   9.000000E+99

