#       Name:                CT1002167954
#       Creating user name   hitesit
#       Creation time:       Sun Apr 16 02:22:47 2023


#       File generated by GOLD software.
#

@<TRIPOS>MOLECULE
CT1002167954|ligand_prepared|mol2|1|dock5
    29    30     1
SMALL
NO_CHARGES


@<TRIPOS>ATOM
      1 C1         -45.8395  27.1353 -19.2293 C.3            1 RES1               0.0000
      2 C2         -46.1994  28.0502 -20.4177 C.ar           1 RES1               0.0000
      3 C3         -47.1296  26.9296 -18.4409 C.2            1 RES1               0.0000
      4 C4         -45.2686  25.8568 -19.8329 C.2            1 RES1               0.0000
      5 C5         -44.7742  27.7330 -18.2809 C.3            1 RES1               0.0000
      6 C6         -46.5513  29.3801 -20.2069 C.ar           1 RES1               0.0000
      7 C7         -46.1815  27.5803 -21.7282 C.ar           1 RES1               0.0000
      8 N8         -47.7430  25.7155 -18.5387 N.am           1 RES1               0.0000
      9 O9         -47.6222  27.8318 -17.7749 O.2            1 RES1               0.0000
     10 N10        -45.9738  24.6947 -19.6600 N.am           1 RES1               0.0000
     11 O11        -44.2230  25.8483 -20.4707 O.2            1 RES1               0.0000
     12 C12        -44.3387  26.7862 -17.1737 C.3            1 RES1               0.0000
     13 C13        -46.8709  30.2109 -21.2681 C.ar           1 RES1               0.0000
     14 C14        -46.5016  28.4128 -22.7879 C.ar           1 RES1               0.0000
     15 C15        -47.2006  24.5716 -19.0667 C.2            1 RES1               0.0000
     16 C16        -46.8458  29.7280 -22.5591 C.ar           1 RES1               0.0000
     17 O17        -47.7969  23.5007 -18.9976 O.2            1 RES1               0.0000
     18 H18        -43.8937  28.0144 -18.8715 H              1 RES1               0.0000
     19 H19        -45.1786  28.6458 -17.8262 H              1 RES1               0.0000
     20 H20        -46.5789  29.7771 -19.1977 H              1 RES1               0.0000
     21 H21        -45.9148  26.5488 -21.9319 H              1 RES1               0.0000
     22 H22        -48.6930  25.6524 -18.1868 H              1 RES1               0.0000
     23 H23        -45.5444  23.8423 -20.0057 H              1 RES1               0.0000
     24 H24        -43.5908  27.2548 -16.5374 H              1 RES1               0.0000
     25 H25        -45.1855  26.5054 -16.5509 H              1 RES1               0.0000
     26 H26        -43.9083  25.8778 -17.5901 H              1 RES1               0.0000
     27 H27        -47.1424  31.2449 -21.0826 H              1 RES1               0.0000
     28 H28        -46.4812  28.0283 -23.8023 H              1 RES1               0.0000
     29 H29        -47.0958  30.3792 -23.3902 H              1 RES1               0.0000
@<TRIPOS>BOND
    1    1    2 1     
    2    1    3 1     
    3    1    4 1     
    4    1    5 1     
    5    2    6 ar    
    6    2    7 ar    
    7    3    8 1     
    8    3    9 2     
    9    4   10 1     
   10    4   11 2     
   11    5   12 1     
   12    5   18 1     
   13    5   19 1     
   14    6   13 ar    
   15    6   20 1     
   16    7   14 ar    
   17    7   21 1     
   18    8   15 1     
   19    8   22 1     
   20   10   15 1     
   21   10   23 1     
   22   12   24 1     
   23   12   25 1     
   24   12   26 1     
   25   13   16 ar    
   26   13   27 1     
   27   14   16 ar    
   28   14   28 1     
   29   15   17 2     
   30   16   29 1     
@<TRIPOS>SUBSTRUCTURE
      1 RES1           1
@<TRIPOS>SET
DONOR_HYDROGENS      STATIC     ATOMS    <user>   **** ""
2 22 23
ATOM$RED        STATIC     ATOMS    COLORGROUP SYSTEM
2 22 23
@<TRIPOS>COMMENT
> <Gold.Version>
2022.3.0

> <Gold.Id.Protein>
unknown|7ta6_clean|pdb

> <Gold.Protein.RotatedTorsions>
[ 11622 11535 11534 11532 ] final   46.89 input   60.01 | X-H torsion
[ 12183 12075 12074 12072 ] final  -78.86 input   60.00 | X-H torsion
[ 12413 12376 12377 12378 ] final  175.01 input   12.64 | X-H torsion
[ 12469 12432 12433 12434 ] final -172.16 input   -4.29 | X-H torsion
[ 12567 12491 12492 12493 ] final   19.43 input   85.07 | X-H torsion
[ 17235 17166 17170 17167 ] final  -75.18 input   60.00 | X-H torsion
[ 12727 12623 12624 12625 ] final  134.94 input   40.46 | X-H torsion
[ 17240 17169 17168 17167 ] final -132.15 input   59.99 | X-H torsion
[ 6021 5950 5951 5952 ] final  -69.50 input   61.17 | X-H torsion
[ 6190 6106 6107 6108 ] final  144.68 input   34.45 | X-H torsion
[ 17658 17540 17541 17542 ] final  -81.11 input  113.35 | X-H torsion
[ 20694 5953 5952 5951 ] final -158.95 input   -0.00 | X-H torsion
[ 20701 12379 12378 12377 ] final   31.94 input    0.00 | X-H torsion
[ 20704 12435 12434 12433 ] final  168.63 input    0.00 | X-H torsion
[ 20707 12494 12493 12492 ] final -162.91 input    0.00 | X-H torsion
[ 20710 2578 2577 2576 ] final -151.09 input    0.00 | X-H torsion
[ 20715 12231 12230 12229 ] final  149.49 input   -0.00 | X-H torsion

> <Gold.Protein.ActiveResidues>
 TRP28   LEU57   ILE58   TYR59   LEU94   TYR115  PRO117  TYR119  LEU120  GLY121 
 GLY122  VAL123  PHE124  LEU157  XCP1    LEU2    TRP4    ILE6   

> <Gold.Protein.RotatedAtoms>
  -50.3539   25.2736  -26.2069 H   0  0  0  0  0  0  0  0  0  0  0  0  # atno 6021 bound_to 5950
  -52.1351   27.2911  -26.0218 H   0  0  0  0  0  0  0  0  0  0  0  0  # atno 6190 bound_to 6106
  -45.5086   20.0626  -19.7105 H   0  0  0  0  0  0  0  0  0  0  0  0  # atno 11622 bound_to 11535
  -49.7372   30.9647  -24.3829 H   0  0  0  0  0  0  0  0  0  0  0  0  # atno 12183 bound_to 12075
  -51.8961   30.6235  -21.2517 H   0  0  0  0  0  0  0  0  0  0  0  0  # atno 12413 bound_to 12376
  -49.7248   27.6409  -21.1941 H   0  0  0  0  0  0  0  0  0  0  0  0  # atno 12469 bound_to 12432
  -48.3616   23.4865  -20.8053 H   0  0  0  0  0  0  0  0  0  0  0  0  # atno 12567 bound_to 12491
  -49.8499   21.4707  -22.5503 H   0  0  0  0  0  0  0  0  0  0  0  0  # atno 12727 bound_to 12623
  -37.0553   26.5739  -21.3843 H   0  0  0  0  0  0  0  0  0  0  0  0  # atno 17235 bound_to 17166
  -38.0998   27.7894  -20.9620 H   0  0  0  0  0  0  0  0  0  0  0  0  # atno 17236 bound_to 17166
  -37.7470   25.4462  -25.5341 H   0  0  0  0  0  0  0  0  0  0  0  0  # atno 17240 bound_to 17169
  -37.4687   22.5747  -26.1440 H   0  0  0  0  0  0  0  0  0  0  0  0  # atno 17658 bound_to 17540
  -51.9763   27.7748  -23.3601 LP  0  0  0  0  0  0  0  0  0  0  0  0  # atno 20694 bound_to 5953
  -51.0491   26.3322  -23.6037 LP  0  0  0  0  0  0  0  0  0  0  0  0  # atno 20695 bound_to 5953
  -45.9962   20.0059  -21.2618 LP  0  0  0  0  0  0  0  0  0  0  0  0  # atno 20696 bound_to 11535
  -44.4173   19.8143  -20.8915 LP  0  0  0  0  0  0  0  0  0  0  0  0  # atno 20697 bound_to 11535
  -48.3607   31.5476  -23.7389 LP  0  0  0  0  0  0  0  0  0  0  0  0  # atno 20698 bound_to 12075
  -48.9155   32.1372  -25.1571 LP  0  0  0  0  0  0  0  0  0  0  0  0  # atno 20699 bound_to 12075
  -51.6871   29.4627  -19.9616 LP  0  0  0  0  0  0  0  0  0  0  0  0  # atno 20700 bound_to 12376
  -50.2946   28.4967  -19.1875 LP  0  0  0  0  0  0  0  0  0  0  0  0  # atno 20701 bound_to 12379
  -48.9332   27.4449  -19.3888 LP  0  0  0  0  0  0  0  0  0  0  0  0  # atno 20702 bound_to 12379
  -50.1212   26.6807  -22.5980 LP  0  0  0  0  0  0  0  0  0  0  0  0  # atno 20703 bound_to 12432
  -49.5771   23.7212  -23.7585 LP  0  0  0  0  0  0  0  0  0  0  0  0  # atno 20704 bound_to 12435
  -50.5418   25.0034  -23.1065 LP  0  0  0  0  0  0  0  0  0  0  0  0  # atno 20705 bound_to 12435
  -47.9021   24.4436  -22.1978 LP  0  0  0  0  0  0  0  0  0  0  0  0  # atno 20706 bound_to 12491
  -48.8011   20.1452  -20.2194 LP  0  0  0  0  0  0  0  0  0  0  0  0  # atno 20707 bound_to 12494
  -48.0700   21.7067  -20.0546 LP  0  0  0  0  0  0  0  0  0  0  0  0  # atno 20708 bound_to 12494
  -38.1707   26.3339  -20.1989 LP  0  0  0  0  0  0  0  0  0  0  0  0  # atno 20709 bound_to 17166
  -40.4406   32.4012  -24.5826 LP  0  0  0  0  0  0  0  0  0  0  0  0  # atno 20710 bound_to 2578
  -41.9490   31.5957  -24.3067 LP  0  0  0  0  0  0  0  0  0  0  0  0  # atno 20711 bound_to 2578
  -48.6429   20.2819  -22.9877 LP  0  0  0  0  0  0  0  0  0  0  0  0  # atno 20712 bound_to 12623
  -38.0195   26.9397  -26.1203 LP  0  0  0  0  0  0  0  0  0  0  0  0  # atno 20713 bound_to 17169
  -39.2285   26.1072  -25.4049 LP  0  0  0  0  0  0  0  0  0  0  0  0  # atno 20714 bound_to 17169
  -51.5642   30.8261  -23.1856 LP  0  0  0  0  0  0  0  0  0  0  0  0  # atno 20715 bound_to 12231
  -53.2372   31.2375  -23.0076 LP  0  0  0  0  0  0  0  0  0  0  0  0  # atno 20716 bound_to 12231
  -50.7671   24.1069  -24.9679 LP  0  0  0  0  0  0  0  0  0  0  0  0  # atno 20717 bound_to 5950
  -53.8277   27.1980  -25.5969 LP  0  0  0  0  0  0  0  0  0  0  0  0  # atno 20718 bound_to 6106

> <Gold.Score>
     Fitness  S(hb_ext) S(vdw_ext)  S(hb_int)    S(int)      intcor
     26.84       0.42      20.67       0.00      -2.00      -0.76

> <Gold.Goldscore.Fitness>
26.8394

> <Gold.Goldscore.Internal.Vdw>
-2.3567

> <Gold.Goldscore.Internal.Torsion>
-0.3991

> <Gold.Goldscore.External.Vdw>
20.6669

> <Gold.Goldscore.Internal.HBond>
0.0000

> <Gold.Goldscore.External.HBond>
0.4197

> <Gold.Goldscore.Internal.Correction>
-0.7585

> <Gold.Goldscore.Hbonds>
donor molecule, donor type, donor heavy atom, donor atom, acceptor molecule, acceptor atom, score
      P1  H 12491 12567       L1    17  0.21

> <Gold.Goldscore.Internal.Vdw.Weighted>
-2.3567

> <Gold.Goldscore.Internal.Torsion.Weighted>
-0.3991

> <Gold.Goldscore.External.Vdw.Weighted>
28.4170

> <Gold.Goldscore.Internal.HBond.Weighted>
0.0000

> <Gold.Goldscore.External.HBond.Weighted>
0.4197

> <Gold.Goldscore.Internal.Correction.Weighted>
-0.7585

> <Gold.Rescore>
     Score     S(PLP)   S(hbond)     S(cho)   S(metal)  DE(clash)   DE(tors)     intcor
     29.55     -29.80       0.43       0.00       0.00       1.16       0.19       ----

> <Gold.PLP.Fitness>
29.5467

> <Gold.PLP.PLP>
-29.8045

> <Gold.PLP.part.hbond>
-1.6942

> <Gold.PLP.part.metal>
0.0000

> <Gold.PLP.part.buried>
-2.8499

> <Gold.PLP.part.nonpolar>
-26.7656

> <Gold.PLP.part.repulsive>
0.1486

> <Gold.PLP.ligand.clash>
1.1590

> <Gold.PLP.ligand.torsion>
0.1929

> <Gold.PLP.Chemscore.Hbond>
0.4290

> <Gold.PLP.Chemscore.CHOScore>
0.0000

> <Gold.PLP.Chemscore.Metal>
0.0000

> <Gold.Chemscore.Hbonds>
donor molecule, donor type, donor heavy atom, donor atom, acceptor molecule, acceptor atom, score
      P1  H 12491 12567       L1    17  0.73

> <Gold.PLP.Chemscore.Internal.Correction>
   9.000000E+99

