#       Name:                CT1002167954
#       Creating user name   hitesit
#       Creation time:       Sun Apr 16 02:22:48 2023


#       File generated by GOLD software.
#

@<TRIPOS>MOLECULE
CT1002167954|ligand_prepared|mol2|1|dock6
    29    30     1
SMALL
NO_CHARGES


@<TRIPOS>ATOM
      1 C1         -46.8628  30.8331 -19.7402 C.3            1 RES1               0.0000
      2 C2         -46.8147  30.2957 -21.1851 C.ar           1 RES1               0.0000
      3 C3         -46.0059  32.0955 -19.7239 C.2            1 RES1               0.0000
      4 C4         -48.3344  31.0760 -19.4241 C.2            1 RES1               0.0000
      5 C5         -46.3046  29.8469 -18.6879 C.3            1 RES1               0.0000
      6 C6         -46.7414  31.1709 -22.2646 C.ar           1 RES1               0.0000
      7 C7         -46.8403  28.9298 -21.4537 C.ar           1 RES1               0.0000
      8 N8         -46.6501  33.2956 -19.6562 N.am           1 RES1               0.0000
      9 O9         -44.7852  32.0404 -19.8092 O.2            1 RES1               0.0000
     10 N10        -48.7417  32.3677 -19.2157 N.am           1 RES1               0.0000
     11 O11        -49.1482  30.1622 -19.3700 O.2            1 RES1               0.0000
     12 C12        -46.0968  30.4676 -17.3154 C.3            1 RES1               0.0000
     13 C13        -46.6923  30.6978 -23.5654 C.ar           1 RES1               0.0000
     14 C14        -46.7914  28.4587 -22.7554 C.ar           1 RES1               0.0000
     15 C15        -47.9723  33.4915 -19.3477 C.2            1 RES1               0.0000
     16 C16        -46.7168  29.3416 -23.8116 C.ar           1 RES1               0.0000
     17 O17        -48.4238  34.6231 -19.1973 O.2            1 RES1               0.0000
     18 H18        -46.9983  29.0025 -18.5923 H              1 RES1               0.0000
     19 H19        -45.3452  29.4537 -19.0464 H              1 RES1               0.0000
     20 H20        -46.7236  32.2416 -22.0905 H              1 RES1               0.0000
     21 H21        -46.8998  28.2168 -20.6384 H              1 RES1               0.0000
     22 H22        -46.0977  34.1241 -19.8532 H              1 RES1               0.0000
     23 H23        -49.7079  32.5042 -18.9362 H              1 RES1               0.0000
     24 H24        -45.7040  29.7331 -16.6154 H              1 RES1               0.0000
     25 H25        -45.3925  31.2952 -17.3689 H              1 RES1               0.0000
     26 H26        -47.0358  30.8467 -16.9175 H              1 RES1               0.0000
     27 H27        -46.6351  31.3968 -24.3933 H              1 RES1               0.0000
     28 H28        -46.8115  27.3905 -22.9445 H              1 RES1               0.0000
     29 H29        -46.6780  28.9712 -24.8307 H              1 RES1               0.0000
@<TRIPOS>BOND
    1    1    2 1     
    2    1    3 1     
    3    1    4 1     
    4    1    5 1     
    5    2    6 ar    
    6    2    7 ar    
    7    3    8 1     
    8    3    9 2     
    9    4   10 1     
   10    4   11 2     
   11    5   12 1     
   12    5   18 1     
   13    5   19 1     
   14    6   13 ar    
   15    6   20 1     
   16    7   14 ar    
   17    7   21 1     
   18    8   15 1     
   19    8   22 1     
   20   10   15 1     
   21   10   23 1     
   22   12   24 1     
   23   12   25 1     
   24   12   26 1     
   25   13   16 ar    
   26   13   27 1     
   27   14   16 ar    
   28   14   28 1     
   29   15   17 2     
   30   16   29 1     
@<TRIPOS>SUBSTRUCTURE
      1 RES1           1
@<TRIPOS>SET
DONOR_HYDROGENS      STATIC     ATOMS    <user>   **** ""
2 22 23
ATOM$RED        STATIC     ATOMS    COLORGROUP SYSTEM
2 22 23
@<TRIPOS>COMMENT
> <Gold.Version>
2022.3.0

> <Gold.Id.Protein>
unknown|7ta6_clean|pdb

> <Gold.Protein.RotatedTorsions>
[ 11622 11535 11534 11532 ] final  -83.83 input   60.01 | X-H torsion
[ 12183 12075 12074 12072 ] final   21.25 input   60.00 | X-H torsion
[ 12413 12376 12377 12378 ] final  177.36 input   12.64 | X-H torsion
[ 12469 12432 12433 12434 ] final  -31.90 input   -4.29 | X-H torsion
[ 12567 12491 12492 12493 ] final   74.77 input   85.07 | X-H torsion
[ 17235 17166 17170 17167 ] final   65.17 input   60.00 | X-H torsion
[ 12727 12623 12624 12625 ] final  126.88 input   40.46 | X-H torsion
[ 17240 17169 17168 17167 ] final   35.96 input   59.99 | X-H torsion
[ 6021 5950 5951 5952 ] final -171.44 input   61.17 | X-H torsion
[ 6190 6106 6107 6108 ] final -135.29 input   34.45 | X-H torsion
[ 17658 17540 17541 17542 ] final   14.24 input  113.35 | X-H torsion
[ 20694 5953 5952 5951 ] final   50.62 input   -0.00 | X-H torsion
[ 20701 12379 12378 12377 ] final  157.56 input    0.00 | X-H torsion
[ 20704 12435 12434 12433 ] final  175.19 input    0.00 | X-H torsion
[ 20707 12494 12493 12492 ] final   41.54 input    0.00 | X-H torsion
[ 20710 2578 2577 2576 ] final   13.73 input    0.00 | X-H torsion
[ 20715 12231 12230 12229 ] final  -80.10 input   -0.00 | X-H torsion

> <Gold.Protein.ActiveResidues>
 TRP28   LEU57   ILE58   TYR59   LEU94   TYR115  PRO117  TYR119  LEU120  GLY121 
 GLY122  VAL123  PHE124  LEU157  XCP1    LEU2    TRP4    ILE6   

> <Gold.Protein.RotatedAtoms>
  -50.8419   23.9853  -26.0619 H   0  0  0  0  0  0  0  0  0  0  0  0  # atno 6021 bound_to 5950
  -52.6274   26.9954  -25.0404 H   0  0  0  0  0  0  0  0  0  0  0  0  # atno 6190 bound_to 6106
  -45.8632   19.9754  -21.3724 H   0  0  0  0  0  0  0  0  0  0  0  0  # atno 11622 bound_to 11535
  -49.1919   31.9847  -25.2339 H   0  0  0  0  0  0  0  0  0  0  0  0  # atno 12183 bound_to 12075
  -51.9239   30.6038  -21.2638 H   0  0  0  0  0  0  0  0  0  0  0  0  # atno 12413 bound_to 12376
  -49.5854   26.9219  -22.6832 H   0  0  0  0  0  0  0  0  0  0  0  0  # atno 12469 bound_to 12432
  -47.5583   23.6563  -20.9065 H   0  0  0  0  0  0  0  0  0  0  0  0  # atno 12567 bound_to 12491
  -49.8995   21.4488  -22.6625 H   0  0  0  0  0  0  0  0  0  0  0  0  # atno 12727 bound_to 12623
  -38.3046   27.6842  -20.7143 H   0  0  0  0  0  0  0  0  0  0  0  0  # atno 17235 bound_to 17166
  -37.9393   26.1184  -20.3120 H   0  0  0  0  0  0  0  0  0  0  0  0  # atno 17236 bound_to 17166
  -39.0432   26.7668  -25.7473 H   0  0  0  0  0  0  0  0  0  0  0  0  # atno 17240 bound_to 17169
  -37.6121   23.8678  -26.1579 H   0  0  0  0  0  0  0  0  0  0  0  0  # atno 17658 bound_to 17540
  -50.8133   26.6518  -23.7973 LP  0  0  0  0  0  0  0  0  0  0  0  0  # atno 20694 bound_to 5953
  -52.2121   27.4551  -23.1665 LP  0  0  0  0  0  0  0  0  0  0  0  0  # atno 20695 bound_to 5953
  -44.3806   19.8234  -20.7195 LP  0  0  0  0  0  0  0  0  0  0  0  0  # atno 20696 bound_to 11535
  -45.6757   20.0847  -19.7598 LP  0  0  0  0  0  0  0  0  0  0  0  0  # atno 20697 bound_to 11535
  -49.5882   30.8789  -24.1073 LP  0  0  0  0  0  0  0  0  0  0  0  0  # atno 20698 bound_to 12075
  -48.2370   31.7790  -23.9319 LP  0  0  0  0  0  0  0  0  0  0  0  0  # atno 20699 bound_to 12075
  -51.6600   29.4819  -19.9498 LP  0  0  0  0  0  0  0  0  0  0  0  0  # atno 20700 bound_to 12376
  -49.6295   27.1073  -19.2235 LP  0  0  0  0  0  0  0  0  0  0  0  0  # atno 20701 bound_to 12379
  -49.5982   28.8343  -19.3528 LP  0  0  0  0  0  0  0  0  0  0  0  0  # atno 20702 bound_to 12379
  -50.2577   27.3850  -21.1393 LP  0  0  0  0  0  0  0  0  0  0  0  0  # atno 20703 bound_to 12432
  -49.6363   23.6591  -23.7090 LP  0  0  0  0  0  0  0  0  0  0  0  0  # atno 20704 bound_to 12435
  -50.4826   25.0655  -23.1560 LP  0  0  0  0  0  0  0  0  0  0  0  0  # atno 20705 bound_to 12435
  -48.6777   24.2797  -22.1000 LP  0  0  0  0  0  0  0  0  0  0  0  0  # atno 20706 bound_to 12491
  -48.4239   21.7796  -19.9917 LP  0  0  0  0  0  0  0  0  0  0  0  0  # atno 20707 bound_to 12494
  -48.4471   20.0723  -20.2824 LP  0  0  0  0  0  0  0  0  0  0  0  0  # atno 20708 bound_to 12494
  -37.0984   26.8864  -21.4989 LP  0  0  0  0  0  0  0  0  0  0  0  0  # atno 20709 bound_to 17166
  -42.0305   31.8092  -24.3191 LP  0  0  0  0  0  0  0  0  0  0  0  0  # atno 20710 bound_to 2578
  -40.3591   32.1877  -24.5702 LP  0  0  0  0  0  0  0  0  0  0  0  0  # atno 20711 bound_to 2578
  -48.5947   20.3032  -22.8788 LP  0  0  0  0  0  0  0  0  0  0  0  0  # atno 20712 bound_to 12623
  -38.4582   25.3224  -25.2782 LP  0  0  0  0  0  0  0  0  0  0  0  0  # atno 20713 bound_to 17169
  -37.4847   26.3949  -26.0324 LP  0  0  0  0  0  0  0  0  0  0  0  0  # atno 20714 bound_to 17169
  -53.1100   30.5392  -23.1615 LP  0  0  0  0  0  0  0  0  0  0  0  0  # atno 20715 bound_to 12231
  -51.6914   31.5245  -23.0317 LP  0  0  0  0  0  0  0  0  0  0  0  0  # atno 20716 bound_to 12231
  -50.2966   25.3488  -25.1076 LP  0  0  0  0  0  0  0  0  0  0  0  0  # atno 20717 bound_to 5950
  -53.3469   27.4869  -26.5552 LP  0  0  0  0  0  0  0  0  0  0  0  0  # atno 20718 bound_to 6106

> <Gold.Score>
     Fitness  S(hb_ext) S(vdw_ext)  S(hb_int)    S(int)      intcor
     28.71       0.00      21.18       0.00      -0.40      -0.76

> <Gold.Goldscore.Fitness>
28.7122

> <Gold.Goldscore.Internal.Vdw>
-0.5899

> <Gold.Goldscore.Internal.Torsion>
-0.5736

> <Gold.Goldscore.External.Vdw>
21.1762

> <Gold.Goldscore.Internal.HBond>
0.0000

> <Gold.Goldscore.External.HBond>
0.0000

> <Gold.Goldscore.Internal.Correction>
-0.7585

> <Gold.Goldscore.Internal.Vdw.Weighted>
-0.5899

> <Gold.Goldscore.Internal.Torsion.Weighted>
-0.5736

> <Gold.Goldscore.External.Vdw.Weighted>
29.1172

> <Gold.Goldscore.Internal.HBond.Weighted>
0.0000

> <Gold.Goldscore.External.HBond.Weighted>
0.0000

> <Gold.Goldscore.Internal.Correction.Weighted>
-0.7585

> <Gold.Rescore>
     Score     S(PLP)   S(hbond)     S(cho)   S(metal)  DE(clash)   DE(tors)     intcor
     22.69     -24.90       0.00       0.00       0.00       0.00       1.11       ----

> <Gold.PLP.Fitness>
22.6886

> <Gold.PLP.PLP>
-24.9008

> <Gold.PLP.part.hbond>
0.0000

> <Gold.PLP.part.metal>
0.0000

> <Gold.PLP.part.buried>
1.8368

> <Gold.PLP.part.nonpolar>
-26.6766

> <Gold.PLP.part.repulsive>
0.0935

> <Gold.PLP.ligand.clash>
0.0000

> <Gold.PLP.ligand.torsion>
1.1061

> <Gold.PLP.Chemscore.Hbond>
0.0000

> <Gold.PLP.Chemscore.CHOScore>
0.0000

> <Gold.PLP.Chemscore.Metal>
0.0000

> <Gold.PLP.Chemscore.Internal.Correction>
   9.000000E+99

