#       Name:                CT1002167954
#       Creating user name   hitesit
#       Creation time:       Sun Apr 16 02:22:45 2023


#       File generated by GOLD software.
#

@<TRIPOS>MOLECULE
CT1002167954|ligand_prepared|mol2|1|dock2
    29    30     1
SMALL
NO_CHARGES


@<TRIPOS>ATOM
      1 C1         -46.6311  30.4221 -19.6153 C.3            1 RES1               0.0000
      2 C2         -46.6747  30.0861 -21.1200 C.ar           1 RES1               0.0000
      3 C3         -48.0459  30.8435 -19.2293 C.2            1 RES1               0.0000
      4 C4         -46.1435  29.1610 -18.9106 C.2            1 RES1               0.0000
      5 C5         -45.6614  31.5732 -19.2600 C.3            1 RES1               0.0000
      6 C6         -46.8041  28.7684 -21.5484 C.ar           1 RES1               0.0000
      7 C7         -46.5895  31.0816 -22.0897 C.ar           1 RES1               0.0000
      8 N8         -48.7893  29.9652 -18.4974 N.am           1 RES1               0.0000
      9 O9         -48.5160  31.9138 -19.5951 O.2            1 RES1               0.0000
     10 N10        -47.0130  28.5195 -18.0678 N.am           1 RES1               0.0000
     11 O11        -45.0199  28.7077 -19.0904 O.2            1 RES1               0.0000
     12 C12        -45.4023  31.7182 -17.7687 C.3            1 RES1               0.0000
     13 C13        -46.8497  28.4573 -22.8973 C.ar           1 RES1               0.0000
     14 C14        -46.6350  30.7683 -23.4381 C.ar           1 RES1               0.0000
     15 C15        -48.3239  28.8472 -17.8529 C.2            1 RES1               0.0000
     16 C16        -46.7656  29.4569 -23.8429 C.ar           1 RES1               0.0000
     17 O17        -49.0584  28.1892 -17.1217 O.2            1 RES1               0.0000
     18 H18        -44.7055  31.3995 -19.7692 H              1 RES1               0.0000
     19 H19        -46.0772  32.5148 -19.6393 H              1 RES1               0.0000
     20 H20        -46.8692  27.9681 -20.8188 H              1 RES1               0.0000
     21 H21        -46.4853  32.1202 -21.7945 H              1 RES1               0.0000
     22 H22        -49.7832  30.1572 -18.4224 H              1 RES1               0.0000
     23 H23        -46.6491  27.7241 -17.5527 H              1 RES1               0.0000
     24 H24        -44.7159  32.5398 -17.5746 H              1 RES1               0.0000
     25 H25        -46.3287  31.9170 -17.2337 H              1 RES1               0.0000
     26 H26        -44.9651  30.8083 -17.3629 H              1 RES1               0.0000
     27 H27        -46.9511  27.4235 -23.2107 H              1 RES1               0.0000
     28 H28        -46.5679  31.5582 -24.1789 H              1 RES1               0.0000
     29 H29        -46.8017  29.2129 -24.8995 H              1 RES1               0.0000
@<TRIPOS>BOND
    1    1    2 1     
    2    1    3 1     
    3    1    4 1     
    4    1    5 1     
    5    2    6 ar    
    6    2    7 ar    
    7    3    8 1     
    8    3    9 2     
    9    4   10 1     
   10    4   11 2     
   11    5   12 1     
   12    5   18 1     
   13    5   19 1     
   14    6   13 ar    
   15    6   20 1     
   16    7   14 ar    
   17    7   21 1     
   18    8   15 1     
   19    8   22 1     
   20   10   15 1     
   21   10   23 1     
   22   12   24 1     
   23   12   25 1     
   24   12   26 1     
   25   13   16 ar    
   26   13   27 1     
   27   14   16 ar    
   28   14   28 1     
   29   15   17 2     
   30   16   29 1     
@<TRIPOS>SUBSTRUCTURE
      1 RES1           1
@<TRIPOS>SET
DONOR_HYDROGENS      STATIC     ATOMS    <user>   **** ""
2 22 23
ATOM$RED        STATIC     ATOMS    COLORGROUP SYSTEM
2 22 23
@<TRIPOS>COMMENT
> <Gold.Version>
2022.3.0

> <Gold.Id.Protein>
unknown|7ta6_clean|pdb

> <Gold.Protein.RotatedTorsions>
[ 11622 11535 11534 11532 ] final -167.62 input   60.01 | X-H torsion
[ 12183 12075 12074 12072 ] final   48.95 input   60.00 | X-H torsion
[ 12413 12376 12377 12378 ] final   68.36 input   12.64 | X-H torsion
[ 12469 12432 12433 12434 ] final  -20.31 input   -4.29 | X-H torsion
[ 12567 12491 12492 12493 ] final  136.09 input   85.07 | X-H torsion
[ 17235 17166 17170 17167 ] final -179.23 input   60.00 | X-H torsion
[ 12727 12623 12624 12625 ] final  146.89 input   40.46 | X-H torsion
[ 17240 17169 17168 17167 ] final   76.00 input   59.99 | X-H torsion
[ 6021 5950 5951 5952 ] final -116.34 input   61.17 | X-H torsion
[ 6190 6106 6107 6108 ] final -102.64 input   34.45 | X-H torsion
[ 17658 17540 17541 17542 ] final  -79.23 input  113.35 | X-H torsion
[ 20694 5953 5952 5951 ] final   40.92 input   -0.00 | X-H torsion
[ 20701 12379 12378 12377 ] final   49.24 input    0.00 | X-H torsion
[ 20704 12435 12434 12433 ] final  114.03 input    0.00 | X-H torsion
[ 20707 12494 12493 12492 ] final  141.33 input    0.00 | X-H torsion
[ 20710 2578 2577 2576 ] final   37.63 input    0.00 | X-H torsion
[ 20715 12231 12230 12229 ] final   62.58 input   -0.00 | X-H torsion

> <Gold.Protein.ActiveResidues>
 TRP28   LEU57   ILE58   TYR59   LEU94   TYR115  PRO117  TYR119  LEU120  GLY121 
 GLY122  VAL123  PHE124  LEU157  XCP1    LEU2    TRP4    ILE6   

> <Gold.Protein.RotatedAtoms>
  -50.5875   24.6570  -26.4671 H   0  0  0  0  0  0  0  0  0  0  0  0  # atno 6021 bound_to 5950
  -53.1193   26.9872  -24.9705 H   0  0  0  0  0  0  0  0  0  0  0  0  # atno 6190 bound_to 6106
  -44.6301   19.8123  -21.2473 H   0  0  0  0  0  0  0  0  0  0  0  0  # atno 11622 bound_to 11535
  -48.8104   32.1748  -25.0945 H   0  0  0  0  0  0  0  0  0  0  0  0  # atno 12183 bound_to 12075
  -51.1017   30.3132  -20.1169 H   0  0  0  0  0  0  0  0  0  0  0  0  # atno 12413 bound_to 12376
  -49.7371   26.8302  -22.7014 H   0  0  0  0  0  0  0  0  0  0  0  0  # atno 12469 bound_to 12432
  -47.2583   24.1385  -21.6157 H   0  0  0  0  0  0  0  0  0  0  0  0  # atno 12567 bound_to 12491
  -49.7545   21.4811  -22.3922 H   0  0  0  0  0  0  0  0  0  0  0  0  # atno 12727 bound_to 12623
  -37.9930   26.1556  -20.2786 H   0  0  0  0  0  0  0  0  0  0  0  0  # atno 17235 bound_to 17166
  -37.0713   26.8184  -21.4861 H   0  0  0  0  0  0  0  0  0  0  0  0  # atno 17236 bound_to 17166
  -38.5169   27.0210  -26.0108 H   0  0  0  0  0  0  0  0  0  0  0  0  # atno 17240 bound_to 17169
  -37.4539   22.5961  -26.1566 H   0  0  0  0  0  0  0  0  0  0  0  0  # atno 17658 bound_to 17540
  -50.8727   26.5305  -23.7407 LP  0  0  0  0  0  0  0  0  0  0  0  0  # atno 20694 bound_to 5953
  -52.1527   27.5764  -23.2231 LP  0  0  0  0  0  0  0  0  0  0  0  0  # atno 20695 bound_to 5953
  -45.0977   20.0082  -19.7012 LP  0  0  0  0  0  0  0  0  0  0  0  0  # atno 20696 bound_to 11535
  -46.2006   20.0641  -20.9042 LP  0  0  0  0  0  0  0  0  0  0  0  0  # atno 20697 bound_to 11535
  -49.7778   31.0112  -24.4950 LP  0  0  0  0  0  0  0  0  0  0  0  0  # atno 20698 bound_to 12075
  -48.4315   31.4553  -23.6846 LP  0  0  0  0  0  0  0  0  0  0  0  0  # atno 20699 bound_to 12075
  -52.4618   29.7653  -21.0682 LP  0  0  0  0  0  0  0  0  0  0  0  0  # atno 20700 bound_to 12376
  -50.4146   28.2689  -19.1470 LP  0  0  0  0  0  0  0  0  0  0  0  0  # atno 20701 bound_to 12379
  -48.8131   27.6727  -19.4293 LP  0  0  0  0  0  0  0  0  0  0  0  0  # atno 20702 bound_to 12379
  -50.1091   27.4748  -21.1215 LP  0  0  0  0  0  0  0  0  0  0  0  0  # atno 20703 bound_to 12432
  -49.3798   24.4640  -23.9595 LP  0  0  0  0  0  0  0  0  0  0  0  0  # atno 20704 bound_to 12435
  -50.7391   24.2606  -22.9055 LP  0  0  0  0  0  0  0  0  0  0  0  0  # atno 20705 bound_to 12435
  -48.9674   23.8141  -21.4153 LP  0  0  0  0  0  0  0  0  0  0  0  0  # atno 20706 bound_to 12491
  -49.2825   20.7721  -20.0429 LP  0  0  0  0  0  0  0  0  0  0  0  0  # atno 20707 bound_to 12494
  -47.5885   21.0799  -20.2311 LP  0  0  0  0  0  0  0  0  0  0  0  0  # atno 20708 bound_to 12494
  -38.2603   27.7024  -20.7716 LP  0  0  0  0  0  0  0  0  0  0  0  0  # atno 20709 bound_to 17166
  -41.8778   31.4850  -24.3039 LP  0  0  0  0  0  0  0  0  0  0  0  0  # atno 20710 bound_to 2578
  -40.5117   32.5119  -24.5854 LP  0  0  0  0  0  0  0  0  0  0  0  0  # atno 20711 bound_to 2578
  -48.7355   20.2718  -23.1411 LP  0  0  0  0  0  0  0  0  0  0  0  0  # atno 20712 bound_to 12623
  -39.0092   25.6586  -25.2691 LP  0  0  0  0  0  0  0  0  0  0  0  0  # atno 20713 bound_to 17169
  -37.4636   25.8028  -25.7762 LP  0  0  0  0  0  0  0  0  0  0  0  0  # atno 20714 bound_to 17169
  -52.1366   31.8417  -22.9406 LP  0  0  0  0  0  0  0  0  0  0  0  0  # atno 20715 bound_to 12231
  -52.6649   30.2219  -23.2526 LP  0  0  0  0  0  0  0  0  0  0  0  0  # atno 20716 bound_to 12231
  -50.5420   24.7013  -24.7170 LP  0  0  0  0  0  0  0  0  0  0  0  0  # atno 20717 bound_to 5950
  -52.8666   27.4949  -26.6235 LP  0  0  0  0  0  0  0  0  0  0  0  0  # atno 20718 bound_to 6106

> <Gold.Score>
     Fitness  S(hb_ext) S(vdw_ext)  S(hb_int)    S(int)      intcor
     26.30       0.00      19.79       0.00      -0.91      -0.79

> <Gold.Goldscore.Fitness>
26.2992

> <Gold.Goldscore.Internal.Vdw>
-1.1150

> <Gold.Goldscore.Internal.Torsion>
-0.5805

> <Gold.Goldscore.External.Vdw>
19.7888

> <Gold.Goldscore.Internal.HBond>
0.0000

> <Gold.Goldscore.External.HBond>
0.0000

> <Gold.Goldscore.Internal.Correction>
-0.7850

> <Gold.Goldscore.Internal.Vdw.Weighted>
-1.1150

> <Gold.Goldscore.Internal.Torsion.Weighted>
-0.5805

> <Gold.Goldscore.External.Vdw.Weighted>
27.2096

> <Gold.Goldscore.Internal.HBond.Weighted>
0.0000

> <Gold.Goldscore.External.HBond.Weighted>
0.0000

> <Gold.Goldscore.Internal.Correction.Weighted>
-0.7850

> <Gold.Rescore>
     Score     S(PLP)   S(hbond)     S(cho)   S(metal)  DE(clash)   DE(tors)     intcor
     20.20     -22.35       0.00       0.00       0.00       0.00       1.08       ----

> <Gold.PLP.Fitness>
20.2013

> <Gold.PLP.PLP>
-22.3530

> <Gold.PLP.part.hbond>
-1.0000

> <Gold.PLP.part.metal>
0.0000

> <Gold.PLP.part.buried>
2.8697

> <Gold.PLP.part.nonpolar>
-24.9412

> <Gold.PLP.part.repulsive>
0.1358

> <Gold.PLP.ligand.clash>
0.0000

> <Gold.PLP.ligand.torsion>
1.0758

> <Gold.PLP.Chemscore.Hbond>
0.0000

> <Gold.PLP.Chemscore.CHOScore>
0.0000

> <Gold.PLP.Chemscore.Metal>
0.0000

> <Gold.PLP.Chemscore.Internal.Correction>
   9.000000E+99

