#       Name:                CT1002167954
#       Creating user name   hitesit
#       Creation time:       Sun Apr 16 02:22:50 2023


#       File generated by GOLD software.
#

@<TRIPOS>MOLECULE
CT1002167954|ligand_prepared|mol2|1|dock10
    29    30     1
SMALL
NO_CHARGES


@<TRIPOS>ATOM
      1 C1         -46.4606  30.6272 -19.7872 C.3            1 RES1               0.0000
      2 C2         -46.5076  30.1536 -21.2542 C.ar           1 RES1               0.0000
      3 C3         -46.8167  29.4136 -18.9336 C.2            1 RES1               0.0000
      4 C4         -45.0505  31.1587 -19.5554 C.2            1 RES1               0.0000
      5 C5         -47.4586  31.7639 -19.4653 C.3            1 RES1               0.0000
      6 C6         -46.6056  31.0743 -22.2932 C.ar           1 RES1               0.0000
      7 C7         -46.4513  28.8020 -21.5838 C.ar           1 RES1               0.0000
      8 N8         -45.8079  28.8088 -18.2432 N.am           1 RES1               0.0000
      9 O9         -47.9578  28.9700 -18.8979 O.2            1 RES1               0.0000
     10 N10        -44.2477  30.4856 -18.6721 N.am           1 RES1               0.0000
     11 O11        -44.6217  32.1447 -20.1422 O.2            1 RES1               0.0000
     12 C12        -47.5546  32.0944 -17.9842 C.3            1 RES1               0.0000
     13 C13        -46.6430  30.6590 -23.6140 C.ar           1 RES1               0.0000
     14 C14        -46.4890  28.3889 -22.9053 C.ar           1 RES1               0.0000
     15 C15        -44.5520  29.3170 -18.0287 C.2            1 RES1               0.0000
     16 C16        -46.5843  29.3163 -23.9210 C.ar           1 RES1               0.0000
     17 O17        -43.7566  28.7421 -17.2911 O.2            1 RES1               0.0000
     18 H18        -47.1534  32.6663 -20.0094 H              1 RES1               0.0000
     19 H19        -48.4527  31.4741 -19.8275 H              1 RES1               0.0000
     20 H20        -46.6554  32.1350 -22.0709 H              1 RES1               0.0000
     21 H21        -46.3772  28.0546 -20.8012 H              1 RES1               0.0000
     22 H22        -46.0056  27.8941 -17.8503 H              1 RES1               0.0000
     23 H23        -43.3392  30.8936 -18.4759 H              1 RES1               0.0000
     24 H24        -48.2680  32.8979 -17.8137 H              1 RES1               0.0000
     25 H25        -47.8801  31.2258 -17.4154 H              1 RES1               0.0000
     26 H26        -46.5885  32.4109 -17.5962 H              1 RES1               0.0000
     27 H27        -46.7194  31.3928 -24.4096 H              1 RES1               0.0000
     28 H28        -46.4432  27.3311 -23.1422 H              1 RES1               0.0000
     29 H29        -46.6131  28.9913 -24.9558 H              1 RES1               0.0000
@<TRIPOS>BOND
    1    1    2 1     
    2    1    3 1     
    3    1    4 1     
    4    1    5 1     
    5    2    6 ar    
    6    2    7 ar    
    7    3    8 1     
    8    3    9 2     
    9    4   10 1     
   10    4   11 2     
   11    5   12 1     
   12    5   18 1     
   13    5   19 1     
   14    6   13 ar    
   15    6   20 1     
   16    7   14 ar    
   17    7   21 1     
   18    8   15 1     
   19    8   22 1     
   20   10   15 1     
   21   10   23 1     
   22   12   24 1     
   23   12   25 1     
   24   12   26 1     
   25   13   16 ar    
   26   13   27 1     
   27   14   16 ar    
   28   14   28 1     
   29   15   17 2     
   30   16   29 1     
@<TRIPOS>SUBSTRUCTURE
      1 RES1           1
@<TRIPOS>SET
DONOR_HYDROGENS      STATIC     ATOMS    <user>   **** ""
2 22 23
ATOM$RED        STATIC     ATOMS    COLORGROUP SYSTEM
2 22 23
@<TRIPOS>COMMENT
> <Gold.Version>
2022.3.0

> <Gold.Id.Protein>
unknown|7ta6_clean|pdb

> <Gold.Protein.RotatedTorsions>
[ 11622 11535 11534 11532 ] final -146.73 input   60.01 | X-H torsion
[ 12183 12075 12074 12072 ] final  -67.53 input   60.00 | X-H torsion
[ 12413 12376 12377 12378 ] final  -72.63 input   12.64 | X-H torsion
[ 12469 12432 12433 12434 ] final  -26.76 input   -4.29 | X-H torsion
[ 12567 12491 12492 12493 ] final  -79.65 input   85.07 | X-H torsion
[ 17235 17166 17170 17167 ] final  166.73 input   60.00 | X-H torsion
[ 12727 12623 12624 12625 ] final -140.98 input   40.46 | X-H torsion
[ 17240 17169 17168 17167 ] final -152.82 input   59.99 | X-H torsion
[ 6021 5950 5951 5952 ] final -102.46 input   61.17 | X-H torsion
[ 6190 6106 6107 6108 ] final  142.44 input   34.45 | X-H torsion
[ 17658 17540 17541 17542 ] final   96.20 input  113.35 | X-H torsion
[ 20694 5953 5952 5951 ] final  153.92 input   -0.00 | X-H torsion
[ 20701 12379 12378 12377 ] final -124.45 input    0.00 | X-H torsion
[ 20704 12435 12434 12433 ] final   37.49 input    0.00 | X-H torsion
[ 20707 12494 12493 12492 ] final  123.34 input    0.00 | X-H torsion
[ 20710 2578 2577 2576 ] final -109.83 input    0.00 | X-H torsion
[ 20715 12231 12230 12229 ] final -148.51 input   -0.00 | X-H torsion

> <Gold.Protein.ActiveResidues>
 TRP28   LEU57   ILE58   TYR59   LEU94   TYR115  PRO117  TYR119  LEU120  GLY121 
 GLY122  VAL123  PHE124  LEU157  XCP1    LEU2    TRP4    ILE6   

> <Gold.Protein.RotatedAtoms>
  -50.5114   24.8577  -26.4481 H   0  0  0  0  0  0  0  0  0  0  0  0  # atno 6021 bound_to 5950
  -52.1443   27.3014  -26.0534 H   0  0  0  0  0  0  0  0  0  0  0  0  # atno 6190 bound_to 6106
  -44.9001   19.8334  -21.4519 H   0  0  0  0  0  0  0  0  0  0  0  0  # atno 11622 bound_to 11535
  -49.7854   31.0425  -24.5435 H   0  0  0  0  0  0  0  0  0  0  0  0  # atno 12183 bound_to 12075
  -52.3782   29.3757  -20.6412 H   0  0  0  0  0  0  0  0  0  0  0  0  # atno 12413 bound_to 12376
  -49.6513   26.8798  -22.6953 H   0  0  0  0  0  0  0  0  0  0  0  0  # atno 12469 bound_to 12432
  -48.9321   24.0819  -21.8812 H   0  0  0  0  0  0  0  0  0  0  0  0  # atno 12567 bound_to 12491
  -48.9094   21.0381  -21.9650 H   0  0  0  0  0  0  0  0  0  0  0  0  # atno 12727 bound_to 12623
  -38.1537   26.3034  -20.1948 H   0  0  0  0  0  0  0  0  0  0  0  0  # atno 17235 bound_to 17166
  -37.0542   26.6023  -21.3985 H   0  0  0  0  0  0  0  0  0  0  0  0  # atno 17236 bound_to 17166
  -37.5397   25.6609  -25.6886 H   0  0  0  0  0  0  0  0  0  0  0  0  # atno 17240 bound_to 17169
  -38.5447   23.7989  -25.4816 H   0  0  0  0  0  0  0  0  0  0  0  0  # atno 17658 bound_to 17540
  -51.3880   27.8795  -23.7103 LP  0  0  0  0  0  0  0  0  0  0  0  0  # atno 20694 bound_to 5953
  -51.6374   26.2274  -23.2536 LP  0  0  0  0  0  0  0  0  0  0  0  0  # atno 20695 bound_to 5953
  -44.7871   19.9536  -19.8332 LP  0  0  0  0  0  0  0  0  0  0  0  0  # atno 20696 bound_to 11535
  -46.2392   20.0974  -20.5661 LP  0  0  0  0  0  0  0  0  0  0  0  0  # atno 20697 bound_to 11535
  -48.4669   31.4141  -23.6646 LP  0  0  0  0  0  0  0  0  0  0  0  0  # atno 20698 bound_to 12075
  -48.7607   32.1924  -25.0698 LP  0  0  0  0  0  0  0  0  0  0  0  0  # atno 20699 bound_to 12075
  -51.2170   30.6794  -20.5569 LP  0  0  0  0  0  0  0  0  0  0  0  0  # atno 20700 bound_to 12376
  -48.7870   27.7635  -19.4411 LP  0  0  0  0  0  0  0  0  0  0  0  0  # atno 20701 bound_to 12379
  -50.4407   28.1781  -19.1352 LP  0  0  0  0  0  0  0  0  0  0  0  0  # atno 20702 bound_to 12379
  -50.1931   27.4262  -21.1275 LP  0  0  0  0  0  0  0  0  0  0  0  0  # atno 20703 bound_to 12432
  -50.0070   25.2212  -23.5305 LP  0  0  0  0  0  0  0  0  0  0  0  0  # atno 20704 bound_to 12435
  -50.1119   23.5034  -23.3345 LP  0  0  0  0  0  0  0  0  0  0  0  0  # atno 20705 bound_to 12435
  -47.3512   23.8688  -21.1589 LP  0  0  0  0  0  0  0  0  0  0  0  0  # atno 20706 bound_to 12491
  -49.2827   21.0389  -19.9970 LP  0  0  0  0  0  0  0  0  0  0  0  0  # atno 20707 bound_to 12494
  -47.5884   20.8130  -20.2771 LP  0  0  0  0  0  0  0  0  0  0  0  0  # atno 20708 bound_to 12494
  -38.1188   27.7697  -20.9404 LP  0  0  0  0  0  0  0  0  0  0  0  0  # atno 20709 bound_to 17166
  -40.8994   32.8033  -24.5675 LP  0  0  0  0  0  0  0  0  0  0  0  0  # atno 20710 bound_to 2578
  -41.4901   31.1937  -24.3218 LP  0  0  0  0  0  0  0  0  0  0  0  0  # atno 20711 bound_to 2578
  -49.5557   20.7018  -23.5558 LP  0  0  0  0  0  0  0  0  0  0  0  0  # atno 20712 bound_to 12623
  -38.3422   27.0256  -26.0659 LP  0  0  0  0  0  0  0  0  0  0  0  0  # atno 20713 bound_to 17169
  -39.1144   25.8051  -25.3038 LP  0  0  0  0  0  0  0  0  0  0  0  0  # atno 20714 bound_to 17169
  -52.2016   30.2093  -23.2806 LP  0  0  0  0  0  0  0  0  0  0  0  0  # atno 20715 bound_to 12231
  -52.5998   31.8543  -22.9126 LP  0  0  0  0  0  0  0  0  0  0  0  0  # atno 20716 bound_to 12231
  -50.6152   24.5078  -24.7353 LP  0  0  0  0  0  0  0  0  0  0  0  0  # atno 20717 bound_to 5950
  -53.8187   27.1880  -25.5660 LP  0  0  0  0  0  0  0  0  0  0  0  0  # atno 20718 bound_to 6106

> <Gold.Score>
     Fitness  S(hb_ext) S(vdw_ext)  S(hb_int)    S(int)      intcor
     23.36       0.00      17.81       0.00      -1.12      -0.76

> <Gold.Goldscore.Fitness>
23.3644

> <Gold.Goldscore.Internal.Vdw>
-1.3986

> <Gold.Goldscore.Internal.Torsion>
-0.4799

> <Gold.Goldscore.External.Vdw>
17.8069

> <Gold.Goldscore.Internal.HBond>
0.0000

> <Gold.Goldscore.External.HBond>
0.0000

> <Gold.Goldscore.Internal.Correction>
-0.7585

> <Gold.Goldscore.Internal.Vdw.Weighted>
-1.3986

> <Gold.Goldscore.Internal.Torsion.Weighted>
-0.4799

> <Gold.Goldscore.External.Vdw.Weighted>
24.4845

> <Gold.Goldscore.Internal.HBond.Weighted>
0.0000

> <Gold.Goldscore.External.HBond.Weighted>
0.0000

> <Gold.Goldscore.Internal.Correction.Weighted>
-0.7585

> <Gold.Rescore>
     Score     S(PLP)   S(hbond)     S(cho)   S(metal)  DE(clash)   DE(tors)     intcor
     24.37     -26.01       0.00       0.00       0.00       0.41       0.62       ----

> <Gold.PLP.Fitness>
24.3668

> <Gold.PLP.PLP>
-26.0145

> <Gold.PLP.part.hbond>
0.0000

> <Gold.PLP.part.metal>
0.0000

> <Gold.PLP.part.buried>
-2.9549

> <Gold.PLP.part.nonpolar>
-24.0862

> <Gold.PLP.part.repulsive>
0.0988

> <Gold.PLP.ligand.clash>
0.4122

> <Gold.PLP.ligand.torsion>
0.6178

> <Gold.PLP.Chemscore.Hbond>
0.0000

> <Gold.PLP.Chemscore.CHOScore>
0.0000

> <Gold.PLP.Chemscore.Metal>
0.0000

> <Gold.PLP.Chemscore.Internal.Correction>
   9.000000E+99

