#       Name:                CT1002167954
#       Creating user name   hitesit
#       Creation time:       Sun Apr 16 02:22:49 2023


#       File generated by GOLD software.
#

@<TRIPOS>MOLECULE
CT1002167954|ligand_prepared|mol2|1|dock8
    29    30     1
SMALL
NO_CHARGES


@<TRIPOS>ATOM
      1 C1         -45.3193  28.8559 -19.3211 C.3            1 RES1               0.0000
      2 C2         -45.9553  29.0565 -20.7118 C.ar           1 RES1               0.0000
      3 C3         -45.8284  27.5125 -18.8068 C.2            1 RES1               0.0000
      4 C4         -43.8100  28.9103 -19.5304 C.2            1 RES1               0.0000
      5 C5         -45.6993  29.9501 -18.2965 C.3            1 RES1               0.0000
      6 C6         -46.4225  27.9672 -21.4411 C.ar           1 RES1               0.0000
      7 C7         -46.0839  30.3227 -21.2763 C.ar           1 RES1               0.0000
      8 N8         -44.9544  26.4657 -18.8012 N.am           1 RES1               0.0000
      9 O9         -46.9904  27.3642 -18.4488 O.2            1 RES1               0.0000
     10 N10        -43.0876  27.7698 -19.2955 N.am           1 RES1               0.0000
     11 O11        -43.2419  29.9260 -19.9125 O.2            1 RES1               0.0000
     12 C12        -45.2355  29.6510 -16.8796 C.3            1 RES1               0.0000
     13 C13        -47.0001  28.1378 -22.6883 C.ar           1 RES1               0.0000
     14 C14        -46.6616  30.4911 -22.5239 C.ar           1 RES1               0.0000
     15 C15        -43.5952  26.5415 -18.9701 C.2            1 RES1               0.0000
     16 C16        -47.1205  29.3997 -23.2303 C.ar           1 RES1               0.0000
     17 O17        -42.8858  25.5496 -18.8284 O.2            1 RES1               0.0000
     18 H18        -45.2604  30.9026 -18.6180 H              1 RES1               0.0000
     19 H19        -46.7900  30.0676 -18.2935 H              1 RES1               0.0000
     20 H20        -46.3341  26.9663 -21.0318 H              1 RES1               0.0000
     21 H21        -45.7290  31.1957 -20.7391 H              1 RES1               0.0000
     22 H22        -45.3477  25.5409 -18.6583 H              1 RES1               0.0000
     23 H23        -42.0780  27.8433 -19.3701 H              1 RES1               0.0000
     24 H24        -45.5278  30.4499 -16.2013 H              1 RES1               0.0000
     25 H25        -45.6731  28.7227 -16.5183 H              1 RES1               0.0000
     26 H26        -44.1526  29.5528 -16.8409 H              1 RES1               0.0000
     27 H27        -47.3584  27.2755 -23.2409 H              1 RES1               0.0000
     28 H28        -46.7538  31.4860 -22.9468 H              1 RES1               0.0000
     29 H29        -47.5733  29.5331 -24.2072 H              1 RES1               0.0000
@<TRIPOS>BOND
    1    1    2 1     
    2    1    3 1     
    3    1    4 1     
    4    1    5 1     
    5    2    6 ar    
    6    2    7 ar    
    7    3    8 1     
    8    3    9 2     
    9    4   10 1     
   10    4   11 2     
   11    5   12 1     
   12    5   18 1     
   13    5   19 1     
   14    6   13 ar    
   15    6   20 1     
   16    7   14 ar    
   17    7   21 1     
   18    8   15 1     
   19    8   22 1     
   20   10   15 1     
   21   10   23 1     
   22   12   24 1     
   23   12   25 1     
   24   12   26 1     
   25   13   16 ar    
   26   13   27 1     
   27   14   16 ar    
   28   14   28 1     
   29   15   17 2     
   30   16   29 1     
@<TRIPOS>SUBSTRUCTURE
      1 RES1           1
@<TRIPOS>SET
DONOR_HYDROGENS      STATIC     ATOMS    <user>   **** ""
2 22 23
ATOM$RED        STATIC     ATOMS    COLORGROUP SYSTEM
2 22 23
@<TRIPOS>COMMENT
> <Gold.Version>
2022.3.0

> <Gold.Id.Protein>
unknown|7ta6_clean|pdb

> <Gold.Protein.RotatedTorsions>
[ 11622 11535 11534 11532 ] final  156.85 input   60.01 | X-H torsion
[ 12183 12075 12074 12072 ] final  -99.23 input   60.00 | X-H torsion
[ 12413 12376 12377 12378 ] final  -80.54 input   12.64 | X-H torsion
[ 12469 12432 12433 12434 ] final  -36.04 input   -4.29 | X-H torsion
[ 12567 12491 12492 12493 ] final  137.41 input   85.07 | X-H torsion
[ 17235 17166 17170 17167 ] final  159.51 input   60.00 | X-H torsion
[ 12727 12623 12624 12625 ] final  -44.05 input   40.46 | X-H torsion
[ 17240 17169 17168 17167 ] final -136.81 input   59.99 | X-H torsion
[ 6021 5950 5951 5952 ] final  132.79 input   61.17 | X-H torsion
[ 6190 6106 6107 6108 ] final  -12.69 input   34.45 | X-H torsion
[ 17658 17540 17541 17542 ] final  -71.48 input  113.35 | X-H torsion
[ 20694 5953 5952 5951 ] final -135.84 input   -0.00 | X-H torsion
[ 20701 12379 12378 12377 ] final  -40.91 input    0.00 | X-H torsion
[ 20704 12435 12434 12433 ] final  -15.56 input    0.00 | X-H torsion
[ 20707 12494 12493 12492 ] final  147.18 input    0.00 | X-H torsion
[ 20710 2578 2577 2576 ] final  -93.70 input    0.00 | X-H torsion
[ 20715 12231 12230 12229 ] final   -2.31 input   -0.00 | X-H torsion

> <Gold.Protein.ActiveResidues>
 TRP28   LEU57   ILE58   TYR59   LEU94   TYR115  PRO117  TYR119  LEU120  GLY121 
 GLY122  VAL123  PHE124  LEU157  XCP1    LEU2    TRP4    ILE6   

> <Gold.Protein.RotatedAtoms>
  -50.8684   23.9155  -25.2312 H   0  0  0  0  0  0  0  0  0  0  0  0  # atno 6021 bound_to 5950
  -53.8660   27.3078  -25.9202 H   0  0  0  0  0  0  0  0  0  0  0  0  # atno 6190 bound_to 6106
  -44.3890   19.8211  -20.7295 H   0  0  0  0  0  0  0  0  0  0  0  0  # atno 11622 bound_to 11535
  -49.5807   30.8835  -24.1024 H   0  0  0  0  0  0  0  0  0  0  0  0  # atno 12183 bound_to 12075
  -52.4222   29.4325  -20.7399 H   0  0  0  0  0  0  0  0  0  0  0  0  # atno 12413 bound_to 12376
  -49.5343   26.9571  -22.6689 H   0  0  0  0  0  0  0  0  0  0  0  0  # atno 12469 bound_to 12432
  -47.2625   24.1487  -21.6331 H   0  0  0  0  0  0  0  0  0  0  0  0  # atno 12567 bound_to 12491
  -48.6405   20.2515  -23.0022 H   0  0  0  0  0  0  0  0  0  0  0  0  # atno 12727 bound_to 12623
  -38.2282   26.3940  -20.1666 H   0  0  0  0  0  0  0  0  0  0  0  0  # atno 17235 bound_to 17166
  -37.0623   26.4972  -21.3400 H   0  0  0  0  0  0  0  0  0  0  0  0  # atno 17236 bound_to 17166
  -37.6925   25.4874  -25.5679 H   0  0  0  0  0  0  0  0  0  0  0  0  # atno 17240 bound_to 17169
  -37.3997   22.6906  -26.2041 H   0  0  0  0  0  0  0  0  0  0  0  0  # atno 17658 bound_to 17540
  -52.1747   27.5373  -23.2032 LP  0  0  0  0  0  0  0  0  0  0  0  0  # atno 20694 bound_to 5953
  -50.8507   26.5696  -23.7606 LP  0  0  0  0  0  0  0  0  0  0  0  0  # atno 20695 bound_to 5953
  -45.6655   20.0836  -19.7554 LP  0  0  0  0  0  0  0  0  0  0  0  0  # atno 20696 bound_to 11535
  -45.8756   19.9799  -21.3715 LP  0  0  0  0  0  0  0  0  0  0  0  0  # atno 20697 bound_to 11535
  -48.2351   31.7844  -23.9375 LP  0  0  0  0  0  0  0  0  0  0  0  0  # atno 20698 bound_to 12075
  -49.1987   31.9821  -25.2410 LP  0  0  0  0  0  0  0  0  0  0  0  0  # atno 20699 bound_to 12075
  -51.1741   30.6240  -20.4607 LP  0  0  0  0  0  0  0  0  0  0  0  0  # atno 20700 bound_to 12376
  -49.3301   28.7809  -19.4034 LP  0  0  0  0  0  0  0  0  0  0  0  0  # atno 20701 bound_to 12379
  -49.8976   27.1607  -19.1730 LP  0  0  0  0  0  0  0  0  0  0  0  0  # atno 20702 bound_to 12379
  -50.3078   27.3504  -21.1533 LP  0  0  0  0  0  0  0  0  0  0  0  0  # atno 20703 bound_to 12432
  -50.5764   24.9593  -23.0771 LP  0  0  0  0  0  0  0  0  0  0  0  0  # atno 20704 bound_to 12435
  -49.5425   23.7653  -23.7879 LP  0  0  0  0  0  0  0  0  0  0  0  0  # atno 20705 bound_to 12435
  -48.9633   23.8042  -21.3985 LP  0  0  0  0  0  0  0  0  0  0  0  0  # atno 20706 bound_to 12491
  -49.2644   20.6873  -20.0601 LP  0  0  0  0  0  0  0  0  0  0  0  0  # atno 20707 bound_to 12494
  -47.6066   21.1647  -20.2140 LP  0  0  0  0  0  0  0  0  0  0  0  0  # atno 20708 bound_to 12494
  -38.0374   27.7841  -21.0258 LP  0  0  0  0  0  0  0  0  0  0  0  0  # atno 20709 bound_to 17166
  -41.1352   32.8568  -24.5435 LP  0  0  0  0  0  0  0  0  0  0  0  0  # atno 20710 bound_to 2578
  -41.2543   31.1402  -24.3459 LP  0  0  0  0  0  0  0  0  0  0  0  0  # atno 20711 bound_to 2578
  -49.8166   21.4652  -22.5491 LP  0  0  0  0  0  0  0  0  0  0  0  0  # atno 20712 bound_to 12623
  -38.0902   26.9684  -26.1128 LP  0  0  0  0  0  0  0  0  0  0  0  0  # atno 20713 bound_to 17169
  -39.2126   26.0370  -25.3784 LP  0  0  0  0  0  0  0  0  0  0  0  0  # atno 20714 bound_to 17169
  -53.0343   31.6016  -22.9420 LP  0  0  0  0  0  0  0  0  0  0  0  0  # atno 20715 bound_to 12231
  -51.7671   30.4620  -23.2511 LP  0  0  0  0  0  0  0  0  0  0  0  0  # atno 20716 bound_to 12231
  -50.2711   25.4161  -25.9083 LP  0  0  0  0  0  0  0  0  0  0  0  0  # atno 20717 bound_to 5950
  -52.1375   27.1817  -25.6961 LP  0  0  0  0  0  0  0  0  0  0  0  0  # atno 20718 bound_to 6106

> <Gold.Score>
     Fitness  S(hb_ext) S(vdw_ext)  S(hb_int)    S(int)      intcor
     21.61       0.00      16.53       0.00      -1.11      -0.76

> <Gold.Goldscore.Fitness>
21.6147

> <Gold.Goldscore.Internal.Vdw>
-1.3946

> <Gold.Goldscore.Internal.Torsion>
-0.4751

> <Gold.Goldscore.External.Vdw>
16.5279

> <Gold.Goldscore.Internal.HBond>
0.0000

> <Gold.Goldscore.External.HBond>
0.0000

> <Gold.Goldscore.Internal.Correction>
-0.7585

> <Gold.Goldscore.Internal.Vdw.Weighted>
-1.3946

> <Gold.Goldscore.Internal.Torsion.Weighted>
-0.4751

> <Gold.Goldscore.External.Vdw.Weighted>
22.7258

> <Gold.Goldscore.Internal.HBond.Weighted>
0.0000

> <Gold.Goldscore.External.HBond.Weighted>
0.0000

> <Gold.Goldscore.Internal.Correction.Weighted>
-0.7585

> <Gold.Rescore>
     Score     S(PLP)   S(hbond)     S(cho)   S(metal)  DE(clash)   DE(tors)     intcor
     22.05     -24.08       0.00       0.00       0.00       0.00       1.01       ----

> <Gold.PLP.Fitness>
22.0518

> <Gold.PLP.PLP>
-24.0824

> <Gold.PLP.part.hbond>
0.0000

> <Gold.PLP.part.metal>
0.0000

> <Gold.PLP.part.buried>
-2.0640

> <Gold.PLP.part.nonpolar>
-22.7495

> <Gold.PLP.part.repulsive>
0.2424

> <Gold.PLP.ligand.clash>
0.0050

> <Gold.PLP.ligand.torsion>
1.0128

> <Gold.PLP.Chemscore.Hbond>
0.0000

> <Gold.PLP.Chemscore.CHOScore>
0.0000

> <Gold.PLP.Chemscore.Metal>
0.0000

> <Gold.PLP.Chemscore.Internal.Correction>
   9.000000E+99

