#       Name:                CT1002167954
#       Creating user name   hitesit
#       Creation time:       Sun Apr 16 20:16:29 2023


#       File generated by GOLD software.
#

@<TRIPOS>MOLECULE
CT1002167954|ligand_prepared|mol2|1|dock4
    29    30     1
SMALL
NO_CHARGES


@<TRIPOS>ATOM
      1 C1          -4.9920 -16.3753  18.8948 C.3            1 RES1               0.0000
      2 C2          -5.1749 -17.9065  18.8713 C.ar           1 RES1               0.0000
      3 C3          -6.3869 -15.7748  18.7471 C.2            1 RES1               0.0000
      4 C4          -4.3104 -16.0473  20.2187 C.2            1 RES1               0.0000
      5 C5          -4.1011 -15.8348  17.7521 C.3            1 RES1               0.0000
      6 C6          -6.1329 -18.5181  19.6744 C.ar           1 RES1               0.0000
      7 C7          -4.3964 -18.7190  18.0512 C.ar           1 RES1               0.0000
      8 N8          -6.9558 -15.2185  19.8547 N.am           1 RES1               0.0000
      9 O9          -6.9945 -15.8239  17.6847 O.2            1 RES1               0.0000
     10 N10         -5.0137 -15.3147  21.1387 N.am           1 RES1               0.0000
     11 O11         -3.1769 -16.4309  20.4800 O.2            1 RES1               0.0000
     12 C12         -3.9790 -14.3193  17.7342 C.3            1 RES1               0.0000
     13 C13         -6.3083 -19.8919  19.6562 C.ar           1 RES1               0.0000
     14 C14         -4.5734 -20.0926  18.0348 C.ar           1 RES1               0.0000
     15 C15         -6.3167 -14.9116  21.0290 C.2            1 RES1               0.0000
     16 C16         -5.5292 -20.6799  18.8362 C.ar           1 RES1               0.0000
     17 O17         -6.8976 -14.3026  21.9227 O.2            1 RES1               0.0000
     18 H18         -3.0984 -16.2687  17.8507 H              1 RES1               0.0000
     19 H19         -4.5171 -16.1668  16.7928 H              1 RES1               0.0000
     20 H20         -6.7537 -17.9144  20.3280 H              1 RES1               0.0000
     21 H21         -3.6377 -18.2789  17.4131 H              1 RES1               0.0000
     22 H22         -7.9483 -15.0116  19.8053 H              1 RES1               0.0000
     23 H23         -4.5201 -15.0446  21.9835 H              1 RES1               0.0000
     24 H24         -3.3436 -13.9931  16.9135 H              1 RES1               0.0000
     25 H25         -4.9554 -13.8550  17.6120 H              1 RES1               0.0000
     26 H26         -3.5450 -13.9563  18.6637 H              1 RES1               0.0000
     27 H27         -7.0610 -20.3493  20.2899 H              1 RES1               0.0000
     28 H28         -3.9575 -20.7090  17.3883 H              1 RES1               0.0000
     29 H29         -5.6671 -21.7560  18.8219 H              1 RES1               0.0000
@<TRIPOS>BOND
    1    1    2 1     
    2    1    3 1     
    3    1    4 1     
    4    1    5 1     
    5    2    6 ar    
    6    2    7 ar    
    7    3    8 1     
    8    3    9 2     
    9    4   10 1     
   10    4   11 2     
   11    5   12 1     
   12    5   18 1     
   13    5   19 1     
   14    6   13 ar    
   15    6   20 1     
   16    7   14 ar    
   17    7   21 1     
   18    8   15 1     
   19    8   22 1     
   20   10   15 1     
   21   10   23 1     
   22   12   24 1     
   23   12   25 1     
   24   12   26 1     
   25   13   16 ar    
   26   13   27 1     
   27   14   16 ar    
   28   14   28 1     
   29   15   17 2     
   30   16   29 1     
@<TRIPOS>SUBSTRUCTURE
      1 RES1           1
@<TRIPOS>SET
DONOR_HYDROGENS      STATIC     ATOMS    <user>   **** ""
2 22 23
ATOM$RED        STATIC     ATOMS    COLORGROUP SYSTEM
2 22 23
@<TRIPOS>COMMENT
> <Gold.Version>
2022.3.0

> <Gold.Id.Protein>
unknown|3mvj_clean|pdb

> <Gold.Protein.RotatedTorsions>
[ 1772 1742 1743 1744 ] final  160.13 input   69.76 | X-H torsion
[ 1801 1791 1792 1793 ] final  -38.70 input  -10.55 | X-H torsion
[ 1832 1818 1819 1820 ] final -136.03 input   43.70 | X-H torsion
[ 2090 2067 2068 2069 ] final -112.39 input   63.04 | X-H torsion
[ 2143 2117 2118 2119 ] final   -5.67 input   55.90 | X-H torsion
[ 5638 5617 5618 5619 ] final -141.10 input   93.34 | X-H torsion
[ 7894 7874 7875 7876 ] final  158.67 input   68.03 | X-H torsion
[ 7946 7916 7917 7918 ] final  -74.23 input   66.66 | X-H torsion
[ 8490 8469 8467 8464 ] final  140.67 input   59.99 | X-H torsion
[ 15476 15466 15465 15463 ] final  111.39 input   60.00 | X-H torsion
[ 8003 7973 7974 7975 ] final   96.45 input   84.71 | X-H torsion
[ 8484 8463 8464 8465 ] final  172.36 input   59.21 | X-H torsion
[ 8523 8507 8508 8509 ] final  148.09 input -104.23 | X-H torsion
[ 2825 2803 2804 2805 ] final   92.28 input  103.27 | X-H torsion
[ 2197 2168 2169 2170 ] final -106.61 input  106.62 | X-H torsion
[ 2728 2714 2715 2716 ] final  -62.69 input   74.66 | X-H torsion
[ 2776 2750 2751 2752 ] final  125.51 input   68.39 | X-H torsion
[ 5506 5481 5482 5483 ] final  -16.42 input   57.83 | X-H torsion
[ 5596 5586 5587 5588 ] final  -76.44 input -104.43 | X-H torsion
[ 5456 5428 5429 5430 ] final  177.99 input  113.20 | X-H torsion
[ 5464 5439 5438 5436 ] final   67.03 input   59.99 | X-H torsion
[ 5575 5565 5566 5567 ] final   46.85 input  101.53 | X-H torsion
[ 5392 5377 5378 5379 ] final -176.29 input  130.34 | X-H torsion
[ 8060 8030 8031 8032 ] final  -60.82 input   72.86 | X-H torsion
[ 2686 2665 2666 2667 ] final   77.01 input   26.41 | X-H torsion
[ 5343 5324 5325 5326 ] final -127.29 input   62.58 | X-H torsion
[ 4538 4515 4516 4517 ] final -172.04 input  130.34 | X-H torsion
[ 4602 4567 4568 4569 ] final   78.35 input  104.80 | X-H torsion
[ 5305 5274 5275 5276 ] final   -8.94 input   71.10 | X-H torsion
[ 8578 8549 8550 8551 ] final  -42.58 input   74.91 | X-H torsion
[ 1861 1854 1855 1856 ] final   40.71 input   57.50 | X-H torsion
[ 15411 15403 15404 15405 ] final  -94.72 input  102.24 | X-H torsion
[ 2878 2867 2868 2869 ] final  -64.15 input   60.34 | X-H torsion
[ 16459 1745 1744 1743 ] final  -56.17 input    0.00 | X-H torsion
[ 16462 1794 1793 1792 ] final  164.62 input   -0.00 | X-H torsion
[ 16466 2070 2069 2068 ] final    7.11 input    0.00 | X-H torsion
[ 16474 7834 7833 7832 ] final  -18.22 input    0.00 | X-H torsion
[ 16477 7877 7876 7875 ] final  179.84 input    0.00 | X-H torsion
[ 16486 7919 7918 7917 ] final -118.31 input    0.00 | X-H torsion
[ 16490 8466 8465 8464 ] final   64.48 input    0.00 | X-H torsion
[ 16495 2717 2716 2715 ] final   47.69 input    0.00 | X-H torsion
[ 16498 5484 5483 5482 ] final  130.64 input    0.00 | X-H torsion
[ 16500 2120 2119 2118 ] final  112.35 input    0.00 | X-H torsion
[ 16505 2753 2752 2751 ] final -163.40 input    0.00 | X-H torsion
[ 16507 5380 5379 5378 ] final    8.09 input    0.00 | X-H torsion
[ 16510 1701 1700 1699 ] final -141.47 input   -0.00 | X-H torsion
[ 16513 5589 5588 5587 ] final  148.74 input    0.00 | X-H torsion
[ 16515 2668 2667 2666 ] final  -17.16 input    0.00 | X-H torsion
[ 16517 5327 5326 5325 ] final   43.41 input   -0.00 | X-H torsion
[ 16520 5431 5430 5429 ] final   81.19 input    0.00 | X-H torsion
[ 16525 5532 5531 5530 ] final  -32.69 input   -0.00 | X-H torsion
[ 16530 8033 8032 8031 ] final  -48.26 input    0.00 | X-H torsion
[ 16534 8371 8370 8369 ] final   38.96 input    0.00 | X-H torsion
[ 16536 4570 4569 4568 ] final  113.35 input    0.00 | X-H torsion
[ 16539 4518 4517 4516 ] final   30.43 input    0.00 | X-H torsion
[ 16542 5228 5227 5226 ] final -127.01 input    0.00 | X-H torsion
[ 16544 5277 5276 5275 ] final   78.19 input    0.00 | X-H torsion
[ 16548 8418 8417 8416 ] final  -90.56 input    0.00 | X-H torsion
[ 16551 2006 2005 2004 ] final   23.36 input    0.00 | X-H torsion
[ 16556 1821 1820 1819 ] final   86.52 input    0.00 | X-H torsion

> <Gold.Protein.ActiveResidues>
 THR48   LEU49   GLY50   THR51   GLY52   ARG56   VAL57   MET58   LEU59   TYR69  
 ALA70   MET71   LYS72   ILE73   GLU91   LEU95   VAL104  LYS105  LEU106  MET118 
 VAL119  MET120  GLU121  TYR122  VAL123  PRO124  GLY125  GLY126  GLU127  GLU170 
 ASN171  LEU172  LEU173  ILE174  ASP175  GLN181  VAL182  THR183  ASP184  PHE185 
 ASN326  PHE327  ASP328  TYR330 

> <Gold.Protein.RotatedAtoms>
    3.7546  -15.1772   19.5123 H   0  0  0  0  0  0  0  0  0  0  0  0  # atno 1772 bound_to 1742
    1.5914  -14.1862   21.7707 H   0  0  0  0  0  0  0  0  0  0  0  0  # atno 1801 bound_to 1791
   -0.5267  -14.7015   23.7527 H   0  0  0  0  0  0  0  0  0  0  0  0  # atno 1832 bound_to 1818
   -2.1181  -16.8290   27.1539 H   0  0  0  0  0  0  0  0  0  0  0  0  # atno 1861 bound_to 1854
    0.5146  -19.3588   23.2370 H   0  0  0  0  0  0  0  0  0  0  0  0  # atno 2090 bound_to 2067
    1.9890  -19.5972   19.3485 H   0  0  0  0  0  0  0  0  0  0  0  0  # atno 2143 bound_to 2117
    4.0224  -18.5364   17.5292 H   0  0  0  0  0  0  0  0  0  0  0  0  # atno 2197 bound_to 2168
    5.6721  -22.1633   12.1531 H   0  0  0  0  0  0  0  0  0  0  0  0  # atno 2686 bound_to 2665
    2.7571  -22.1054   13.8015 H   0  0  0  0  0  0  0  0  0  0  0  0  # atno 2728 bound_to 2714
    2.8468  -21.9747   16.7560 H   0  0  0  0  0  0  0  0  0  0  0  0  # atno 2776 bound_to 2750
   -0.3482  -24.0187   19.0503 H   0  0  0  0  0  0  0  0  0  0  0  0  # atno 2825 bound_to 2803
   -0.5863  -23.7561   22.7687 H   0  0  0  0  0  0  0  0  0  0  0  0  # atno 2878 bound_to 2867
   -9.1315  -21.5935   10.4416 H   0  0  0  0  0  0  0  0  0  0  0  0  # atno 4538 bound_to 4515
   -5.7440  -24.2089    9.4616 H   0  0  0  0  0  0  0  0  0  0  0  0  # atno 4602 bound_to 4567
   -1.3136  -27.3776   16.6742 H   0  0  0  0  0  0  0  0  0  0  0  0  # atno 5305 bound_to 5274
   -0.5100  -25.9145   14.7815 H   0  0  0  0  0  0  0  0  0  0  0  0  # atno 5343 bound_to 5324
   -1.5575  -24.8566   10.8794 H   0  0  0  0  0  0  0  0  0  0  0  0  # atno 5392 bound_to 5377
    0.9123  -21.6922   10.8565 H   0  0  0  0  0  0  0  0  0  0  0  0  # atno 5456 bound_to 5428
    4.1087  -13.7660   12.3989 H   0  0  0  0  0  0  0  0  0  0  0  0  # atno 5464 bound_to 5439
    0.1210  -17.3896   10.6159 H   0  0  0  0  0  0  0  0  0  0  0  0  # atno 5506 bound_to 5481
   -1.5135  -12.9104    9.0830 H   0  0  0  0  0  0  0  0  0  0  0  0  # atno 5575 bound_to 5565
   -2.1937  -12.0318   10.7750 H   0  0  0  0  0  0  0  0  0  0  0  0  # atno 5596 bound_to 5586
   -4.0940  -11.0048   13.2782 H   0  0  0  0  0  0  0  0  0  0  0  0  # atno 5638 bound_to 5617
  -10.4084  -12.7239   18.4050 H   0  0  0  0  0  0  0  0  0  0  0  0  # atno 7894 bound_to 7874
   -9.6483  -14.2770   15.4235 H   0  0  0  0  0  0  0  0  0  0  0  0  # atno 7946 bound_to 7916
   -8.5838  -15.1358   12.2650 H   0  0  0  0  0  0  0  0  0  0  0  0  # atno 8003 bound_to 7973
   -6.4941  -13.5744    9.8314 H   0  0  0  0  0  0  0  0  0  0  0  0  # atno 8060 bound_to 8030
   -9.4027  -18.8727   13.4722 H   0  0  0  0  0  0  0  0  0  0  0  0  # atno 8484 bound_to 8463
   -7.1496  -17.5835   16.6939 H   0  0  0  0  0  0  0  0  0  0  0  0  # atno 8490 bound_to 8469
   -8.8523  -19.5989   17.4293 H   0  0  0  0  0  0  0  0  0  0  0  0  # atno 8523 bound_to 8507
  -10.7244  -21.9158   19.9115 H   0  0  0  0  0  0  0  0  0  0  0  0  # atno 8578 bound_to 8549
    1.6901   -7.6104   17.0140 H   0  0  0  0  0  0  0  0  0  0  0  0  # atno 15411 bound_to 15403
   -2.0882  -10.8124   21.8855 H   0  0  0  0  0  0  0  0  0  0  0  0  # atno 15476 bound_to 15466
    3.0051  -14.7527   21.0357 LP  0  0  0  0  0  0  0  0  0  0  0  0  # atno 16458 bound_to 1742
   -0.0781  -12.2105   19.1247 LP  0  0  0  0  0  0  0  0  0  0  0  0  # atno 16459 bound_to 1745
   -1.1176  -13.5434   19.5028 LP  0  0  0  0  0  0  0  0  0  0  0  0  # atno 16460 bound_to 1745
    0.5836  -14.1927   20.3390 LP  0  0  0  0  0  0  0  0  0  0  0  0  # atno 16461 bound_to 1791
    0.4980  -16.2684   24.3349 LP  0  0  0  0  0  0  0  0  0  0  0  0  # atno 16462 bound_to 1794
    0.4598  -16.2955   22.6035 LP  0  0  0  0  0  0  0  0  0  0  0  0  # atno 16463 bound_to 1794
   -1.3399  -13.3432   24.4970 LP  0  0  0  0  0  0  0  0  0  0  0  0  # atno 16464 bound_to 1818
    0.2906  -17.6768   22.7973 LP  0  0  0  0  0  0  0  0  0  0  0  0  # atno 16465 bound_to 2067
    1.5436  -16.6555   21.4070 LP  0  0  0  0  0  0  0  0  0  0  0  0  # atno 16466 bound_to 2070
    2.9362  -16.7866   20.3855 LP  0  0  0  0  0  0  0  0  0  0  0  0  # atno 16467 bound_to 2070
    2.5345  -19.1716   20.9562 LP  0  0  0  0  0  0  0  0  0  0  0  0  # atno 16468 bound_to 2117
   -4.1616   -9.2728   13.5301 LP  0  0  0  0  0  0  0  0  0  0  0  0  # atno 16469 bound_to 5617
   -7.2052  -12.2688   18.0355 LP  0  0  0  0  0  0  0  0  0  0  0  0  # atno 16474 bound_to 7834
   -7.9337  -13.8382   17.9555 LP  0  0  0  0  0  0  0  0  0  0  0  0  # atno 16475 bound_to 7834
  -10.0544  -12.3375   16.7415 LP  0  0  0  0  0  0  0  0  0  0  0  0  # atno 16476 bound_to 7874
  -10.4647  -16.0049   14.2569 LP  0  0  0  0  0  0  0  0  0  0  0  0  # atno 16477 bound_to 7877
  -10.3452  -16.6282   15.8685 LP  0  0  0  0  0  0  0  0  0  0  0  0  # atno 16478 bound_to 7877
  -10.7133  -12.8929   15.4006 LP  0  0  0  0  0  0  0  0  0  0  0  0  # atno 16479 bound_to 7916
   -8.7295  -17.5844   16.3035 LP  0  0  0  0  0  0  0  0  0  0  0  0  # atno 16480 bound_to 8469
   -7.6053  -17.2471   15.1681 LP  0  0  0  0  0  0  0  0  0  0  0  0  # atno 16481 bound_to 8469
   -1.2956  -10.0633   20.6779 LP  0  0  0  0  0  0  0  0  0  0  0  0  # atno 16484 bound_to 15466
   -1.8234   -9.2089   21.9656 LP  0  0  0  0  0  0  0  0  0  0  0  0  # atno 16485 bound_to 15466
   -8.6005  -11.5193   12.0607 LP  0  0  0  0  0  0  0  0  0  0  0  0  # atno 16486 bound_to 7919
   -8.4671  -11.6943   13.7787 LP  0  0  0  0  0  0  0  0  0  0  0  0  # atno 16487 bound_to 7919
   -8.9670  -13.4480   12.4860 LP  0  0  0  0  0  0  0  0  0  0  0  0  # atno 16488 bound_to 7973
  -10.7336  -18.6009   14.5775 LP  0  0  0  0  0  0  0  0  0  0  0  0  # atno 16489 bound_to 8463
  -11.6368  -18.9431   16.3454 LP  0  0  0  0  0  0  0  0  0  0  0  0  # atno 16490 bound_to 8466
  -10.7061  -18.0910   17.5319 LP  0  0  0  0  0  0  0  0  0  0  0  0  # atno 16491 bound_to 8466
   -9.4998  -21.1835   17.0281 LP  0  0  0  0  0  0  0  0  0  0  0  0  # atno 16492 bound_to 8507
    0.3930  -23.5077   14.8704 LP  0  0  0  0  0  0  0  0  0  0  0  0  # atno 16495 bound_to 2717
   -0.2912  -23.3780   16.4563 LP  0  0  0  0  0  0  0  0  0  0  0  0  # atno 16496 bound_to 2717
    0.9003  -22.8639   19.4763 LP  0  0  0  0  0  0  0  0  0  0  0  0  # atno 16497 bound_to 2803
   -0.2606  -14.2931   11.2385 LP  0  0  0  0  0  0  0  0  0  0  0  0  # atno 16498 bound_to 5484
   -1.9682  -14.5776   11.1840 LP  0  0  0  0  0  0  0  0  0  0  0  0  # atno 16499 bound_to 5484
    3.0426  -20.0004   16.6676 LP  0  0  0  0  0  0  0  0  0  0  0  0  # atno 16500 bound_to 2120
    4.1698  -20.9597   17.5671 LP  0  0  0  0  0  0  0  0  0  0  0  0  # atno 16501 bound_to 2120
    5.3681  -17.4964   17.9248 LP  0  0  0  0  0  0  0  0  0  0  0  0  # atno 16502 bound_to 2168
    1.3444  -21.4245   13.0306 LP  0  0  0  0  0  0  0  0  0  0  0  0  # atno 16503 bound_to 2714
    1.1226  -21.7339   16.9417 LP  0  0  0  0  0  0  0  0  0  0  0  0  # atno 16504 bound_to 2750
    1.6362  -22.0215   21.1066 LP  0  0  0  0  0  0  0  0  0  0  0  0  # atno 16505 bound_to 2753
    2.6980  -21.6397   19.7925 LP  0  0  0  0  0  0  0  0  0  0  0  0  # atno 16506 bound_to 2753
   -2.4759  -21.4378   11.5162 LP  0  0  0  0  0  0  0  0  0  0  0  0  # atno 16507 bound_to 5380
   -1.5473  -19.9772   11.4487 LP  0  0  0  0  0  0  0  0  0  0  0  0  # atno 16508 bound_to 5380
   -1.1760  -18.5551   10.4687 LP  0  0  0  0  0  0  0  0  0  0  0  0  # atno 16509 bound_to 5481
    3.7355  -12.2655   20.2894 LP  0  0  0  0  0  0  0  0  0  0  0  0  # atno 16510 bound_to 1701
    5.3801  -12.7089   19.9753 LP  0  0  0  0  0  0  0  0  0  0  0  0  # atno 16511 bound_to 1701
   -1.9175  -10.3835   10.2596 LP  0  0  0  0  0  0  0  0  0  0  0  0  # atno 16512 bound_to 5586
   -5.7166  -11.4841   11.6589 LP  0  0  0  0  0  0  0  0  0  0  0  0  # atno 16513 bound_to 5589
   -4.5757  -10.8584   10.5158 LP  0  0  0  0  0  0  0  0  0  0  0  0  # atno 16514 bound_to 5589
    5.0017  -21.0520   13.9300 LP  0  0  0  0  0  0  0  0  0  0  0  0  # atno 16515 bound_to 2668
    3.7624  -20.1185   14.6999 LP  0  0  0  0  0  0  0  0  0  0  0  0  # atno 16516 bound_to 2668
    0.9920  -23.9764   12.8879 LP  0  0  0  0  0  0  0  0  0  0  0  0  # atno 16517 bound_to 5327
    0.4959  -22.5274   12.0791 LP  0  0  0  0  0  0  0  0  0  0  0  0  # atno 16518 bound_to 5327
   -0.2567  -21.2374    9.6407 LP  0  0  0  0  0  0  0  0  0  0  0  0  # atno 16519 bound_to 5428
   -1.0210  -19.6888    8.2585 LP  0  0  0  0  0  0  0  0  0  0  0  0  # atno 16520 bound_to 5431
    0.2106  -18.5477    7.8329 LP  0  0  0  0  0  0  0  0  0  0  0  0  # atno 16521 bound_to 5431
    2.7317  -13.2467   11.7050 LP  0  0  0  0  0  0  0  0  0  0  0  0  # atno 16522 bound_to 5439
    4.0875  -13.4146   10.8104 LP  0  0  0  0  0  0  0  0  0  0  0  0  # atno 16523 bound_to 5439
    1.4079  -11.6430   10.4940 LP  0  0  0  0  0  0  0  0  0  0  0  0  # atno 16525 bound_to 5532
    0.7136  -10.4570    9.4397 LP  0  0  0  0  0  0  0  0  0  0  0  0  # atno 16526 bound_to 5532
   -0.1351  -12.2543    8.2249 LP  0  0  0  0  0  0  0  0  0  0  0  0  # atno 16527 bound_to 5565
   -1.6277  -23.5113   11.9929 LP  0  0  0  0  0  0  0  0  0  0  0  0  # atno 16528 bound_to 5377
   -6.3822  -11.8801   10.2567 LP  0  0  0  0  0  0  0  0  0  0  0  0  # atno 16529 bound_to 8030
   -3.9614  -11.5395    7.8238 LP  0  0  0  0  0  0  0  0  0  0  0  0  # atno 16530 bound_to 8033
   -3.4718  -13.1973    7.9327 LP  0  0  0  0  0  0  0  0  0  0  0  0  # atno 16531 bound_to 8033
    4.8268  -21.3309   10.8671 LP  0  0  0  0  0  0  0  0  0  0  0  0  # atno 16532 bound_to 2665
   -0.0793  -24.2268   14.8405 LP  0  0  0  0  0  0  0  0  0  0  0  0  # atno 16533 bound_to 5324
   -9.2841  -15.9014   11.2835 LP  0  0  0  0  0  0  0  0  0  0  0  0  # atno 16534 bound_to 8371
   -9.2250  -17.1026   12.5300 LP  0  0  0  0  0  0  0  0  0  0  0  0  # atno 16535 bound_to 8371
   -4.2954  -25.2855   12.2438 LP  0  0  0  0  0  0  0  0  0  0  0  0  # atno 16536 bound_to 4570
   -3.3847  -25.4804   10.7835 LP  0  0  0  0  0  0  0  0  0  0  0  0  # atno 16537 bound_to 4570
   -9.5872  -23.2618   10.6673 LP  0  0  0  0  0  0  0  0  0  0  0  0  # atno 16538 bound_to 4515
   -9.0219  -24.8676   11.5003 LP  0  0  0  0  0  0  0  0  0  0  0  0  # atno 16539 bound_to 4518
   -7.7726  -26.0583   11.6467 LP  0  0  0  0  0  0  0  0  0  0  0  0  # atno 16540 bound_to 4518
   -7.3101  -24.7257   10.0660 LP  0  0  0  0  0  0  0  0  0  0  0  0  # atno 16541 bound_to 4567
   -0.8891  -24.7963   17.6762 LP  0  0  0  0  0  0  0  0  0  0  0  0  # atno 16542 bound_to 5228
   -0.2431  -25.3140   19.1976 LP  0  0  0  0  0  0  0  0  0  0  0  0  # atno 16543 bound_to 5228
   -1.5631  -27.6837   14.3571 LP  0  0  0  0  0  0  0  0  0  0  0  0  # atno 16544 bound_to 5277
   -0.3109  -27.3956   13.1956 LP  0  0  0  0  0  0  0  0  0  0  0  0  # atno 16545 bound_to 5277
  -10.6790  -21.4371   13.2323 LP  0  0  0  0  0  0  0  0  0  0  0  0  # atno 16548 bound_to 8418
   -9.2828  -20.9011   12.3586 LP  0  0  0  0  0  0  0  0  0  0  0  0  # atno 16549 bound_to 8418
    0.0709  -27.6146   17.7140 LP  0  0  0  0  0  0  0  0  0  0  0  0  # atno 16550 bound_to 5274
    0.0942  -21.3173   24.0991 LP  0  0  0  0  0  0  0  0  0  0  0  0  # atno 16551 bound_to 2006
    0.8117  -21.1108   22.5362 LP  0  0  0  0  0  0  0  0  0  0  0  0  # atno 16552 bound_to 2006
  -10.3648  -22.7990   18.4520 LP  0  0  0  0  0  0  0  0  0  0  0  0  # atno 16555 bound_to 8549
   -3.6966  -13.7233   25.7549 LP  0  0  0  0  0  0  0  0  0  0  0  0  # atno 16556 bound_to 1821
   -2.9800  -13.2331   27.2537 LP  0  0  0  0  0  0  0  0  0  0  0  0  # atno 16557 bound_to 1821
   -2.6923  -15.2911   26.5332 LP  0  0  0  0  0  0  0  0  0  0  0  0  # atno 16558 bound_to 1854

> <Gold.Score>
     Fitness  S(hb_ext) S(vdw_ext)  S(hb_int)    S(int)      intcor
     37.06       6.04      22.81       0.00      -0.34      -0.77

> <Gold.Goldscore.Fitness>
37.0590

> <Gold.Goldscore.Internal.Vdw>
-0.7298

> <Gold.Goldscore.Internal.Torsion>
-0.3817

> <Gold.Goldscore.External.Vdw>
22.8068

> <Gold.Goldscore.Internal.HBond>
0.0000

> <Gold.Goldscore.External.HBond>
6.0425

> <Gold.Goldscore.Internal.Correction>
-0.7686

> <Gold.Goldscore.Hbonds>
donor molecule, donor type, donor heavy atom, donor atom, acceptor molecule, acceptor atom, score
      P1  H  8469  8490       L1     9  0.02
      L1  H     8    22       P1  7881  1.00

> <Gold.Goldscore.Internal.Vdw.Weighted>
-0.7298

> <Gold.Goldscore.Internal.Torsion.Weighted>
-0.3817

> <Gold.Goldscore.External.Vdw.Weighted>
31.3594

> <Gold.Goldscore.Internal.HBond.Weighted>
0.0000

> <Gold.Goldscore.External.HBond.Weighted>
6.0425

> <Gold.Goldscore.Internal.Correction.Weighted>
-0.7686

> <Gold.Rescore>
     Score     S(PLP)   S(hbond)     S(cho)   S(metal)  DE(clash)   DE(tors)     intcor
     34.93     -30.86       1.50       0.00       0.00       0.00       0.21       ----

> <Gold.PLP.Fitness>
34.9274

> <Gold.PLP.PLP>
-30.8574

> <Gold.PLP.part.hbond>
-3.0000

> <Gold.PLP.part.metal>
0.0000

> <Gold.PLP.part.buried>
-1.0093

> <Gold.PLP.part.nonpolar>
-29.9557

> <Gold.PLP.part.repulsive>
0.5174

> <Gold.PLP.ligand.clash>
0.0000

> <Gold.PLP.ligand.torsion>
0.2086

> <Gold.PLP.Chemscore.Hbond>
1.4957

> <Gold.PLP.Chemscore.CHOScore>
0.0000

> <Gold.PLP.Chemscore.Metal>
0.0000

> <Gold.Chemscore.Hbonds>
donor molecule, donor type, donor heavy atom, donor atom, acceptor molecule, acceptor atom, score
      L1  H     8    22       P1  7881  1.00
      P1  H  8469  8490       L1     9  0.51

> <Gold.PLP.Chemscore.Internal.Correction>
   9.000000E+99

