#       Name:                CT1002167954
#       Creating user name   hitesit
#       Creation time:       Sun Apr 16 20:16:27 2023


#       File generated by GOLD software.
#

@<TRIPOS>MOLECULE
CT1002167954|ligand_prepared|mol2|1|dock2
    29    30     1
SMALL
NO_CHARGES


@<TRIPOS>ATOM
      1 C1          -5.4452 -17.1389  20.3263 C.3            1 RES1               0.0000
      2 C2          -4.8668 -17.7015  19.0120 C.ar           1 RES1               0.0000
      3 C3          -4.5000 -16.0258  20.7686 C.2            1 RES1               0.0000
      4 C4          -6.8573 -16.6638  20.0021 C.2            1 RES1               0.0000
      5 C5          -5.5416 -18.1823  21.4637 C.3            1 RES1               0.0000
      6 C6          -5.0323 -19.0434  18.6820 C.ar           1 RES1               0.0000
      7 C7          -4.1688 -16.8919  18.1198 C.ar           1 RES1               0.0000
      8 N8          -4.9257 -14.7388  20.6191 N.am           1 RES1               0.0000
      9 O9          -3.3824 -16.2723  21.2052 O.2            1 RES1               0.0000
     10 N10         -7.1178 -15.3211  20.0848 N.am           1 RES1               0.0000
     11 O11         -7.7423 -17.4383  19.6597 O.2            1 RES1               0.0000
     12 C12         -5.7606 -17.5717  22.8390 C.3            1 RES1               0.0000
     13 C13         -4.5212 -19.5566  17.5014 C.ar           1 RES1               0.0000
     14 C14         -3.6584 -17.4073  16.9398 C.ar           1 RES1               0.0000
     15 C15         -6.2080 -14.3337  20.3488 C.2            1 RES1               0.0000
     16 C16         -3.8344 -18.7390  16.6294 C.ar           1 RES1               0.0000
     17 O17         -6.5071 -13.1430  20.3520 O.2            1 RES1               0.0000
     18 H18         -6.3702 -18.8672  21.2454 H              1 RES1               0.0000
     19 H19         -4.6161 -18.7710  21.4822 H              1 RES1               0.0000
     20 H20         -5.5679 -19.7026  19.3570 H              1 RES1               0.0000
     21 H21         -4.0173 -15.8415  18.3437 H              1 RES1               0.0000
     22 H22         -4.2258 -14.0102  20.7172 H              1 RES1               0.0000
     23 H23         -8.0789 -15.0307  19.9359 H              1 RES1               0.0000
     24 H24         -5.8209 -18.3469  23.6000 H              1 RES1               0.0000
     25 H25         -4.9420 -16.9040  23.0994 H              1 RES1               0.0000
     26 H26         -6.6858 -16.9996  22.8640 H              1 RES1               0.0000
     27 H27         -4.6613 -20.6057  17.2625 H              1 RES1               0.0000
     28 H28         -3.1179 -16.7603  16.2568 H              1 RES1               0.0000
     29 H29         -3.4345 -19.1413  15.7045 H              1 RES1               0.0000
@<TRIPOS>BOND
    1    1    2 1     
    2    1    3 1     
    3    1    4 1     
    4    1    5 1     
    5    2    6 ar    
    6    2    7 ar    
    7    3    8 1     
    8    3    9 2     
    9    4   10 1     
   10    4   11 2     
   11    5   12 1     
   12    5   18 1     
   13    5   19 1     
   14    6   13 ar    
   15    6   20 1     
   16    7   14 ar    
   17    7   21 1     
   18    8   15 1     
   19    8   22 1     
   20   10   15 1     
   21   10   23 1     
   22   12   24 1     
   23   12   25 1     
   24   12   26 1     
   25   13   16 ar    
   26   13   27 1     
   27   14   16 ar    
   28   14   28 1     
   29   15   17 2     
   30   16   29 1     
@<TRIPOS>SUBSTRUCTURE
      1 RES1           1
@<TRIPOS>SET
DONOR_HYDROGENS      STATIC     ATOMS    <user>   **** ""
2 22 23
ATOM$RED        STATIC     ATOMS    COLORGROUP SYSTEM
2 22 23
@<TRIPOS>COMMENT
> <Gold.Version>
2022.3.0

> <Gold.Id.Protein>
unknown|3mvj_clean|pdb

> <Gold.Protein.RotatedTorsions>
[ 1772 1742 1743 1744 ] final -124.01 input   69.76 | X-H torsion
[ 1801 1791 1792 1793 ] final  -32.49 input  -10.55 | X-H torsion
[ 1832 1818 1819 1820 ] final   50.62 input   43.70 | X-H torsion
[ 2090 2067 2068 2069 ] final   74.12 input   63.04 | X-H torsion
[ 2143 2117 2118 2119 ] final -170.60 input   55.90 | X-H torsion
[ 5638 5617 5618 5619 ] final  153.69 input   93.34 | X-H torsion
[ 7894 7874 7875 7876 ] final   39.80 input   68.03 | X-H torsion
[ 7946 7916 7917 7918 ] final  -83.91 input   66.66 | X-H torsion
[ 8490 8469 8467 8464 ] final  -78.62 input   59.99 | X-H torsion
[ 15476 15466 15465 15463 ] final  -91.97 input   60.00 | X-H torsion
[ 8003 7973 7974 7975 ] final  108.50 input   84.71 | X-H torsion
[ 8484 8463 8464 8465 ] final  144.89 input   59.21 | X-H torsion
[ 8523 8507 8508 8509 ] final  141.76 input -104.23 | X-H torsion
[ 2825 2803 2804 2805 ] final -123.27 input  103.27 | X-H torsion
[ 2197 2168 2169 2170 ] final   20.72 input  106.62 | X-H torsion
[ 2728 2714 2715 2716 ] final  119.58 input   74.66 | X-H torsion
[ 2776 2750 2751 2752 ] final  155.52 input   68.39 | X-H torsion
[ 5506 5481 5482 5483 ] final  -22.40 input   57.83 | X-H torsion
[ 5596 5586 5587 5588 ] final   40.37 input -104.43 | X-H torsion
[ 5456 5428 5429 5430 ] final   63.94 input  113.20 | X-H torsion
[ 5464 5439 5438 5436 ] final  107.76 input   59.99 | X-H torsion
[ 5575 5565 5566 5567 ] final -122.11 input  101.53 | X-H torsion
[ 5392 5377 5378 5379 ] final  164.05 input  130.34 | X-H torsion
[ 8060 8030 8031 8032 ] final   67.20 input   72.86 | X-H torsion
[ 2686 2665 2666 2667 ] final    8.14 input   26.41 | X-H torsion
[ 5343 5324 5325 5326 ] final   92.06 input   62.58 | X-H torsion
[ 4538 4515 4516 4517 ] final -102.92 input  130.34 | X-H torsion
[ 4602 4567 4568 4569 ] final    7.68 input  104.80 | X-H torsion
[ 5305 5274 5275 5276 ] final  -62.55 input   71.10 | X-H torsion
[ 8578 8549 8550 8551 ] final   66.41 input   74.91 | X-H torsion
[ 1861 1854 1855 1856 ] final   92.61 input   57.50 | X-H torsion
[ 15411 15403 15404 15405 ] final   72.65 input  102.24 | X-H torsion
[ 2878 2867 2868 2869 ] final   95.44 input   60.34 | X-H torsion
[ 16459 1745 1744 1743 ] final  144.81 input    0.00 | X-H torsion
[ 16462 1794 1793 1792 ] final   -2.86 input   -0.00 | X-H torsion
[ 16466 2070 2069 2068 ] final -140.70 input    0.00 | X-H torsion
[ 16474 7834 7833 7832 ] final   25.17 input    0.00 | X-H torsion
[ 16477 7877 7876 7875 ] final  -11.39 input    0.00 | X-H torsion
[ 16486 7919 7918 7917 ] final -171.67 input    0.00 | X-H torsion
[ 16490 8466 8465 8464 ] final  163.05 input    0.00 | X-H torsion
[ 16495 2717 2716 2715 ] final  -46.51 input    0.00 | X-H torsion
[ 16498 5484 5483 5482 ] final  -90.04 input    0.00 | X-H torsion
[ 16500 2120 2119 2118 ] final  175.82 input    0.00 | X-H torsion
[ 16505 2753 2752 2751 ] final   -1.39 input    0.00 | X-H torsion
[ 16507 5380 5379 5378 ] final   87.17 input    0.00 | X-H torsion
[ 16510 1701 1700 1699 ] final   95.56 input   -0.00 | X-H torsion
[ 16513 5589 5588 5587 ] final  143.40 input    0.00 | X-H torsion
[ 16515 2668 2667 2666 ] final  123.69 input    0.00 | X-H torsion
[ 16517 5327 5326 5325 ] final  177.13 input   -0.00 | X-H torsion
[ 16520 5431 5430 5429 ] final  -80.26 input    0.00 | X-H torsion
[ 16525 5532 5531 5530 ] final  -33.76 input   -0.00 | X-H torsion
[ 16530 8033 8032 8031 ] final -147.71 input    0.00 | X-H torsion
[ 16534 8371 8370 8369 ] final  -63.32 input    0.00 | X-H torsion
[ 16536 4570 4569 4568 ] final -140.75 input    0.00 | X-H torsion
[ 16539 4518 4517 4516 ] final  -26.88 input    0.00 | X-H torsion
[ 16542 5228 5227 5226 ] final  -32.67 input    0.00 | X-H torsion
[ 16544 5277 5276 5275 ] final  130.47 input    0.00 | X-H torsion
[ 16548 8418 8417 8416 ] final  -39.68 input    0.00 | X-H torsion
[ 16551 2006 2005 2004 ] final  -98.73 input    0.00 | X-H torsion
[ 16556 1821 1820 1819 ] final   34.95 input    0.00 | X-H torsion

> <Gold.Protein.ActiveResidues>
 THR48   LEU49   GLY50   THR51   GLY52   ARG56   VAL57   MET58   LEU59   TYR69  
 ALA70   MET71   LYS72   ILE73   GLU91   LEU95   VAL104  LYS105  LEU106  MET118 
 VAL119  MET120  GLU121  TYR122  VAL123  PRO124  GLY125  GLY126  GLU127  GLU170 
 ASN171  LEU172  LEU173  ILE174  ASP175  GLN181  VAL182  THR183  ASP184  PHE185 
 ASN326  PHE327  ASP328  TYR330 

> <Gold.Protein.RotatedAtoms>
    3.9502  -14.3012   20.1362 H   0  0  0  0  0  0  0  0  0  0  0  0  # atno 1772 bound_to 1742
    1.5799  -14.2820   21.7728 H   0  0  0  0  0  0  0  0  0  0  0  0  # atno 1801 bound_to 1791
   -1.2588  -13.2966   24.5455 H   0  0  0  0  0  0  0  0  0  0  0  0  # atno 1832 bound_to 1818
   -2.6069  -16.8671   26.5391 H   0  0  0  0  0  0  0  0  0  0  0  0  # atno 1861 bound_to 1854
    0.1899  -17.6711   22.7499 H   0  0  0  0  0  0  0  0  0  0  0  0  # atno 2090 bound_to 2067
    2.4668  -18.9525   20.9193 H   0  0  0  0  0  0  0  0  0  0  0  0  # atno 2143 bound_to 2117
    5.4562  -18.2401   18.1228 H   0  0  0  0  0  0  0  0  0  0  0  0  # atno 2197 bound_to 2168
    5.3656  -21.2080   12.2002 H   0  0  0  0  0  0  0  0  0  0  0  0  # atno 2686 bound_to 2665
    1.3453  -21.3859   13.0193 H   0  0  0  0  0  0  0  0  0  0  0  0  # atno 2728 bound_to 2714
    2.6536  -22.2425   16.4345 H   0  0  0  0  0  0  0  0  0  0  0  0  # atno 2776 bound_to 2750
    0.5172  -22.5635   19.2486 H   0  0  0  0  0  0  0  0  0  0  0  0  # atno 2825 bound_to 2803
    0.6689  -22.5576   22.9918 H   0  0  0  0  0  0  0  0  0  0  0  0  # atno 2878 bound_to 2867
   -9.3018  -22.2374    9.7018 H   0  0  0  0  0  0  0  0  0  0  0  0  # atno 4538 bound_to 4515
   -5.9945  -24.3221   10.4674 H   0  0  0  0  0  0  0  0  0  0  0  0  # atno 4602 bound_to 4567
   -1.1929  -26.8315   17.2423 H   0  0  0  0  0  0  0  0  0  0  0  0  # atno 5305 bound_to 5274
   -0.5212  -24.3252   15.2143 H   0  0  0  0  0  0  0  0  0  0  0  0  # atno 5343 bound_to 5324
   -1.8419  -24.7661   10.8330 H   0  0  0  0  0  0  0  0  0  0  0  0  # atno 5392 bound_to 5377
    0.6662  -21.3443    9.4381 H   0  0  0  0  0  0  0  0  0  0  0  0  # atno 5456 bound_to 5428
    4.5031  -13.7590   11.8804 H   0  0  0  0  0  0  0  0  0  0  0  0  # atno 5464 bound_to 5439
    0.1556  -17.4255   10.5377 H   0  0  0  0  0  0  0  0  0  0  0  0  # atno 5506 bound_to 5481
   -0.0617  -12.1848    8.3657 H   0  0  0  0  0  0  0  0  0  0  0  0  # atno 5575 bound_to 5565
   -2.7373  -10.7750   10.1386 H   0  0  0  0  0  0  0  0  0  0  0  0  # atno 5596 bound_to 5586
   -3.8896  -10.5962   14.1237 H   0  0  0  0  0  0  0  0  0  0  0  0  # atno 5638 bound_to 5617
  -10.8932  -12.4710   16.9971 H   0  0  0  0  0  0  0  0  0  0  0  0  # atno 7894 bound_to 7874
   -9.7730  -14.3568   15.4401 H   0  0  0  0  0  0  0  0  0  0  0  0  # atno 7946 bound_to 7916
   -8.5071  -15.1203   12.4319 H   0  0  0  0  0  0  0  0  0  0  0  0  # atno 8003 bound_to 7973
   -5.7039  -12.2187   10.1360 H   0  0  0  0  0  0  0  0  0  0  0  0  # atno 8060 bound_to 8030
   -9.2978  -18.5131   13.6693 H   0  0  0  0  0  0  0  0  0  0  0  0  # atno 8484 bound_to 8463
   -7.9421  -17.2655   15.1506 H   0  0  0  0  0  0  0  0  0  0  0  0  # atno 8490 bound_to 8469
   -8.9406  -19.5618   17.4012 H   0  0  0  0  0  0  0  0  0  0  0  0  # atno 8523 bound_to 8507
  -10.0115  -23.0278   19.3730 H   0  0  0  0  0  0  0  0  0  0  0  0  # atno 8578 bound_to 8549
    1.0044   -8.8236   18.0876 H   0  0  0  0  0  0  0  0  0  0  0  0  # atno 15411 bound_to 15403
   -1.5310   -9.1182   21.4607 H   0  0  0  0  0  0  0  0  0  0  0  0  # atno 15476 bound_to 15466
    2.8158  -15.6006   20.4318 LP  0  0  0  0  0  0  0  0  0  0  0  0  # atno 16458 bound_to 1742
   -1.1569  -13.3652   19.7600 LP  0  0  0  0  0  0  0  0  0  0  0  0  # atno 16459 bound_to 1745
   -0.0388  -12.3887   18.8676 LP  0  0  0  0  0  0  0  0  0  0  0  0  # atno 16460 bound_to 1745
    0.5947  -14.1002   20.3370 LP  0  0  0  0  0  0  0  0  0  0  0  0  # atno 16461 bound_to 1791
    0.6223  -16.2007   22.6190 LP  0  0  0  0  0  0  0  0  0  0  0  0  # atno 16462 bound_to 1794
    0.3354  -16.3632   24.3194 LP  0  0  0  0  0  0  0  0  0  0  0  0  # atno 16463 bound_to 1794
   -0.6287  -14.7082   23.7268 LP  0  0  0  0  0  0  0  0  0  0  0  0  # atno 16464 bound_to 1818
    0.6021  -19.2953   23.2644 LP  0  0  0  0  0  0  0  0  0  0  0  0  # atno 16465 bound_to 2067
    2.5717  -16.6624   20.0985 LP  0  0  0  0  0  0  0  0  0  0  0  0  # atno 16466 bound_to 2070
    1.9081  -16.7796   21.6941 LP  0  0  0  0  0  0  0  0  0  0  0  0  # atno 16467 bound_to 2070
    2.0724  -19.7952   19.4368 LP  0  0  0  0  0  0  0  0  0  0  0  0  # atno 16468 bound_to 2117
   -4.3586   -9.6666   12.7152 LP  0  0  0  0  0  0  0  0  0  0  0  0  # atno 16469 bound_to 5617
   -7.3568  -12.4893   18.6172 LP  0  0  0  0  0  0  0  0  0  0  0  0  # atno 16474 bound_to 7834
   -7.7821  -13.6177   17.3738 LP  0  0  0  0  0  0  0  0  0  0  0  0  # atno 16475 bound_to 7834
   -9.5752  -12.5875   18.1334 LP  0  0  0  0  0  0  0  0  0  0  0  0  # atno 16476 bound_to 7874
  -10.1793  -16.6367   15.8351 LP  0  0  0  0  0  0  0  0  0  0  0  0  # atno 16477 bound_to 7877
  -10.6307  -15.9964   14.2903 LP  0  0  0  0  0  0  0  0  0  0  0  0  # atno 16478 bound_to 7877
  -10.5911  -12.8147   15.3844 LP  0  0  0  0  0  0  0  0  0  0  0  0  # atno 16479 bound_to 7916
   -6.9596  -17.5062   16.4255 LP  0  0  0  0  0  0  0  0  0  0  0  0  # atno 16480 bound_to 8469
   -8.5772  -17.6456   16.6001 LP  0  0  0  0  0  0  0  0  0  0  0  0  # atno 16481 bound_to 8469
   -2.2045  -10.3676   22.2562 LP  0  0  0  0  0  0  0  0  0  0  0  0  # atno 16484 bound_to 15466
   -1.4757  -10.6109   20.8153 LP  0  0  0  0  0  0  0  0  0  0  0  0  # atno 16485 bound_to 15466
   -7.9134  -11.7591   12.3349 LP  0  0  0  0  0  0  0  0  0  0  0  0  # atno 16486 bound_to 7919
   -9.1542  -11.4546   13.5044 LP  0  0  0  0  0  0  0  0  0  0  0  0  # atno 16487 bound_to 7919
   -9.0426  -13.4633   12.3214 LP  0  0  0  0  0  0  0  0  0  0  0  0  # atno 16488 bound_to 7973
  -10.8348  -18.9479   14.3872 LP  0  0  0  0  0  0  0  0  0  0  0  0  # atno 16489 bound_to 8463
  -11.4343  -18.9478   17.6424 LP  0  0  0  0  0  0  0  0  0  0  0  0  # atno 16490 bound_to 8466
  -10.9085  -18.0863   16.2348 LP  0  0  0  0  0  0  0  0  0  0  0  0  # atno 16491 bound_to 8466
   -9.4166  -21.2185   17.0546 LP  0  0  0  0  0  0  0  0  0  0  0  0  # atno 16492 bound_to 8507
   -0.5205  -22.8331   15.4361 LP  0  0  0  0  0  0  0  0  0  0  0  0  # atno 16495 bound_to 2717
    0.6224  -24.0526   15.8906 LP  0  0  0  0  0  0  0  0  0  0  0  0  # atno 16496 bound_to 2717
    0.0708  -24.2586   19.2862 LP  0  0  0  0  0  0  0  0  0  0  0  0  # atno 16497 bound_to 2803
   -1.8336  -14.0591   10.9093 LP  0  0  0  0  0  0  0  0  0  0  0  0  # atno 16498 bound_to 5484
   -0.3952  -14.8116   11.5131 LP  0  0  0  0  0  0  0  0  0  0  0  0  # atno 16499 bound_to 5484
    3.8806  -20.1739   16.3551 LP  0  0  0  0  0  0  0  0  0  0  0  0  # atno 16500 bound_to 2120
    3.3319  -20.7863   17.8796 LP  0  0  0  0  0  0  0  0  0  0  0  0  # atno 16501 bound_to 2120
    3.9613  -17.7871   17.3423 LP  0  0  0  0  0  0  0  0  0  0  0  0  # atno 16502 bound_to 2168
    2.7243  -22.1278   13.7951 LP  0  0  0  0  0  0  0  0  0  0  0  0  # atno 16503 bound_to 2714
    1.3093  -21.4750   17.2525 LP  0  0  0  0  0  0  0  0  0  0  0  0  # atno 16504 bound_to 2750
    2.8334  -21.8498   19.8967 LP  0  0  0  0  0  0  0  0  0  0  0  0  # atno 16505 bound_to 2753
    1.5008  -21.8114   21.0025 LP  0  0  0  0  0  0  0  0  0  0  0  0  # atno 16506 bound_to 2753
   -1.7104  -21.0599   12.2139 LP  0  0  0  0  0  0  0  0  0  0  0  0  # atno 16507 bound_to 5380
   -2.3129  -20.3551   10.7509 LP  0  0  0  0  0  0  0  0  0  0  0  0  # atno 16508 bound_to 5380
   -1.2095  -18.5204   10.5445 LP  0  0  0  0  0  0  0  0  0  0  0  0  # atno 16509 bound_to 5481
    4.8453  -12.7034   19.3446 LP  0  0  0  0  0  0  0  0  0  0  0  0  # atno 16510 bound_to 1701
    4.2703  -12.2709   20.9201 LP  0  0  0  0  0  0  0  0  0  0  0  0  # atno 16511 bound_to 1701
   -1.3884  -11.6065   10.8788 LP  0  0  0  0  0  0  0  0  0  0  0  0  # atno 16512 bound_to 5586
   -5.6755  -11.5535   11.6562 LP  0  0  0  0  0  0  0  0  0  0  0  0  # atno 16513 bound_to 5589
   -4.6168  -10.7889   10.5185 LP  0  0  0  0  0  0  0  0  0  0  0  0  # atno 16514 bound_to 5589
    3.9149  -19.8651   14.2005 LP  0  0  0  0  0  0  0  0  0  0  0  0  # atno 16515 bound_to 2668
    4.8493  -21.3054   14.4294 LP  0  0  0  0  0  0  0  0  0  0  0  0  # atno 16516 bound_to 2668
    0.7604  -22.9918   11.6576 LP  0  0  0  0  0  0  0  0  0  0  0  0  # atno 16517 bound_to 5327
    0.7275  -23.5120   13.3094 LP  0  0  0  0  0  0  0  0  0  0  0  0  # atno 16518 bound_to 5327
   -0.0158  -21.5780   11.0293 LP  0  0  0  0  0  0  0  0  0  0  0  0  # atno 16519 bound_to 5428
    0.3698  -18.7740    7.8703 LP  0  0  0  0  0  0  0  0  0  0  0  0  # atno 16520 bound_to 5431
   -1.1802  -19.4626    8.2211 LP  0  0  0  0  0  0  0  0  0  0  0  0  # atno 16521 bound_to 5431
    2.9622  -13.4345   12.2900 LP  0  0  0  0  0  0  0  0  0  0  0  0  # atno 16522 bound_to 5439
    3.4597  -13.2338   10.7477 LP  0  0  0  0  0  0  0  0  0  0  0  0  # atno 16523 bound_to 5439
    1.3953  -11.6410   10.5042 LP  0  0  0  0  0  0  0  0  0  0  0  0  # atno 16525 bound_to 5532
    0.7261  -10.4590    9.4296 LP  0  0  0  0  0  0  0  0  0  0  0  0  # atno 16526 bound_to 5532
   -1.5354  -12.9541    8.9167 LP  0  0  0  0  0  0  0  0  0  0  0  0  # atno 16527 bound_to 5565
   -1.3502  -23.5996   12.0382 LP  0  0  0  0  0  0  0  0  0  0  0  0  # atno 16528 bound_to 5377
   -7.1475  -13.1931    9.9616 LP  0  0  0  0  0  0  0  0  0  0  0  0  # atno 16529 bound_to 8030
   -3.4528  -12.4925    7.0628 LP  0  0  0  0  0  0  0  0  0  0  0  0  # atno 16530 bound_to 8033
   -3.9805  -12.2442    8.6937 LP  0  0  0  0  0  0  0  0  0  0  0  0  # atno 16531 bound_to 8033
    5.1241  -22.2576   10.8214 LP  0  0  0  0  0  0  0  0  0  0  0  0  # atno 16532 bound_to 2665
   -0.0682  -25.8040   14.4110 LP  0  0  0  0  0  0  0  0  0  0  0  0  # atno 16533 bound_to 5324
   -8.4362  -16.7806   11.8555 LP  0  0  0  0  0  0  0  0  0  0  0  0  # atno 16534 bound_to 8371
  -10.0729  -16.2234   11.9580 LP  0  0  0  0  0  0  0  0  0  0  0  0  # atno 16535 bound_to 8371
   -3.2662  -26.0114   11.6740 LP  0  0  0  0  0  0  0  0  0  0  0  0  # atno 16536 bound_to 4570
   -4.4139  -24.7544   11.3532 LP  0  0  0  0  0  0  0  0  0  0  0  0  # atno 16537 bound_to 4570
   -9.4190  -22.6258   11.3981 LP  0  0  0  0  0  0  0  0  0  0  0  0  # atno 16538 bound_to 4515
   -8.4830  -24.8042   12.1292 LP  0  0  0  0  0  0  0  0  0  0  0  0  # atno 16539 bound_to 4518
   -8.3115  -26.1216   11.0178 LP  0  0  0  0  0  0  0  0  0  0  0  0  # atno 16540 bound_to 4518
   -7.0728  -24.6184    9.1130 LP  0  0  0  0  0  0  0  0  0  0  0  0  # atno 16541 bound_to 4567
   -1.3326  -25.0470   18.8399 LP  0  0  0  0  0  0  0  0  0  0  0  0  # atno 16542 bound_to 5228
    0.2004  -25.0633   18.0339 LP  0  0  0  0  0  0  0  0  0  0  0  0  # atno 16543 bound_to 5228
   -1.7328  -27.1985   13.7931 LP  0  0  0  0  0  0  0  0  0  0  0  0  # atno 16544 bound_to 5277
   -0.1412  -27.8808   13.7596 LP  0  0  0  0  0  0  0  0  0  0  0  0  # atno 16545 bound_to 5277
  -10.7983  -21.2519   12.5217 LP  0  0  0  0  0  0  0  0  0  0  0  0  # atno 16548 bound_to 8418
   -9.1634  -21.0863   13.0692 LP  0  0  0  0  0  0  0  0  0  0  0  0  # atno 16549 bound_to 8418
   -0.0470  -28.1483   17.1588 LP  0  0  0  0  0  0  0  0  0  0  0  0  # atno 16550 bound_to 5274
    1.3112  -21.1879   23.2051 LP  0  0  0  0  0  0  0  0  0  0  0  0  # atno 16551 bound_to 2006
   -0.4054  -21.2402   23.4302 LP  0  0  0  0  0  0  0  0  0  0  0  0  # atno 16552 bound_to 2006
  -11.0705  -21.6982   18.9851 LP  0  0  0  0  0  0  0  0  0  0  0  0  # atno 16555 bound_to 8549
   -3.0620  -13.3210   25.6987 LP  0  0  0  0  0  0  0  0  0  0  0  0  # atno 16556 bound_to 1821
   -3.6145  -13.6354   27.3099 LP  0  0  0  0  0  0  0  0  0  0  0  0  # atno 16557 bound_to 1821
   -2.2264  -15.2549   27.1190 LP  0  0  0  0  0  0  0  0  0  0  0  0  # atno 16558 bound_to 1854

> <Gold.Score>
     Fitness  S(hb_ext) S(vdw_ext)  S(hb_int)    S(int)      intcor
     33.04       6.00      20.24       0.00      -0.78      -0.79

> <Gold.Goldscore.Fitness>
33.0420

> <Gold.Goldscore.Internal.Vdw>
-0.8457

> <Gold.Goldscore.Internal.Torsion>
-0.7218

> <Gold.Goldscore.External.Vdw>
20.2354

> <Gold.Goldscore.Internal.HBond>
0.0000

> <Gold.Goldscore.External.HBond>
6.0000

> <Gold.Goldscore.Internal.Correction>
-0.7859

> <Gold.Goldscore.Hbonds>
donor molecule, donor type, donor heavy atom, donor atom, acceptor molecule, acceptor atom, score
      L1  H    10    23       P1  7881  1.00

> <Gold.Goldscore.Internal.Vdw.Weighted>
-0.8457

> <Gold.Goldscore.Internal.Torsion.Weighted>
-0.7218

> <Gold.Goldscore.External.Vdw.Weighted>
27.8236

> <Gold.Goldscore.Internal.HBond.Weighted>
0.0000

> <Gold.Goldscore.External.HBond.Weighted>
6.0000

> <Gold.Goldscore.Internal.Correction.Weighted>
-0.7859

> <Gold.Rescore>
     Score     S(PLP)   S(hbond)     S(cho)   S(metal)  DE(clash)   DE(tors)     intcor
     27.75     -26.84       0.82       0.00       0.00       0.00       0.77       ----

> <Gold.PLP.Fitness>
27.7489

> <Gold.PLP.PLP>
-26.8395

> <Gold.PLP.part.hbond>
-3.0000

> <Gold.PLP.part.metal>
0.0000

> <Gold.PLP.part.buried>
-0.0379

> <Gold.PLP.part.nonpolar>
-25.9235

> <Gold.PLP.part.repulsive>
1.0526

> <Gold.PLP.ligand.clash>
0.0000

> <Gold.PLP.ligand.torsion>
0.7693

> <Gold.PLP.Chemscore.Hbond>
0.8160

> <Gold.PLP.Chemscore.CHOScore>
0.0000

> <Gold.PLP.Chemscore.Metal>
0.0000

> <Gold.Chemscore.Hbonds>
donor molecule, donor type, donor heavy atom, donor atom, acceptor molecule, acceptor atom, score
      L1  H    10    23       P1  7881  1.00

> <Gold.PLP.Chemscore.Internal.Correction>
   9.000000E+99

