#       Name:                CT1002167954
#       Creating user name   hitesit
#       Creation time:       Sun Apr 16 20:16:25 2023


#       File generated by GOLD software.
#

@<TRIPOS>MOLECULE
CT1002167954|ligand_prepared|mol2|1|dock1
    29    30     1
SMALL
NO_CHARGES


@<TRIPOS>ATOM
      1 C1          -5.9390 -17.7115  19.7412 C.3            1 RES1               0.0000
      2 C2          -4.7509 -17.0502  19.0133 C.ar           1 RES1               0.0000
      3 C3          -5.5596 -17.7666  21.2181 C.2            1 RES1               0.0000
      4 C4          -7.1575 -16.8447  19.4437 C.2            1 RES1               0.0000
      5 C5          -6.2457 -19.1485  19.2589 C.3            1 RES1               0.0000
      6 C6          -4.6260 -17.1440  17.6304 C.ar           1 RES1               0.0000
      7 C7          -3.7750 -16.3420  19.7096 C.ar           1 RES1               0.0000
      8 N8          -6.1795 -16.8935  22.0627 N.am           1 RES1               0.0000
      9 O9          -4.7010 -18.5374  21.6290 O.2            1 RES1               0.0000
     10 N10         -7.7421 -16.1786  20.4888 N.am           1 RES1               0.0000
     11 O11         -7.6065 -16.7193  18.3111 O.2            1 RES1               0.0000
     12 C12         -5.0055 -20.0035  19.0518 C.3            1 RES1               0.0000
     13 C13         -3.5656 -16.5489  16.9672 C.ar           1 RES1               0.0000
     14 C14         -2.7153 -15.7478  19.0444 C.ar           1 RES1               0.0000
     15 C15         -7.2898 -16.1393  21.7796 C.2            1 RES1               0.0000
     16 C16         -2.6099 -15.8501  17.6736 C.ar           1 RES1               0.0000
     17 O17         -7.8390 -15.4732  22.6525 O.2            1 RES1               0.0000
     18 H18         -6.8929 -19.6381  19.9970 H              1 RES1               0.0000
     19 H19         -6.7982 -19.0930  18.3128 H              1 RES1               0.0000
     20 H20         -5.3670 -17.6919  17.0580 H              1 RES1               0.0000
     21 H21         -3.8370 -16.2493  20.7885 H              1 RES1               0.0000
     22 H22         -5.7805 -16.7917  22.9905 H              1 RES1               0.0000
     23 H23         -8.5935 -15.6644  20.2858 H              1 RES1               0.0000
     24 H24         -5.2769 -21.0013  18.7136 H              1 RES1               0.0000
     25 H25         -4.3508 -19.5591  18.3050 H              1 RES1               0.0000
     26 H26         -4.4448 -20.1009  19.9792 H              1 RES1               0.0000
     27 H27         -3.4865 -16.6336  15.8884 H              1 RES1               0.0000
     28 H28         -1.9651 -15.1994  19.6044 H              1 RES1               0.0000
     29 H29         -1.7795 -15.3837  17.1538 H              1 RES1               0.0000
@<TRIPOS>BOND
    1    1    2 1     
    2    1    3 1     
    3    1    4 1     
    4    1    5 1     
    5    2    6 ar    
    6    2    7 ar    
    7    3    8 1     
    8    3    9 2     
    9    4   10 1     
   10    4   11 2     
   11    5   12 1     
   12    5   18 1     
   13    5   19 1     
   14    6   13 ar    
   15    6   20 1     
   16    7   14 ar    
   17    7   21 1     
   18    8   15 1     
   19    8   22 1     
   20   10   15 1     
   21   10   23 1     
   22   12   24 1     
   23   12   25 1     
   24   12   26 1     
   25   13   16 ar    
   26   13   27 1     
   27   14   16 ar    
   28   14   28 1     
   29   15   17 2     
   30   16   29 1     
@<TRIPOS>SUBSTRUCTURE
      1 RES1           1
@<TRIPOS>SET
DONOR_HYDROGENS      STATIC     ATOMS    <user>   **** ""
2 22 23
ATOM$RED        STATIC     ATOMS    COLORGROUP SYSTEM
2 22 23
@<TRIPOS>COMMENT
> <Gold.Version>
2022.3.0

> <Gold.Id.Protein>
unknown|3mvj_clean|pdb

> <Gold.Protein.RotatedTorsions>
[ 1772 1742 1743 1744 ] final  -60.28 input   69.76 | X-H torsion
[ 1801 1791 1792 1793 ] final   77.76 input  -10.55 | X-H torsion
[ 1832 1818 1819 1820 ] final  -10.11 input   43.70 | X-H torsion
[ 2090 2067 2068 2069 ] final   66.68 input   63.04 | X-H torsion
[ 2143 2117 2118 2119 ] final   23.41 input   55.90 | X-H torsion
[ 5638 5617 5618 5619 ] final -101.32 input   93.34 | X-H torsion
[ 7894 7874 7875 7876 ] final  -92.79 input   68.03 | X-H torsion
[ 7946 7916 7917 7918 ] final  -22.20 input   66.66 | X-H torsion
[ 8490 8469 8467 8464 ] final   83.44 input   59.99 | X-H torsion
[ 15476 15466 15465 15463 ] final  -24.96 input   60.00 | X-H torsion
[ 8003 7973 7974 7975 ] final   26.58 input   84.71 | X-H torsion
[ 8484 8463 8464 8465 ] final -173.31 input   59.21 | X-H torsion
[ 8523 8507 8508 8509 ] final  100.35 input -104.23 | X-H torsion
[ 2825 2803 2804 2805 ] final  109.91 input  103.27 | X-H torsion
[ 2197 2168 2169 2170 ] final  -52.78 input  106.62 | X-H torsion
[ 2728 2714 2715 2716 ] final   -4.52 input   74.66 | X-H torsion
[ 2776 2750 2751 2752 ] final   33.34 input   68.39 | X-H torsion
[ 5506 5481 5482 5483 ] final -157.92 input   57.83 | X-H torsion
[ 5596 5586 5587 5588 ] final  111.57 input -104.43 | X-H torsion
[ 5456 5428 5429 5430 ] final -159.26 input  113.20 | X-H torsion
[ 5464 5439 5438 5436 ] final  126.31 input   59.99 | X-H torsion
[ 5575 5565 5566 5567 ] final   73.69 input  101.53 | X-H torsion
[ 5392 5377 5378 5379 ] final -147.77 input  130.34 | X-H torsion
[ 8060 8030 8031 8032 ] final   -6.86 input   72.86 | X-H torsion
[ 2686 2665 2666 2667 ] final  -49.24 input   26.41 | X-H torsion
[ 5343 5324 5325 5326 ] final -104.68 input   62.58 | X-H torsion
[ 4538 4515 4516 4517 ] final -137.15 input  130.34 | X-H torsion
[ 4602 4567 4568 4569 ] final  -48.34 input  104.80 | X-H torsion
[ 5305 5274 5275 5276 ] final  102.10 input   71.10 | X-H torsion
[ 8578 8549 8550 8551 ] final -124.88 input   74.91 | X-H torsion
[ 1861 1854 1855 1856 ] final   95.48 input   57.50 | X-H torsion
[ 15411 15403 15404 15405 ] final -146.69 input  102.24 | X-H torsion
[ 2878 2867 2868 2869 ] final   53.15 input   60.34 | X-H torsion
[ 16459 1745 1744 1743 ] final  -25.30 input    0.00 | X-H torsion
[ 16462 1794 1793 1792 ] final  -96.91 input   -0.00 | X-H torsion
[ 16466 2070 2069 2068 ] final -104.95 input    0.00 | X-H torsion
[ 16474 7834 7833 7832 ] final   38.24 input    0.00 | X-H torsion
[ 16477 7877 7876 7875 ] final -120.68 input    0.00 | X-H torsion
[ 16486 7919 7918 7917 ] final  -25.10 input    0.00 | X-H torsion
[ 16490 8466 8465 8464 ] final  118.51 input    0.00 | X-H torsion
[ 16495 2717 2716 2715 ] final  -16.62 input    0.00 | X-H torsion
[ 16498 5484 5483 5482 ] final -118.43 input    0.00 | X-H torsion
[ 16500 2120 2119 2118 ] final  164.41 input    0.00 | X-H torsion
[ 16505 2753 2752 2751 ] final   35.25 input    0.00 | X-H torsion
[ 16507 5380 5379 5378 ] final   91.42 input    0.00 | X-H torsion
[ 16510 1701 1700 1699 ] final -150.86 input   -0.00 | X-H torsion
[ 16513 5589 5588 5587 ] final -118.37 input    0.00 | X-H torsion
[ 16515 2668 2667 2666 ] final  -76.69 input    0.00 | X-H torsion
[ 16517 5327 5326 5325 ] final  -83.42 input   -0.00 | X-H torsion
[ 16520 5431 5430 5429 ] final   30.18 input    0.00 | X-H torsion
[ 16525 5532 5531 5530 ] final   23.16 input   -0.00 | X-H torsion
[ 16530 8033 8032 8031 ] final   -0.81 input    0.00 | X-H torsion
[ 16534 8371 8370 8369 ] final  100.51 input    0.00 | X-H torsion
[ 16536 4570 4569 4568 ] final  -94.00 input    0.00 | X-H torsion
[ 16539 4518 4517 4516 ] final -105.11 input    0.00 | X-H torsion
[ 16542 5228 5227 5226 ] final  159.25 input    0.00 | X-H torsion
[ 16544 5277 5276 5275 ] final   33.46 input    0.00 | X-H torsion
[ 16548 8418 8417 8416 ] final   24.72 input    0.00 | X-H torsion
[ 16551 2006 2005 2004 ] final   59.85 input    0.00 | X-H torsion
[ 16556 1821 1820 1819 ] final -104.61 input    0.00 | X-H torsion

> <Gold.Protein.ActiveResidues>
 THR48   LEU49   GLY50   THR51   GLY52   ARG56   VAL57   MET58   LEU59   TYR69  
 ALA70   MET71   LYS72   ILE73   GLU91   LEU95   VAL104  LYS105  LEU106  MET118 
 VAL119  MET120  GLU121  TYR122  VAL123  PRO124  GLY125  GLY126  GLU127  GLU170 
 ASN171  LEU172  LEU173  ILE174  ASP175  GLN181  VAL182  THR183  ASP184  PHE185 
 ASN326  PHE327  ASP328  TYR330 

> <Gold.Protein.RotatedAtoms>
    3.3978  -14.3139   20.8954 H   0  0  0  0  0  0  0  0  0  0  0  0  # atno 1772 bound_to 1742
    0.7678  -14.9815   20.7803 H   0  0  0  0  0  0  0  0  0  0  0  0  # atno 1801 bound_to 1791
   -1.8165  -13.8830   24.1586 H   0  0  0  0  0  0  0  0  0  0  0  0  # atno 1832 bound_to 1818
   -2.6335  -16.8484   26.5080 H   0  0  0  0  0  0  0  0  0  0  0  0  # atno 1861 bound_to 1854
    0.3036  -17.6487   22.7550 H   0  0  0  0  0  0  0  0  0  0  0  0  # atno 2090 bound_to 2067
    2.1853  -19.9679   19.5021 H   0  0  0  0  0  0  0  0  0  0  0  0  # atno 2143 bound_to 2117
    4.6489  -18.8768   17.8875 H   0  0  0  0  0  0  0  0  0  0  0  0  # atno 2197 bound_to 2168
    4.9542  -20.9012   11.5193 H   0  0  0  0  0  0  0  0  0  0  0  0  # atno 2686 bound_to 2665
    2.0390  -22.5750   13.7559 H   0  0  0  0  0  0  0  0  0  0  0  0  # atno 2728 bound_to 2714
    2.0878  -21.2903   17.5308 H   0  0  0  0  0  0  0  0  0  0  0  0  # atno 2776 bound_to 2750
   -0.4621  -23.7926   18.9444 H   0  0  0  0  0  0  0  0  0  0  0  0  # atno 2825 bound_to 2803
    0.1077  -22.5142   23.2991 H   0  0  0  0  0  0  0  0  0  0  0  0  # atno 2878 bound_to 2867
   -9.1855  -21.8081    9.9644 H   0  0  0  0  0  0  0  0  0  0  0  0  # atno 4538 bound_to 4515
   -6.7747  -24.6051   10.6351 H   0  0  0  0  0  0  0  0  0  0  0  0  # atno 4602 bound_to 4567
   -0.1694  -28.2280   16.9758 H   0  0  0  0  0  0  0  0  0  0  0  0  # atno 5305 bound_to 5274
   -0.2477  -25.9043   14.5607 H   0  0  0  0  0  0  0  0  0  0  0  0  # atno 5343 bound_to 5324
   -1.1609  -24.8457   11.0597 H   0  0  0  0  0  0  0  0  0  0  0  0  # atno 5392 bound_to 5377
    0.6186  -21.6840   11.0433 H   0  0  0  0  0  0  0  0  0  0  0  0  # atno 5456 bound_to 5428
    4.5491  -13.7078   11.5866 H   0  0  0  0  0  0  0  0  0  0  0  0  # atno 5464 bound_to 5439
   -0.8350  -18.6283   10.0079 H   0  0  0  0  0  0  0  0  0  0  0  0  # atno 5506 bound_to 5481
   -1.6107  -12.9702    8.6853 H   0  0  0  0  0  0  0  0  0  0  0  0  # atno 5575 bound_to 5565
   -1.8021  -10.3723   10.3060 H   0  0  0  0  0  0  0  0  0  0  0  0  # atno 5596 bound_to 5586
   -4.2683  -10.7284   12.7668 H   0  0  0  0  0  0  0  0  0  0  0  0  # atno 5638 bound_to 5617
   -9.3651  -12.4111   17.4878 H   0  0  0  0  0  0  0  0  0  0  0  0  # atno 7894 bound_to 7874
   -9.3070  -13.5876   15.3403 H   0  0  0  0  0  0  0  0  0  0  0  0  # atno 7946 bound_to 7916
   -9.0776  -14.5652   11.5995 H   0  0  0  0  0  0  0  0  0  0  0  0  # atno 8003 bound_to 7973
   -5.7536  -13.2587    9.8854 H   0  0  0  0  0  0  0  0  0  0  0  0  # atno 8060 bound_to 8030
   -9.5204  -19.0534   13.4188 H   0  0  0  0  0  0  0  0  0  0  0  0  # atno 8484 bound_to 8463
   -8.0021  -17.6956   16.9488 H   0  0  0  0  0  0  0  0  0  0  0  0  # atno 8490 bound_to 8469
   -9.5440  -19.5841   17.1899 H   0  0  0  0  0  0  0  0  0  0  0  0  # atno 8523 bound_to 8507
  -11.0514  -21.7421   18.8196 H   0  0  0  0  0  0  0  0  0  0  0  0  # atno 8578 bound_to 8549
    0.9572   -7.4235   17.1849 H   0  0  0  0  0  0  0  0  0  0  0  0  # atno 15411 bound_to 15403
   -1.2708   -9.8024   20.7312 H   0  0  0  0  0  0  0  0  0  0  0  0  # atno 15476 bound_to 15466
    3.3504  -15.5883   19.6969 LP  0  0  0  0  0  0  0  0  0  0  0  0  # atno 16458 bound_to 1742
   -0.0461  -12.4970   18.7650 LP  0  0  0  0  0  0  0  0  0  0  0  0  # atno 16459 bound_to 1745
   -1.1497  -13.2569   19.8626 LP  0  0  0  0  0  0  0  0  0  0  0  0  # atno 16460 bound_to 1745
    1.3795  -13.4243   21.2960 LP  0  0  0  0  0  0  0  0  0  0  0  0  # atno 16461 bound_to 1791
   -0.2637  -16.7152   23.3648 LP  0  0  0  0  0  0  0  0  0  0  0  0  # atno 16462 bound_to 1794
    1.2214  -15.8487   23.5736 LP  0  0  0  0  0  0  0  0  0  0  0  0  # atno 16463 bound_to 1794
   -0.0868  -14.1384   24.1027 LP  0  0  0  0  0  0  0  0  0  0  0  0  # atno 16464 bound_to 1818
    0.4930  -19.3167   23.2595 LP  0  0  0  0  0  0  0  0  0  0  0  0  # atno 16465 bound_to 2067
    2.0535  -16.5472   20.0686 LP  0  0  0  0  0  0  0  0  0  0  0  0  # atno 16466 bound_to 2070
    2.4263  -16.8948   21.7240 LP  0  0  0  0  0  0  0  0  0  0  0  0  # atno 16467 bound_to 2070
    2.3446  -18.8131   20.8077 LP  0  0  0  0  0  0  0  0  0  0  0  0  # atno 16468 bound_to 2117
   -3.9936   -9.5391   14.0230 LP  0  0  0  0  0  0  0  0  0  0  0  0  # atno 16469 bound_to 5617
   -7.4314  -12.6272   18.7366 LP  0  0  0  0  0  0  0  0  0  0  0  0  # atno 16474 bound_to 7834
   -7.7076  -13.4798   17.2544 LP  0  0  0  0  0  0  0  0  0  0  0  0  # atno 16475 bound_to 7834
  -11.0858  -12.6467   17.6482 LP  0  0  0  0  0  0  0  0  0  0  0  0  # atno 16476 bound_to 7874
   -9.6963  -16.2221   14.5740 LP  0  0  0  0  0  0  0  0  0  0  0  0  # atno 16477 bound_to 7877
  -11.1137  -16.4110   15.5514 LP  0  0  0  0  0  0  0  0  0  0  0  0  # atno 16478 bound_to 7877
  -11.0477  -13.5685   15.4822 LP  0  0  0  0  0  0  0  0  0  0  0  0  # atno 16479 bound_to 7916
   -8.5387  -17.3698   15.4473 LP  0  0  0  0  0  0  0  0  0  0  0  0  # atno 16480 bound_to 8469
   -6.9376  -17.3489   15.7676 LP  0  0  0  0  0  0  0  0  0  0  0  0  # atno 16481 bound_to 8469
   -1.9496   -9.3648   22.1438 LP  0  0  0  0  0  0  0  0  0  0  0  0  # atno 16484 bound_to 15466
   -1.9927  -10.9246   21.6624 LP  0  0  0  0  0  0  0  0  0  0  0  0  # atno 16485 bound_to 15466
   -9.3516  -11.3573   13.0575 LP  0  0  0  0  0  0  0  0  0  0  0  0  # atno 16486 bound_to 7919
   -7.7161  -11.8564   12.7818 LP  0  0  0  0  0  0  0  0  0  0  0  0  # atno 16487 bound_to 7919
   -8.4801  -14.0107   13.1423 LP  0  0  0  0  0  0  0  0  0  0  0  0  # atno 16488 bound_to 7973
  -10.6200  -18.4264   14.6290 LP  0  0  0  0  0  0  0  0  0  0  0  0  # atno 16489 bound_to 8463
  -11.7167  -19.1718   17.0938 LP  0  0  0  0  0  0  0  0  0  0  0  0  # atno 16490 bound_to 8466
  -10.6262  -17.8623   16.7835 LP  0  0  0  0  0  0  0  0  0  0  0  0  # atno 16491 bound_to 8466
   -8.8479  -21.1975   17.2537 LP  0  0  0  0  0  0  0  0  0  0  0  0  # atno 16492 bound_to 8507
   -0.2945  -22.9243   15.0618 LP  0  0  0  0  0  0  0  0  0  0  0  0  # atno 16495 bound_to 2717
    0.3963  -23.9614   16.2649 LP  0  0  0  0  0  0  0  0  0  0  0  0  # atno 16496 bound_to 2717
    1.0095  -23.0806   19.5778 LP  0  0  0  0  0  0  0  0  0  0  0  0  # atno 16497 bound_to 2803
   -1.5222  -13.7925   10.7985 LP  0  0  0  0  0  0  0  0  0  0  0  0  # atno 16498 bound_to 5484
   -0.7066  -15.0783   11.6240 LP  0  0  0  0  0  0  0  0  0  0  0  0  # atno 16499 bound_to 5484
    3.7234  -20.1041   16.3460 LP  0  0  0  0  0  0  0  0  0  0  0  0  # atno 16500 bound_to 2120
    3.4890  -20.8560   17.8887 LP  0  0  0  0  0  0  0  0  0  0  0  0  # atno 16501 bound_to 2120
    4.7533  -17.1624   17.5732 LP  0  0  0  0  0  0  0  0  0  0  0  0  # atno 16502 bound_to 2168
    2.0463  -20.9655   13.0752 LP  0  0  0  0  0  0  0  0  0  0  0  0  # atno 16503 bound_to 2714
    1.8564  -22.3955   16.1927 LP  0  0  0  0  0  0  0  0  0  0  0  0  # atno 16504 bound_to 2750
    2.5031  -21.4419   19.7525 LP  0  0  0  0  0  0  0  0  0  0  0  0  # atno 16505 bound_to 2753
    1.8311  -22.2193   21.1467 LP  0  0  0  0  0  0  0  0  0  0  0  0  # atno 16506 bound_to 2753
   -1.6719  -21.0088   12.2199 LP  0  0  0  0  0  0  0  0  0  0  0  0  # atno 16507 bound_to 5380
   -2.3514  -20.4062   10.7450 LP  0  0  0  0  0  0  0  0  0  0  0  0  # atno 16508 bound_to 5380
   -0.2504  -17.3559   11.0574 LP  0  0  0  0  0  0  0  0  0  0  0  0  # atno 16509 bound_to 5481
    3.7154  -12.2870   20.1507 LP  0  0  0  0  0  0  0  0  0  0  0  0  # atno 16510 bound_to 1701
    5.4002  -12.6873   20.1140 LP  0  0  0  0  0  0  0  0  0  0  0  0  # atno 16511 bound_to 1701
   -2.2985  -11.9984   10.7160 LP  0  0  0  0  0  0  0  0  0  0  0  0  # atno 16512 bound_to 5586
   -5.5316  -10.3962   11.0607 LP  0  0  0  0  0  0  0  0  0  0  0  0  # atno 16513 bound_to 5589
   -4.7607  -11.9463   11.1141 LP  0  0  0  0  0  0  0  0  0  0  0  0  # atno 16514 bound_to 5589
    4.6781  -21.3109   14.6834 LP  0  0  0  0  0  0  0  0  0  0  0  0  # atno 16515 bound_to 2668
    4.0861  -19.8596   13.9464 LP  0  0  0  0  0  0  0  0  0  0  0  0  # atno 16516 bound_to 2668
    0.3872  -22.5510   12.8462 LP  0  0  0  0  0  0  0  0  0  0  0  0  # atno 16517 bound_to 5327
    1.1007  -23.9528   12.1208 LP  0  0  0  0  0  0  0  0  0  0  0  0  # atno 16518 bound_to 5327
    0.0309  -21.2455    9.4578 LP  0  0  0  0  0  0  0  0  0  0  0  0  # atno 16519 bound_to 5428
   -0.3255  -19.9575    8.2439 LP  0  0  0  0  0  0  0  0  0  0  0  0  # atno 16520 bound_to 5431
   -0.4849  -18.2790    7.8475 LP  0  0  0  0  0  0  0  0  0  0  0  0  # atno 16521 bound_to 5431
    3.1905  -13.5330   12.4647 LP  0  0  0  0  0  0  0  0  0  0  0  0  # atno 16522 bound_to 5439
    3.1851  -13.1868   10.8689 LP  0  0  0  0  0  0  0  0  0  0  0  0  # atno 16523 bound_to 5439
    1.8051  -11.4638    9.8099 LP  0  0  0  0  0  0  0  0  0  0  0  0  # atno 16525 bound_to 5532
    0.3163  -10.6362   10.1239 LP  0  0  0  0  0  0  0  0  0  0  0  0  # atno 16526 bound_to 5532
   -0.0414  -12.1966    8.6085 LP  0  0  0  0  0  0  0  0  0  0  0  0  # atno 16527 bound_to 5565
   -2.0146  -23.5219   11.8170 LP  0  0  0  0  0  0  0  0  0  0  0  0  # atno 16528 bound_to 5377
   -7.0994  -12.1858   10.2044 LP  0  0  0  0  0  0  0  0  0  0  0  0  # atno 16529 bound_to 8030
   -4.0492  -11.8167    8.4571 LP  0  0  0  0  0  0  0  0  0  0  0  0  # atno 16530 bound_to 8033
   -3.3840  -12.9200    7.2995 LP  0  0  0  0  0  0  0  0  0  0  0  0  # atno 16531 bound_to 8033
    5.5233  -22.5552   11.4819 LP  0  0  0  0  0  0  0  0  0  0  0  0  # atno 16532 bound_to 2665
   -0.3397  -24.2370   15.0595 LP  0  0  0  0  0  0  0  0  0  0  0  0  # atno 16533 bound_to 5324
   -9.9994  -16.0801   11.7752 LP  0  0  0  0  0  0  0  0  0  0  0  0  # atno 16534 bound_to 8371
   -8.5098  -16.9238   12.0383 LP  0  0  0  0  0  0  0  0  0  0  0  0  # atno 16535 bound_to 8371
   -3.2211  -25.7570   11.0373 LP  0  0  0  0  0  0  0  0  0  0  0  0  # atno 16536 bound_to 4570
   -4.4591  -25.0089   11.9900 LP  0  0  0  0  0  0  0  0  0  0  0  0  # atno 16537 bound_to 4570
   -9.5339  -23.0498   11.1387 LP  0  0  0  0  0  0  0  0  0  0  0  0  # atno 16538 bound_to 4515
   -7.7420  -25.6072   12.1211 LP  0  0  0  0  0  0  0  0  0  0  0  0  # atno 16539 bound_to 4518
   -9.0525  -25.3186   11.0259 LP  0  0  0  0  0  0  0  0  0  0  0  0  # atno 16540 bound_to 4518
   -6.3336  -24.3503    8.9541 LP  0  0  0  0  0  0  0  0  0  0  0  0  # atno 16541 bound_to 4567
    0.1050  -25.0094   17.8914 LP  0  0  0  0  0  0  0  0  0  0  0  0  # atno 16542 bound_to 5228
   -1.2372  -25.1008   18.9824 LP  0  0  0  0  0  0  0  0  0  0  0  0  # atno 16543 bound_to 5228
   -1.0145  -28.0240   14.4901 LP  0  0  0  0  0  0  0  0  0  0  0  0  # atno 16544 bound_to 5277
   -0.8595  -27.0553   13.0626 LP  0  0  0  0  0  0  0  0  0  0  0  0  # atno 16545 bound_to 5277
  -10.1221  -20.9541   11.9685 LP  0  0  0  0  0  0  0  0  0  0  0  0  # atno 16548 bound_to 8418
   -9.8396  -21.3841   13.6224 LP  0  0  0  0  0  0  0  0  0  0  0  0  # atno 16549 bound_to 8418
   -1.0473  -26.7835   17.4193 LP  0  0  0  0  0  0  0  0  0  0  0  0  # atno 16550 bound_to 5274
   -0.3042  -21.2769   23.7334 LP  0  0  0  0  0  0  0  0  0  0  0  0  # atno 16551 bound_to 2006
    1.2100  -21.1512   22.9018 LP  0  0  0  0  0  0  0  0  0  0  0  0  # atno 16552 bound_to 2006
  -10.0411  -22.9710   19.5329 LP  0  0  0  0  0  0  0  0  0  0  0  0  # atno 16555 bound_to 8549
   -3.1097  -13.3140   27.3233 LP  0  0  0  0  0  0  0  0  0  0  0  0  # atno 16556 bound_to 1821
   -3.5669  -13.6424   25.6853 LP  0  0  0  0  0  0  0  0  0  0  0  0  # atno 16557 bound_to 1821
   -2.2011  -15.2727   27.1487 LP  0  0  0  0  0  0  0  0  0  0  0  0  # atno 16558 bound_to 1854

> <Gold.Score>
     Fitness  S(hb_ext) S(vdw_ext)  S(hb_int)    S(int)      intcor
     36.84       6.53      24.20       0.00      -2.97      -0.81

> <Gold.Goldscore.Fitness>
36.8368

> <Gold.Goldscore.Internal.Vdw>
-2.9592

> <Gold.Goldscore.Internal.Torsion>
-0.8221

> <Gold.Goldscore.External.Vdw>
24.2018

> <Gold.Goldscore.Internal.HBond>
0.0000

> <Gold.Goldscore.External.HBond>
6.5325

> <Gold.Goldscore.Internal.Correction>
-0.8080

> <Gold.Goldscore.Hbonds>
donor molecule, donor type, donor heavy atom, donor atom, acceptor molecule, acceptor atom, score
      P1  H  8469  8490       L1    11  0.28
      L1  H    10    23       P1  7881  1.00

> <Gold.Goldscore.Internal.Vdw.Weighted>
-2.9592

> <Gold.Goldscore.Internal.Torsion.Weighted>
-0.8221

> <Gold.Goldscore.External.Vdw.Weighted>
33.2775

> <Gold.Goldscore.Internal.HBond.Weighted>
0.0000

> <Gold.Goldscore.External.HBond.Weighted>
6.5325

> <Gold.Goldscore.Internal.Correction.Weighted>
-0.8080

> <Gold.Rescore>
     Score     S(PLP)   S(hbond)     S(cho)   S(metal)  DE(clash)   DE(tors)     intcor
     33.70     -30.89       1.62       0.00       0.00       0.00       1.03       ----

> <Gold.PLP.Fitness>
33.6965

> <Gold.PLP.PLP>
-30.8944

> <Gold.PLP.part.hbond>
-2.0000

> <Gold.PLP.part.metal>
0.0000

> <Gold.PLP.part.buried>
-0.3179

> <Gold.PLP.part.nonpolar>
-30.1098

> <Gold.PLP.part.repulsive>
0.4507

> <Gold.PLP.ligand.clash>
0.0015

> <Gold.PLP.ligand.torsion>
1.0342

> <Gold.PLP.Chemscore.Hbond>
1.6240

> <Gold.PLP.Chemscore.CHOScore>
0.0000

> <Gold.PLP.Chemscore.Metal>
0.0000

> <Gold.Chemscore.Hbonds>
donor molecule, donor type, donor heavy atom, donor atom, acceptor molecule, acceptor atom, score
      L1  H    10    23       P1  7881  0.52
      P1  H  8469  8490       L1    11  0.83

> <Gold.PLP.Chemscore.Internal.Correction>
   9.000000E+99

