#       Name:                CT1002167954
#       Creating user name   hitesit
#       Creation time:       Sun Apr 16 20:16:36 2023


#       File generated by GOLD software.
#

@<TRIPOS>MOLECULE
CT1002167954|ligand_prepared|mol2|1|dock9
    29    30     1
SMALL
NO_CHARGES


@<TRIPOS>ATOM
      1 C1          -6.5905 -14.9756  23.8818 C.3            1 RES1               0.0000
      2 C2          -5.7165 -16.2351  23.7131 C.ar           1 RES1               0.0000
      3 C3          -7.2586 -14.7336  22.5315 C.2            1 RES1               0.0000
      4 C4          -7.5662 -15.2817  25.0127 C.2            1 RES1               0.0000
      5 C5          -5.7926 -13.7087  24.2691 C.3            1 RES1               0.0000
      6 C6          -4.6996 -16.5186  24.6199 C.ar           1 RES1               0.0000
      7 C7          -5.9165 -17.1227  22.6592 C.ar           1 RES1               0.0000
      8 N8          -8.5861 -15.0259  22.4220 N.am           1 RES1               0.0000
      9 O9          -6.6213 -14.3300  21.5665 O.2            1 RES1               0.0000
     10 N10         -8.8996 -15.3603  24.7066 N.am           1 RES1               0.0000
     11 O11         -7.1908 -15.4721  26.1629 O.2            1 RES1               0.0000
     12 C12         -6.6207 -12.4335  24.2518 C.3            1 RES1               0.0000
     13 C13         -3.9130 -17.6500  24.4799 C.ar           1 RES1               0.0000
     14 C14         -5.1286 -18.2534  22.5209 C.ar           1 RES1               0.0000
     15 C15         -9.4507 -15.2766  23.4570 C.2            1 RES1               0.0000
     16 C16         -4.1272 -18.5183  23.4307 C.ar           1 RES1               0.0000
     17 O17        -10.6540 -15.4119  23.2549 O.2            1 RES1               0.0000
     18 H18         -5.3775 -13.8466  25.2751 H              1 RES1               0.0000
     19 H19         -4.9528 -13.5937  23.5727 H              1 RES1               0.0000
     20 H20         -4.5146 -15.8456  25.4504 H              1 RES1               0.0000
     21 H21         -6.6978 -16.9340  21.9308 H              1 RES1               0.0000
     22 H22         -8.9718 -15.0614  21.4837 H              1 RES1               0.0000
     23 H23         -9.5408 -15.4933  25.4822 H              1 RES1               0.0000
     24 H24         -6.0130 -11.5752  24.5309 H              1 RES1               0.0000
     25 H25         -7.0284 -12.2517  23.2596 H              1 RES1               0.0000
     26 H26         -7.4507 -12.5031  24.9519 H              1 RES1               0.0000
     27 H27         -3.1253 -17.8532  25.1978 H              1 RES1               0.0000
     28 H28         -5.3003 -18.9337  21.6933 H              1 RES1               0.0000
     29 H29         -3.5111 -19.4047  23.3215 H              1 RES1               0.0000
@<TRIPOS>BOND
    1    1    2 1     
    2    1    3 1     
    3    1    4 1     
    4    1    5 1     
    5    2    6 ar    
    6    2    7 ar    
    7    3    8 1     
    8    3    9 2     
    9    4   10 1     
   10    4   11 2     
   11    5   12 1     
   12    5   18 1     
   13    5   19 1     
   14    6   13 ar    
   15    6   20 1     
   16    7   14 ar    
   17    7   21 1     
   18    8   15 1     
   19    8   22 1     
   20   10   15 1     
   21   10   23 1     
   22   12   24 1     
   23   12   25 1     
   24   12   26 1     
   25   13   16 ar    
   26   13   27 1     
   27   14   16 ar    
   28   14   28 1     
   29   15   17 2     
   30   16   29 1     
@<TRIPOS>SUBSTRUCTURE
      1 RES1           1
@<TRIPOS>SET
DONOR_HYDROGENS      STATIC     ATOMS    <user>   **** ""
2 22 23
ATOM$RED        STATIC     ATOMS    COLORGROUP SYSTEM
2 22 23
@<TRIPOS>COMMENT
> <Gold.Version>
2022.3.0

> <Gold.Id.Protein>
unknown|3mvj_clean|pdb

> <Gold.Protein.RotatedTorsions>
[ 1772 1742 1743 1744 ] final   73.62 input   69.76 | X-H torsion
[ 1801 1791 1792 1793 ] final  -51.01 input  -10.55 | X-H torsion
[ 1832 1818 1819 1820 ] final   30.02 input   43.70 | X-H torsion
[ 2090 2067 2068 2069 ] final   78.65 input   63.04 | X-H torsion
[ 2143 2117 2118 2119 ] final  136.52 input   55.90 | X-H torsion
[ 5638 5617 5618 5619 ] final  132.05 input   93.34 | X-H torsion
[ 7894 7874 7875 7876 ] final   13.64 input   68.03 | X-H torsion
[ 7946 7916 7917 7918 ] final -153.61 input   66.66 | X-H torsion
[ 8490 8469 8467 8464 ] final   51.95 input   59.99 | X-H torsion
[ 15476 15466 15465 15463 ] final  125.11 input   60.00 | X-H torsion
[ 8003 7973 7974 7975 ] final   65.43 input   84.71 | X-H torsion
[ 8484 8463 8464 8465 ] final  172.07 input   59.21 | X-H torsion
[ 8523 8507 8508 8509 ] final  -49.32 input -104.23 | X-H torsion
[ 2825 2803 2804 2805 ] final   90.82 input  103.27 | X-H torsion
[ 2197 2168 2169 2170 ] final  -37.96 input  106.62 | X-H torsion
[ 2728 2714 2715 2716 ] final   95.67 input   74.66 | X-H torsion
[ 2776 2750 2751 2752 ] final  114.73 input   68.39 | X-H torsion
[ 5506 5481 5482 5483 ] final  105.23 input   57.83 | X-H torsion
[ 5596 5586 5587 5588 ] final  105.90 input -104.43 | X-H torsion
[ 5456 5428 5429 5430 ] final  -55.55 input  113.20 | X-H torsion
[ 5464 5439 5438 5436 ] final  113.02 input   59.99 | X-H torsion
[ 5575 5565 5566 5567 ] final  -60.34 input  101.53 | X-H torsion
[ 5392 5377 5378 5379 ] final  -97.47 input  130.34 | X-H torsion
[ 8060 8030 8031 8032 ] final   91.08 input   72.86 | X-H torsion
[ 2686 2665 2666 2667 ] final   84.01 input   26.41 | X-H torsion
[ 5343 5324 5325 5326 ] final -131.05 input   62.58 | X-H torsion
[ 4538 4515 4516 4517 ] final  165.12 input  130.34 | X-H torsion
[ 4602 4567 4568 4569 ] final  -65.57 input  104.80 | X-H torsion
[ 5305 5274 5275 5276 ] final   89.02 input   71.10 | X-H torsion
[ 8578 8549 8550 8551 ] final  -74.41 input   74.91 | X-H torsion
[ 1861 1854 1855 1856 ] final   46.33 input   57.50 | X-H torsion
[ 15411 15403 15404 15405 ] final -138.55 input  102.24 | X-H torsion
[ 2878 2867 2868 2869 ] final   17.49 input   60.34 | X-H torsion
[ 16459 1745 1744 1743 ] final -162.02 input    0.00 | X-H torsion
[ 16462 1794 1793 1792 ] final -112.92 input   -0.00 | X-H torsion
[ 16466 2070 2069 2068 ] final  -14.42 input    0.00 | X-H torsion
[ 16474 7834 7833 7832 ] final -100.17 input    0.00 | X-H torsion
[ 16477 7877 7876 7875 ] final -158.91 input    0.00 | X-H torsion
[ 16486 7919 7918 7917 ] final  120.87 input    0.00 | X-H torsion
[ 16490 8466 8465 8464 ] final   47.42 input    0.00 | X-H torsion
[ 16495 2717 2716 2715 ] final  -11.14 input    0.00 | X-H torsion
[ 16498 5484 5483 5482 ] final  158.54 input    0.00 | X-H torsion
[ 16500 2120 2119 2118 ] final -114.55 input    0.00 | X-H torsion
[ 16505 2753 2752 2751 ] final  -21.97 input    0.00 | X-H torsion
[ 16507 5380 5379 5378 ] final  169.97 input    0.00 | X-H torsion
[ 16510 1701 1700 1699 ] final   47.36 input   -0.00 | X-H torsion
[ 16513 5589 5588 5587 ] final -174.91 input    0.00 | X-H torsion
[ 16515 2668 2667 2666 ] final  -71.71 input    0.00 | X-H torsion
[ 16517 5327 5326 5325 ] final   53.19 input   -0.00 | X-H torsion
[ 16520 5431 5430 5429 ] final   27.33 input    0.00 | X-H torsion
[ 16525 5532 5531 5530 ] final   38.70 input   -0.00 | X-H torsion
[ 16530 8033 8032 8031 ] final  148.41 input    0.00 | X-H torsion
[ 16534 8371 8370 8369 ] final  171.55 input    0.00 | X-H torsion
[ 16536 4570 4569 4568 ] final -103.85 input    0.00 | X-H torsion
[ 16539 4518 4517 4516 ] final -113.53 input    0.00 | X-H torsion
[ 16542 5228 5227 5226 ] final   97.64 input    0.00 | X-H torsion
[ 16544 5277 5276 5275 ] final -141.87 input    0.00 | X-H torsion
[ 16548 8418 8417 8416 ] final -150.85 input    0.00 | X-H torsion
[ 16551 2006 2005 2004 ] final   45.00 input    0.00 | X-H torsion
[ 16556 1821 1820 1819 ] final -155.20 input    0.00 | X-H torsion

> <Gold.Protein.ActiveResidues>
 THR48   LEU49   GLY50   THR51   GLY52   ARG56   VAL57   MET58   LEU59   TYR69  
 ALA70   MET71   LYS72   ILE73   GLU91   LEU95   VAL104  LYS105  LEU106  MET118 
 VAL119  MET120  GLU121  TYR122  VAL123  PRO124  GLY125  GLY126  GLU127  GLU170 
 ASN171  LEU172  LEU173  ILE174  ASP175  GLN181  VAL182  THR183  ASP184  PHE185 
 ASN326  PHE327  ASP328  TYR330 

> <Gold.Protein.RotatedAtoms>
    2.8870  -15.6995   20.1904 H   0  0  0  0  0  0  0  0  0  0  0  0  # atno 1772 bound_to 1742
    1.5959  -13.9975   21.7415 H   0  0  0  0  0  0  0  0  0  0  0  0  # atno 1801 bound_to 1791
   -1.5291  -13.4308   24.4477 H   0  0  0  0  0  0  0  0  0  0  0  0  # atno 1832 bound_to 1818
   -2.1656  -16.8675   27.0903 H   0  0  0  0  0  0  0  0  0  0  0  0  # atno 1861 bound_to 1854
    0.1222  -17.6916   22.7488 H   0  0  0  0  0  0  0  0  0  0  0  0  # atno 2090 bound_to 2067
    2.7041  -19.7066   20.8684 H   0  0  0  0  0  0  0  0  0  0  0  0  # atno 2143 bound_to 2117
    4.8559  -18.8435   17.9752 H   0  0  0  0  0  0  0  0  0  0  0  0  # atno 2197 bound_to 2168
    5.6725  -22.2499   12.0878 H   0  0  0  0  0  0  0  0  0  0  0  0  # atno 2686 bound_to 2665
    1.2124  -21.7142   13.1127 H   0  0  0  0  0  0  0  0  0  0  0  0  # atno 2728 bound_to 2714
    2.8596  -21.8667   16.8831 H   0  0  0  0  0  0  0  0  0  0  0  0  # atno 2776 bound_to 2750
   -0.3360  -24.0352   19.0602 H   0  0  0  0  0  0  0  0  0  0  0  0  # atno 2825 bound_to 2803
   -0.3678  -22.7743   23.3508 H   0  0  0  0  0  0  0  0  0  0  0  0  # atno 2878 bound_to 2867
   -9.1419  -21.6157   10.7882 H   0  0  0  0  0  0  0  0  0  0  0  0  # atno 4538 bound_to 4515
   -7.0056  -24.6850   10.5202 H   0  0  0  0  0  0  0  0  0  0  0  0  # atno 4602 bound_to 4567
   -0.3125  -28.2440   16.8349 H   0  0  0  0  0  0  0  0  0  0  0  0  # atno 5305 bound_to 5274
   -0.5514  -25.9033   14.8196 H   0  0  0  0  0  0  0  0  0  0  0  0  # atno 5343 bound_to 5324
   -0.7617  -24.4538   11.5620 H   0  0  0  0  0  0  0  0  0  0  0  0  # atno 5392 bound_to 5377
   -0.5444  -21.3441   10.3653 H   0  0  0  0  0  0  0  0  0  0  0  0  # atno 5456 bound_to 5428
    4.5256  -13.7473   11.7982 H   0  0  0  0  0  0  0  0  0  0  0  0  # atno 5464 bound_to 5439
   -1.2042  -18.0149   11.1290 H   0  0  0  0  0  0  0  0  0  0  0  0  # atno 5506 bound_to 5481
   -0.2480  -12.2577    9.2587 H   0  0  0  0  0  0  0  0  0  0  0  0  # atno 5575 bound_to 5565
   -1.8830  -10.3602   10.2745 H   0  0  0  0  0  0  0  0  0  0  0  0  # atno 5596 bound_to 5586
   -3.8837  -10.2856   14.2486 H   0  0  0  0  0  0  0  0  0  0  0  0  # atno 5638 bound_to 5617
  -10.5752  -12.3880   16.7745 H   0  0  0  0  0  0  0  0  0  0  0  0  # atno 7894 bound_to 7874
  -10.7707  -14.2311   15.5116 H   0  0  0  0  0  0  0  0  0  0  0  0  # atno 7946 bound_to 7916
   -8.8121  -15.0067   11.8751 H   0  0  0  0  0  0  0  0  0  0  0  0  # atno 8003 bound_to 7973
   -5.9699  -11.9735   10.2035 H   0  0  0  0  0  0  0  0  0  0  0  0  # atno 8060 bound_to 8030
   -9.4007  -18.8689   13.4737 H   0  0  0  0  0  0  0  0  0  0  0  0  # atno 8484 bound_to 8463
   -8.4558  -17.6691   16.7215 H   0  0  0  0  0  0  0  0  0  0  0  0  # atno 8490 bound_to 8469
   -9.2900  -21.3114   17.1578 H   0  0  0  0  0  0  0  0  0  0  0  0  # atno 8523 bound_to 8507
  -10.9562  -21.6868   19.5585 H   0  0  0  0  0  0  0  0  0  0  0  0  # atno 8578 bound_to 8549
    1.0709   -7.4132   17.1325 H   0  0  0  0  0  0  0  0  0  0  0  0  # atno 15411 bound_to 15403
   -2.1499  -10.6740   22.0498 H   0  0  0  0  0  0  0  0  0  0  0  0  # atno 15476 bound_to 15466
    3.8449  -14.2471   20.3793 LP  0  0  0  0  0  0  0  0  0  0  0  0  # atno 16458 bound_to 1742
   -0.9379  -12.6988   20.0901 LP  0  0  0  0  0  0  0  0  0  0  0  0  # atno 16459 bound_to 1745
   -0.2578  -13.0551   18.5375 LP  0  0  0  0  0  0  0  0  0  0  0  0  # atno 16460 bound_to 1745
    0.5792  -14.3751   20.3672 LP  0  0  0  0  0  0  0  0  0  0  0  0  # atno 16461 bound_to 1791
   -0.2601  -16.7124   23.6060 LP  0  0  0  0  0  0  0  0  0  0  0  0  # atno 16462 bound_to 1794
    1.2178  -15.8515   23.3325 LP  0  0  0  0  0  0  0  0  0  0  0  0  # atno 16463 bound_to 1794
   -0.3660  -14.5778   23.8218 LP  0  0  0  0  0  0  0  0  0  0  0  0  # atno 16464 bound_to 1818
    0.6670  -19.2756   23.2654 LP  0  0  0  0  0  0  0  0  0  0  0  0  # atno 16465 bound_to 2067
    1.4149  -16.5815   21.1196 LP  0  0  0  0  0  0  0  0  0  0  0  0  # atno 16466 bound_to 2070
    3.0649  -16.8606   20.6729 LP  0  0  0  0  0  0  0  0  0  0  0  0  # atno 16467 bound_to 2070
    1.8428  -19.0658   19.4860 LP  0  0  0  0  0  0  0  0  0  0  0  0  # atno 16468 bound_to 2117
   -4.3643   -9.9660   12.5949 LP  0  0  0  0  0  0  0  0  0  0  0  0  # atno 16469 bound_to 5617
   -7.4435  -12.9348   17.1469 LP  0  0  0  0  0  0  0  0  0  0  0  0  # atno 16474 bound_to 7834
   -7.6955  -13.1721   18.8440 LP  0  0  0  0  0  0  0  0  0  0  0  0  # atno 16475 bound_to 7834
   -9.8896  -12.6695   18.3534 LP  0  0  0  0  0  0  0  0  0  0  0  0  # atno 16476 bound_to 7874
  -10.1498  -16.0529   14.2782 LP  0  0  0  0  0  0  0  0  0  0  0  0  # atno 16477 bound_to 7877
  -10.6601  -16.5802   15.8472 LP  0  0  0  0  0  0  0  0  0  0  0  0  # atno 16478 bound_to 7877
   -9.6135  -12.9379   15.3144 LP  0  0  0  0  0  0  0  0  0  0  0  0  # atno 16479 bound_to 7916
   -8.1124  -17.2803   15.1789 LP  0  0  0  0  0  0  0  0  0  0  0  0  # atno 16480 bound_to 8469
   -6.9071  -17.4650   16.2650 LP  0  0  0  0  0  0  0  0  0  0  0  0  # atno 16481 bound_to 8469
   -1.3451  -10.2825   20.6909 LP  0  0  0  0  0  0  0  0  0  0  0  0  # atno 16484 bound_to 15466
   -1.7118   -9.1291   21.7871 LP  0  0  0  0  0  0  0  0  0  0  0  0  # atno 16485 bound_to 15466
   -7.7931  -11.8705   13.2827 LP  0  0  0  0  0  0  0  0  0  0  0  0  # atno 16486 bound_to 7919
   -9.2745  -11.3431   12.5567 LP  0  0  0  0  0  0  0  0  0  0  0  0  # atno 16487 bound_to 7919
   -8.7418  -13.5753   12.8705 LP  0  0  0  0  0  0  0  0  0  0  0  0  # atno 16488 bound_to 7973
  -10.7355  -18.6045   14.5761 LP  0  0  0  0  0  0  0  0  0  0  0  0  # atno 16489 bound_to 8463
  -11.5177  -18.7777   16.1889 LP  0  0  0  0  0  0  0  0  0  0  0  0  # atno 16490 bound_to 8466
  -10.8251  -18.2564   17.6884 LP  0  0  0  0  0  0  0  0  0  0  0  0  # atno 16491 bound_to 8466
   -9.0873  -19.5694   17.2840 LP  0  0  0  0  0  0  0  0  0  0  0  0  # atno 16492 bound_to 8507
   -0.2408  -22.9574   15.0082 LP  0  0  0  0  0  0  0  0  0  0  0  0  # atno 16495 bound_to 2717
    0.3427  -23.9283   16.3185 LP  0  0  0  0  0  0  0  0  0  0  0  0  # atno 16496 bound_to 2717
    0.8885  -22.8481   19.4668 LP  0  0  0  0  0  0  0  0  0  0  0  0  # atno 16497 bound_to 2803
   -0.4113  -13.9620   11.0334 LP  0  0  0  0  0  0  0  0  0  0  0  0  # atno 16498 bound_to 5484
   -1.8175  -14.9087   11.3891 LP  0  0  0  0  0  0  0  0  0  0  0  0  # atno 16499 bound_to 5484
    4.4207  -20.7327   16.9665 LP  0  0  0  0  0  0  0  0  0  0  0  0  # atno 16500 bound_to 2120
    2.7917  -20.2274   17.2681 LP  0  0  0  0  0  0  0  0  0  0  0  0  # atno 16501 bound_to 2120
    4.5502  -17.1951   17.4871 LP  0  0  0  0  0  0  0  0  0  0  0  0  # atno 16502 bound_to 2168
    2.8542  -21.8069   13.7039 LP  0  0  0  0  0  0  0  0  0  0  0  0  # atno 16503 bound_to 2714
    1.1102  -21.8382   16.8188 LP  0  0  0  0  0  0  0  0  0  0  0  0  # atno 16504 bound_to 2750
    2.9079  -22.0867   20.0813 LP  0  0  0  0  0  0  0  0  0  0  0  0  # atno 16505 bound_to 2753
    1.4263  -21.5745   20.8179 LP  0  0  0  0  0  0  0  0  0  0  0  0  # atno 16506 bound_to 2753
   -1.4471  -20.0812   11.6801 LP  0  0  0  0  0  0  0  0  0  0  0  0  # atno 16507 bound_to 5380
   -2.5762  -21.3338   11.2848 LP  0  0  0  0  0  0  0  0  0  0  0  0  # atno 16508 bound_to 5380
    0.1070  -17.9497    9.9720 LP  0  0  0  0  0  0  0  0  0  0  0  0  # atno 16509 bound_to 5481
    5.3411  -12.7237   19.8486 LP  0  0  0  0  0  0  0  0  0  0  0  0  # atno 16510 bound_to 1701
    3.7745  -12.2506   20.4161 LP  0  0  0  0  0  0  0  0  0  0  0  0  # atno 16511 bound_to 1701
   -2.2198  -12.0102   10.7466 LP  0  0  0  0  0  0  0  0  0  0  0  0  # atno 16512 bound_to 5586
   -5.8514  -10.9726   11.5490 LP  0  0  0  0  0  0  0  0  0  0  0  0  # atno 16513 bound_to 5589
   -4.4408  -11.3699   10.6257 LP  0  0  0  0  0  0  0  0  0  0  0  0  # atno 16514 bound_to 5589
    4.7243  -21.3181   14.6244 LP  0  0  0  0  0  0  0  0  0  0  0  0  # atno 16515 bound_to 2668
    4.0399  -19.8524   14.0055 LP  0  0  0  0  0  0  0  0  0  0  0  0  # atno 16516 bound_to 2668
    1.0325  -24.0225   12.7536 LP  0  0  0  0  0  0  0  0  0  0  0  0  # atno 16517 bound_to 5327
    0.4554  -22.4814   12.2134 LP  0  0  0  0  0  0  0  0  0  0  0  0  # atno 16518 bound_to 5327
    1.1695  -21.5781   10.1215 LP  0  0  0  0  0  0  0  0  0  0  0  0  # atno 16519 bound_to 5428
   -0.2829  -19.9538    8.2380 LP  0  0  0  0  0  0  0  0  0  0  0  0  # atno 16520 bound_to 5431
   -0.5275  -18.2828    7.8534 LP  0  0  0  0  0  0  0  0  0  0  0  0  # atno 16521 bound_to 5431
    3.0207  -13.4625   12.3474 LP  0  0  0  0  0  0  0  0  0  0  0  0  # atno 16522 bound_to 5439
    3.3785  -13.2177   10.7730 LP  0  0  0  0  0  0  0  0  0  0  0  0  # atno 16523 bound_to 5439
    1.8008  -11.3319    9.6165 LP  0  0  0  0  0  0  0  0  0  0  0  0  # atno 16525 bound_to 5532
    0.3206  -10.7681   10.3173 LP  0  0  0  0  0  0  0  0  0  0  0  0  # atno 16526 bound_to 5532
   -1.3557  -12.8839    8.0554 LP  0  0  0  0  0  0  0  0  0  0  0  0  # atno 16527 bound_to 5565
   -2.4041  -23.9043   11.3269 LP  0  0  0  0  0  0  0  0  0  0  0  0  # atno 16528 bound_to 5377
   -6.8899  -13.4306    9.8962 LP  0  0  0  0  0  0  0  0  0  0  0  0  # atno 16529 bound_to 8030
   -3.4170  -13.1590    7.6908 LP  0  0  0  0  0  0  0  0  0  0  0  0  # atno 16530 bound_to 8033
   -4.0162  -11.5777    8.0658 LP  0  0  0  0  0  0  0  0  0  0  0  0  # atno 16531 bound_to 8033
    4.8265  -21.2469   10.9305 LP  0  0  0  0  0  0  0  0  0  0  0  0  # atno 16532 bound_to 2665
   -0.0383  -24.2379   14.8026 LP  0  0  0  0  0  0  0  0  0  0  0  0  # atno 16533 bound_to 5324
   -9.8465  -16.7948   12.4670 LP  0  0  0  0  0  0  0  0  0  0  0  0  # atno 16534 bound_to 8371
   -8.6626  -16.2092   11.3465 LP  0  0  0  0  0  0  0  0  0  0  0  0  # atno 16535 bound_to 8371
   -3.1950  -25.8389   11.1587 LP  0  0  0  0  0  0  0  0  0  0  0  0  # atno 16536 bound_to 4570
   -4.4851  -24.9270   11.8686 LP  0  0  0  0  0  0  0  0  0  0  0  0  # atno 16537 bound_to 4570
   -9.5770  -23.2399   10.3249 LP  0  0  0  0  0  0  0  0  0  0  0  0  # atno 16538 bound_to 4515
   -7.7162  -25.7086   12.0488 LP  0  0  0  0  0  0  0  0  0  0  0  0  # atno 16539 bound_to 4518
   -9.0782  -25.2172   11.0982 LP  0  0  0  0  0  0  0  0  0  0  0  0  # atno 16540 bound_to 4518
   -6.1148  -24.2746    9.0630 LP  0  0  0  0  0  0  0  0  0  0  0  0  # atno 16541 bound_to 4567
    0.2212  -25.2589   18.7346 LP  0  0  0  0  0  0  0  0  0  0  0  0  # atno 16542 bound_to 5228
   -1.3534  -24.8514   18.1392 LP  0  0  0  0  0  0  0  0  0  0  0  0  # atno 16543 bound_to 5228
   -0.7937  -27.0801   13.0564 LP  0  0  0  0  0  0  0  0  0  0  0  0  # atno 16544 bound_to 5277
   -1.0803  -27.9992   14.4962 LP  0  0  0  0  0  0  0  0  0  0  0  0  # atno 16545 bound_to 5277
   -9.9047  -21.3985   13.6271 LP  0  0  0  0  0  0  0  0  0  0  0  0  # atno 16548 bound_to 8418
  -10.0570  -20.9397   11.9638 LP  0  0  0  0  0  0  0  0  0  0  0  0  # atno 16549 bound_to 8418
   -0.9075  -26.7679   17.5569 LP  0  0  0  0  0  0  0  0  0  0  0  0  # atno 16550 bound_to 5274
   -0.1711  -21.2975   23.9123 LP  0  0  0  0  0  0  0  0  0  0  0  0  # atno 16551 bound_to 2006
    1.0769  -21.1306   22.7230 LP  0  0  0  0  0  0  0  0  0  0  0  0  # atno 16552 bound_to 2006
  -10.1353  -23.0257   18.8015 LP  0  0  0  0  0  0  0  0  0  0  0  0  # atno 16555 bound_to 8549
   -3.7295  -13.7100   27.2413 LP  0  0  0  0  0  0  0  0  0  0  0  0  # atno 16556 bound_to 1821
   -2.9471  -13.2463   25.7673 LP  0  0  0  0  0  0  0  0  0  0  0  0  # atno 16557 bound_to 1821
   -2.6470  -15.2544   26.5938 LP  0  0  0  0  0  0  0  0  0  0  0  0  # atno 16558 bound_to 1854

> <Gold.Score>
     Fitness  S(hb_ext) S(vdw_ext)  S(hb_int)    S(int)      intcor
     31.11       6.89      18.44       0.00      -1.13      -0.76

> <Gold.Goldscore.Fitness>
31.1141

> <Gold.Goldscore.Internal.Vdw>
-1.4303

> <Gold.Goldscore.Internal.Torsion>
-0.4688

> <Gold.Goldscore.External.Vdw>
18.4404

> <Gold.Goldscore.Internal.HBond>
0.0000

> <Gold.Goldscore.External.HBond>
6.8926

> <Gold.Goldscore.Internal.Correction>
-0.7650

> <Gold.Goldscore.Hbonds>
donor molecule, donor type, donor heavy atom, donor atom, acceptor molecule, acceptor atom, score
      P1  H  7880  7898       L1    17  0.45
      L1  H     8    22       P1  7881  1.00

> <Gold.Goldscore.Internal.Vdw.Weighted>
-1.4303

> <Gold.Goldscore.Internal.Torsion.Weighted>
-0.4688

> <Gold.Goldscore.External.Vdw.Weighted>
25.3556

> <Gold.Goldscore.Internal.HBond.Weighted>
0.0000

> <Gold.Goldscore.External.HBond.Weighted>
6.8926

> <Gold.Goldscore.Internal.Correction.Weighted>
-0.7650

> <Gold.Rescore>
     Score     S(PLP)   S(hbond)     S(cho)   S(metal)  DE(clash)   DE(tors)     intcor
     26.30     -22.38       1.84       0.00       0.00       0.68       0.47       ----

> <Gold.PLP.Fitness>
26.3036

> <Gold.PLP.PLP>
-22.3842

> <Gold.PLP.part.hbond>
-3.2301

> <Gold.PLP.part.metal>
0.0000

> <Gold.PLP.part.buried>
-1.5059

> <Gold.PLP.part.nonpolar>
-18.6590

> <Gold.PLP.part.repulsive>
0.7201

> <Gold.PLP.ligand.clash>
0.6785

> <Gold.PLP.ligand.torsion>
0.4685

> <Gold.PLP.Chemscore.Hbond>
1.8450

> <Gold.PLP.Chemscore.CHOScore>
0.0000

> <Gold.PLP.Chemscore.Metal>
0.0000

> <Gold.Chemscore.Hbonds>
donor molecule, donor type, donor heavy atom, donor atom, acceptor molecule, acceptor atom, score
      L1  H     8    22       P1  7881  1.00
      P1  H  7880  7898       L1    17  0.37

> <Gold.PLP.Chemscore.Internal.Correction>
   9.000000E+99

