#       Name:                CT1002167954
#       Creating user name   hitesit
#       Creation time:       Sun Apr 16 20:16:38 2023


#       File generated by GOLD software.
#

@<TRIPOS>MOLECULE
CT1002167954|ligand_prepared|mol2|1|dock10
    29    30     1
SMALL
NO_CHARGES


@<TRIPOS>ATOM
      1 C1          -4.9305 -15.0150  21.5439 C.3            1 RES1               0.0000
      2 C2          -4.6688 -16.2653  22.4083 C.ar           1 RES1               0.0000
      3 C3          -4.1883 -15.2397  20.2298 C.2            1 RES1               0.0000
      4 C4          -6.4441 -14.9097  21.3934 C.2            1 RES1               0.0000
      5 C5          -4.4207 -13.6996  22.1773 C.3            1 RES1               0.0000
      6 C6          -5.6088 -17.2893  22.4763 C.ar           1 RES1               0.0000
      7 C7          -3.4931 -16.4099  23.1400 C.ar           1 RES1               0.0000
      8 N8          -4.9326 -15.5391  19.1270 N.am           1 RES1               0.0000
      9 O9          -2.9658 -15.1939  20.1705 O.2            1 RES1               0.0000
     10 N10         -6.9780 -15.0748  20.1423 N.am           1 RES1               0.0000
     11 O11         -7.1806 -14.7017  22.3498 O.2            1 RES1               0.0000
     12 C12         -4.9796 -12.4465  21.5219 C.3            1 RES1               0.0000
     13 C13         -5.3805 -18.4183  23.2454 C.ar           1 RES1               0.0000
     14 C14         -3.2668 -17.5397  23.9087 C.ar           1 RES1               0.0000
     15 C15         -6.2935 -15.4152  19.0074 C.2            1 RES1               0.0000
     16 C16         -4.2093 -18.5445  23.9617 C.ar           1 RES1               0.0000
     17 O17         -6.8513 -15.5996  17.9294 O.2            1 RES1               0.0000
     18 H18         -4.6901 -13.6921  23.2407 H              1 RES1               0.0000
     19 H19         -3.3261 -13.6757  22.1086 H              1 RES1               0.0000
     20 H20         -6.5374 -17.2065  21.9214 H              1 RES1               0.0000
     21 H21         -2.7379 -15.6316  23.1142 H              1 RES1               0.0000
     22 H22         -4.4310 -15.8875  18.3162 H              1 RES1               0.0000
     23 H23         -7.9783 -14.9304  20.0481 H              1 RES1               0.0000
     24 H24         -4.5901 -11.5525  22.0042 H              1 RES1               0.0000
     25 H25         -4.7091 -12.4087  20.4687 H              1 RES1               0.0000
     26 H26         -6.0650 -12.4250  21.5941 H              1 RES1               0.0000
     27 H27         -6.1260 -19.2056  23.2848 H              1 RES1               0.0000
     28 H28         -2.3439 -17.6345  24.4713 H              1 RES1               0.0000
     29 H29         -4.0305 -19.4292  24.5638 H              1 RES1               0.0000
@<TRIPOS>BOND
    1    1    2 1     
    2    1    3 1     
    3    1    4 1     
    4    1    5 1     
    5    2    6 ar    
    6    2    7 ar    
    7    3    8 1     
    8    3    9 2     
    9    4   10 1     
   10    4   11 2     
   11    5   12 1     
   12    5   18 1     
   13    5   19 1     
   14    6   13 ar    
   15    6   20 1     
   16    7   14 ar    
   17    7   21 1     
   18    8   15 1     
   19    8   22 1     
   20   10   15 1     
   21   10   23 1     
   22   12   24 1     
   23   12   25 1     
   24   12   26 1     
   25   13   16 ar    
   26   13   27 1     
   27   14   16 ar    
   28   14   28 1     
   29   15   17 2     
   30   16   29 1     
@<TRIPOS>SUBSTRUCTURE
      1 RES1           1
@<TRIPOS>SET
DONOR_HYDROGENS      STATIC     ATOMS    <user>   **** ""
2 22 23
ATOM$RED        STATIC     ATOMS    COLORGROUP SYSTEM
2 22 23
@<TRIPOS>COMMENT
> <Gold.Version>
2022.3.0

> <Gold.Id.Protein>
unknown|3mvj_clean|pdb

> <Gold.Protein.RotatedTorsions>
[ 1772 1742 1743 1744 ] final   31.44 input   69.76 | X-H torsion
[ 1801 1791 1792 1793 ] final -140.65 input  -10.55 | X-H torsion
[ 1832 1818 1819 1820 ] final -126.86 input   43.70 | X-H torsion
[ 2090 2067 2068 2069 ] final -147.74 input   63.04 | X-H torsion
[ 2143 2117 2118 2119 ] final  112.29 input   55.90 | X-H torsion
[ 5638 5617 5618 5619 ] final -124.76 input   93.34 | X-H torsion
[ 7894 7874 7875 7876 ] final   77.31 input   68.03 | X-H torsion
[ 7946 7916 7917 7918 ] final  -56.28 input   66.66 | X-H torsion
[ 8490 8469 8467 8464 ] final   -5.27 input   59.99 | X-H torsion
[ 15476 15466 15465 15463 ] final  -34.75 input   60.00 | X-H torsion
[ 8003 7973 7974 7975 ] final  -62.82 input   84.71 | X-H torsion
[ 8484 8463 8464 8465 ] final  110.99 input   59.21 | X-H torsion
[ 8523 8507 8508 8509 ] final  126.35 input -104.23 | X-H torsion
[ 2825 2803 2804 2805 ] final  -31.86 input  103.27 | X-H torsion
[ 2197 2168 2169 2170 ] final  -66.30 input  106.62 | X-H torsion
[ 2728 2714 2715 2716 ] final  -60.21 input   74.66 | X-H torsion
[ 2776 2750 2751 2752 ] final  -75.01 input   68.39 | X-H torsion
[ 5506 5481 5482 5483 ] final  146.40 input   57.83 | X-H torsion
[ 5596 5586 5587 5588 ] final   80.01 input -104.43 | X-H torsion
[ 5456 5428 5429 5430 ] final -140.10 input  113.20 | X-H torsion
[ 5464 5439 5438 5436 ] final  169.54 input   59.99 | X-H torsion
[ 5575 5565 5566 5567 ] final  -43.21 input  101.53 | X-H torsion
[ 5392 5377 5378 5379 ] final  -92.04 input  130.34 | X-H torsion
[ 8060 8030 8031 8032 ] final -159.10 input   72.86 | X-H torsion
[ 2686 2665 2666 2667 ] final   18.05 input   26.41 | X-H torsion
[ 5343 5324 5325 5326 ] final   99.02 input   62.58 | X-H torsion
[ 4538 4515 4516 4517 ] final  168.19 input  130.34 | X-H torsion
[ 4602 4567 4568 4569 ] final  -50.08 input  104.80 | X-H torsion
[ 5305 5274 5275 5276 ] final   -4.17 input   71.10 | X-H torsion
[ 8578 8549 8550 8551 ] final  -57.20 input   74.91 | X-H torsion
[ 1861 1854 1855 1856 ] final  -70.60 input   57.50 | X-H torsion
[ 15411 15403 15404 15405 ] final -162.41 input  102.24 | X-H torsion
[ 2878 2867 2868 2869 ] final  -77.75 input   60.34 | X-H torsion
[ 16459 1745 1744 1743 ] final   69.72 input    0.00 | X-H torsion
[ 16462 1794 1793 1792 ] final  -84.95 input   -0.00 | X-H torsion
[ 16466 2070 2069 2068 ] final   72.96 input    0.00 | X-H torsion
[ 16474 7834 7833 7832 ] final  -17.27 input    0.00 | X-H torsion
[ 16477 7877 7876 7875 ] final -122.80 input    0.00 | X-H torsion
[ 16486 7919 7918 7917 ] final -110.23 input    0.00 | X-H torsion
[ 16490 8466 8465 8464 ] final  -18.64 input    0.00 | X-H torsion
[ 16495 2717 2716 2715 ] final -136.75 input    0.00 | X-H torsion
[ 16498 5484 5483 5482 ] final   39.03 input    0.00 | X-H torsion
[ 16500 2120 2119 2118 ] final   44.70 input    0.00 | X-H torsion
[ 16505 2753 2752 2751 ] final   35.55 input    0.00 | X-H torsion
[ 16507 5380 5379 5378 ] final  -66.21 input    0.00 | X-H torsion
[ 16510 1701 1700 1699 ] final   34.91 input   -0.00 | X-H torsion
[ 16513 5589 5588 5587 ] final   88.61 input    0.00 | X-H torsion
[ 16515 2668 2667 2666 ] final  -66.06 input    0.00 | X-H torsion
[ 16517 5327 5326 5325 ] final -162.19 input   -0.00 | X-H torsion
[ 16520 5431 5430 5429 ] final  171.00 input    0.00 | X-H torsion
[ 16525 5532 5531 5530 ] final  120.88 input   -0.00 | X-H torsion
[ 16530 8033 8032 8031 ] final   93.92 input    0.00 | X-H torsion
[ 16534 8371 8370 8369 ] final  -11.75 input    0.00 | X-H torsion
[ 16536 4570 4569 4568 ] final  -18.79 input    0.00 | X-H torsion
[ 16539 4518 4517 4516 ] final  -68.39 input    0.00 | X-H torsion
[ 16542 5228 5227 5226 ] final  -40.46 input    0.00 | X-H torsion
[ 16544 5277 5276 5275 ] final  -62.30 input    0.00 | X-H torsion
[ 16548 8418 8417 8416 ] final  -45.94 input    0.00 | X-H torsion
[ 16551 2006 2005 2004 ] final  -58.10 input    0.00 | X-H torsion
[ 16556 1821 1820 1819 ] final  -56.99 input    0.00 | X-H torsion

> <Gold.Protein.ActiveResidues>
 THR48   LEU49   GLY50   THR51   GLY52   ARG56   VAL57   MET58   LEU59   TYR69  
 ALA70   MET71   LYS72   ILE73   GLU91   LEU95   VAL104  LYS105  LEU106  MET118 
 VAL119  MET120  GLU121  TYR122  VAL123  PRO124  GLY125  GLY126  GLU127  GLU170 
 ASN171  LEU172  LEU173  ILE174  ASP175  GLN181  VAL182  THR183  ASP184  PHE185 
 ASN326  PHE327  ASP328  TYR330 

> <Gold.Protein.RotatedAtoms>
    2.7306  -15.3887   20.7275 H   0  0  0  0  0  0  0  0  0  0  0  0  # atno 1772 bound_to 1742
    1.0377  -13.3230   20.8424 H   0  0  0  0  0  0  0  0  0  0  0  0  # atno 1801 bound_to 1791
   -0.6569  -14.7457   23.7178 H   0  0  0  0  0  0  0  0  0  0  0  0  # atno 1832 bound_to 1818
   -2.1051  -15.3561   27.3295 H   0  0  0  0  0  0  0  0  0  0  0  0  # atno 1861 bound_to 1854
   -0.0173  -19.2771   23.1629 H   0  0  0  0  0  0  0  0  0  0  0  0  # atno 2090 bound_to 2067
    2.7011  -19.9987   20.6357 H   0  0  0  0  0  0  0  0  0  0  0  0  # atno 2143 bound_to 2117
    4.4627  -18.8570   17.7981 H   0  0  0  0  0  0  0  0  0  0  0  0  # atno 2197 bound_to 2168
    5.4356  -21.3291   12.2633 H   0  0  0  0  0  0  0  0  0  0  0  0  # atno 2686 bound_to 2665
    2.7371  -22.1373   13.8081 H   0  0  0  0  0  0  0  0  0  0  0  0  # atno 2728 bound_to 2714
    1.0955  -21.9518   16.7173 H   0  0  0  0  0  0  0  0  0  0  0  0  # atno 2776 bound_to 2750
    1.0256  -23.6351   19.7334 H   0  0  0  0  0  0  0  0  0  0  0  0  # atno 2825 bound_to 2803
   -0.4718  -23.8690   22.6329 H   0  0  0  0  0  0  0  0  0  0  0  0  # atno 2878 bound_to 2867
   -9.1383  -21.6049   10.7424 H   0  0  0  0  0  0  0  0  0  0  0  0  # atno 4538 bound_to 4515
   -6.7994  -24.6137   10.6269 H   0  0  0  0  0  0  0  0  0  0  0  0  # atno 4602 bound_to 4567
   -1.2941  -27.4394   16.6394 H   0  0  0  0  0  0  0  0  0  0  0  0  # atno 5305 bound_to 5274
   -0.5963  -24.3823   15.2630 H   0  0  0  0  0  0  0  0  0  0  0  0  # atno 5343 bound_to 5324
   -0.7532  -24.3918   11.6179 H   0  0  0  0  0  0  0  0  0  0  0  0  # atno 5392 bound_to 5377
    0.3332  -21.6499   11.1046 H   0  0  0  0  0  0  0  0  0  0  0  0  # atno 5456 bound_to 5428
    4.3011  -13.5095   10.9745 H   0  0  0  0  0  0  0  0  0  0  0  0  # atno 5464 bound_to 5439
   -1.2865  -18.4414   10.6794 H   0  0  0  0  0  0  0  0  0  0  0  0  # atno 5506 bound_to 5481
   -0.4358  -12.3498    9.4220 H   0  0  0  0  0  0  0  0  0  0  0  0  # atno 5575 bound_to 5565
   -2.2617  -10.4085   10.1652 H   0  0  0  0  0  0  0  0  0  0  0  0  # atno 5596 bound_to 5586
   -4.1677  -10.9374   13.0452 H   0  0  0  0  0  0  0  0  0  0  0  0  # atno 5638 bound_to 5617
  -11.1020  -12.6038   17.5039 H   0  0  0  0  0  0  0  0  0  0  0  0  # atno 7894 bound_to 7874
   -9.4601  -14.0786   15.3922 H   0  0  0  0  0  0  0  0  0  0  0  0  # atno 7946 bound_to 7916
   -9.1023  -13.4882   12.2052 H   0  0  0  0  0  0  0  0  0  0  0  0  # atno 8003 bound_to 7973
   -7.3071  -12.5390   10.1071 H   0  0  0  0  0  0  0  0  0  0  0  0  # atno 8060 bound_to 8030
   -9.4088  -18.1483   14.0221 H   0  0  0  0  0  0  0  0  0  0  0  0  # atno 8484 bound_to 8463
   -8.7483  -17.4903   15.8928 H   0  0  0  0  0  0  0  0  0  0  0  0  # atno 8490 bound_to 8469
   -9.1665  -19.5156   17.3259 H   0  0  0  0  0  0  0  0  0  0  0  0  # atno 8523 bound_to 8507
  -10.8427  -21.7889   19.7717 H   0  0  0  0  0  0  0  0  0  0  0  0  # atno 8578 bound_to 8549
    0.7570   -7.4853   17.3059 H   0  0  0  0  0  0  0  0  0  0  0  0  # atno 15411 bound_to 15403
   -1.2733   -9.6537   20.7895 H   0  0  0  0  0  0  0  0  0  0  0  0  # atno 15476 bound_to 15466
    3.9963  -14.5479   19.8594 LP  0  0  0  0  0  0  0  0  0  0  0  0  # atno 16458 bound_to 1742
   -0.7357  -13.5709   18.8144 LP  0  0  0  0  0  0  0  0  0  0  0  0  # atno 16459 bound_to 1745
   -0.4600  -12.1830   19.8132 LP  0  0  0  0  0  0  0  0  0  0  0  0  # atno 16460 bound_to 1745
    1.1186  -15.0269   21.2360 LP  0  0  0  0  0  0  0  0  0  0  0  0  # atno 16461 bound_to 1791
   -0.2287  -16.6953   23.1890 LP  0  0  0  0  0  0  0  0  0  0  0  0  # atno 16462 bound_to 1794
    1.1864  -15.8686   23.7495 LP  0  0  0  0  0  0  0  0  0  0  0  0  # atno 16463 bound_to 1794
   -1.2134  -13.3002   24.5310 LP  0  0  0  0  0  0  0  0  0  0  0  0  # atno 16464 bound_to 1818
    0.8008  -17.7551   22.8683 LP  0  0  0  0  0  0  0  0  0  0  0  0  # atno 16465 bound_to 2067
    2.3959  -16.8896   21.7313 LP  0  0  0  0  0  0  0  0  0  0  0  0  # atno 16466 bound_to 2070
    2.0839  -16.5524   20.0613 LP  0  0  0  0  0  0  0  0  0  0  0  0  # atno 16467 bound_to 2070
    1.8457  -18.7833   19.7112 LP  0  0  0  0  0  0  0  0  0  0  0  0  # atno 16468 bound_to 2117
   -4.0905   -9.3378   13.7546 LP  0  0  0  0  0  0  0  0  0  0  0  0  # atno 16469 bound_to 5617
   -7.2066  -12.2691   18.0498 LP  0  0  0  0  0  0  0  0  0  0  0  0  # atno 16474 bound_to 7834
   -7.9324  -13.8379   17.9412 LP  0  0  0  0  0  0  0  0  0  0  0  0  # atno 16475 bound_to 7834
   -9.3688  -12.4562   17.6323 LP  0  0  0  0  0  0  0  0  0  0  0  0  # atno 16476 bound_to 7874
   -9.7148  -16.2108   14.5504 LP  0  0  0  0  0  0  0  0  0  0  0  0  # atno 16477 bound_to 7877
  -11.0952  -16.4222   15.5750 LP  0  0  0  0  0  0  0  0  0  0  0  0  # atno 16478 bound_to 7877
  -10.8977  -13.0874   15.4313 LP  0  0  0  0  0  0  0  0  0  0  0  0  # atno 16479 bound_to 7916
   -7.2275  -17.2691   15.3574 LP  0  0  0  0  0  0  0  0  0  0  0  0  # atno 16480 bound_to 8469
   -7.4975  -17.6562   16.9207 LP  0  0  0  0  0  0  0  0  0  0  0  0  # atno 16481 bound_to 8469
   -2.0175   -9.4848   22.2266 LP  0  0  0  0  0  0  0  0  0  0  0  0  # atno 16484 bound_to 15466
   -1.9223  -10.9543   21.5209 LP  0  0  0  0  0  0  0  0  0  0  0  0  # atno 16485 bound_to 15466
   -8.7155  -11.4843   12.0818 LP  0  0  0  0  0  0  0  0  0  0  0  0  # atno 16486 bound_to 7919
   -8.3521  -11.7293   13.7575 LP  0  0  0  0  0  0  0  0  0  0  0  0  # atno 16487 bound_to 7919
   -8.4557  -15.0728   12.5450 LP  0  0  0  0  0  0  0  0  0  0  0  0  # atno 16488 bound_to 7973
  -10.7277  -19.3000   14.0468 LP  0  0  0  0  0  0  0  0  0  0  0  0  # atno 16489 bound_to 8463
  -10.8936  -18.0719   16.2497 LP  0  0  0  0  0  0  0  0  0  0  0  0  # atno 16490 bound_to 8466
  -11.4493  -18.9622   17.6276 LP  0  0  0  0  0  0  0  0  0  0  0  0  # atno 16491 bound_to 8466
   -9.2037  -21.2620   17.1256 LP  0  0  0  0  0  0  0  0  0  0  0  0  # atno 16492 bound_to 8507
   -0.2477  -23.4251   16.4760 LP  0  0  0  0  0  0  0  0  0  0  0  0  # atno 16495 bound_to 2717
    0.3496  -23.4606   14.8507 LP  0  0  0  0  0  0  0  0  0  0  0  0  # atno 16496 bound_to 2717
   -0.4164  -23.2316   18.8216 LP  0  0  0  0  0  0  0  0  0  0  0  0  # atno 16497 bound_to 2803
   -1.0285  -15.1819   11.6418 LP  0  0  0  0  0  0  0  0  0  0  0  0  # atno 16498 bound_to 5484
   -1.2003  -13.6889   10.7807 LP  0  0  0  0  0  0  0  0  0  0  0  0  # atno 16499 bound_to 5484
    2.8480  -20.3928   17.5266 LP  0  0  0  0  0  0  0  0  0  0  0  0  # atno 16500 bound_to 2120
    4.3644  -20.5674   16.7081 LP  0  0  0  0  0  0  0  0  0  0  0  0  # atno 16501 bound_to 2120
    4.9361  -17.1818   17.6609 LP  0  0  0  0  0  0  0  0  0  0  0  0  # atno 16502 bound_to 2168
    1.3640  -21.3933   13.0241 LP  0  0  0  0  0  0  0  0  0  0  0  0  # atno 16503 bound_to 2714
    2.8156  -21.7560   16.9791 LP  0  0  0  0  0  0  0  0  0  0  0  0  # atno 16504 bound_to 2750
    2.4996  -21.4389   19.7524 LP  0  0  0  0  0  0  0  0  0  0  0  0  # atno 16505 bound_to 2753
    1.8346  -22.2223   21.1468 LP  0  0  0  0  0  0  0  0  0  0  0  0  # atno 16506 bound_to 2753
   -2.5189  -20.6953   10.7806 LP  0  0  0  0  0  0  0  0  0  0  0  0  # atno 16507 bound_to 5380
   -1.5044  -20.7197   12.1843 LP  0  0  0  0  0  0  0  0  0  0  0  0  # atno 16508 bound_to 5380
    0.1866  -17.5369   10.4073 LP  0  0  0  0  0  0  0  0  0  0  0  0  # atno 16509 bound_to 5481
    5.3905  -12.7012   20.0285 LP  0  0  0  0  0  0  0  0  0  0  0  0  # atno 16510 bound_to 1701
    3.7251  -12.2731   20.2362 LP  0  0  0  0  0  0  0  0  0  0  0  0  # atno 16511 bound_to 1701
   -1.8512  -11.9632   10.8530 LP  0  0  0  0  0  0  0  0  0  0  0  0  # atno 16512 bound_to 5586
   -5.0706  -11.9863   11.3702 LP  0  0  0  0  0  0  0  0  0  0  0  0  # atno 16513 bound_to 5589
   -5.2216  -10.3562   10.8045 LP  0  0  0  0  0  0  0  0  0  0  0  0  # atno 16514 bound_to 5589
    4.7735  -21.3196   14.5547 LP  0  0  0  0  0  0  0  0  0  0  0  0  # atno 16515 bound_to 2668
    3.9906  -19.8509   14.0752 LP  0  0  0  0  0  0  0  0  0  0  0  0  # atno 16516 bound_to 2668
    0.6326  -22.7424   11.7921 LP  0  0  0  0  0  0  0  0  0  0  0  0  # atno 16517 bound_to 5327
    0.8553  -23.7614   13.1749 LP  0  0  0  0  0  0  0  0  0  0  0  0  # atno 16518 bound_to 5327
    0.3102  -21.2788    9.3977 LP  0  0  0  0  0  0  0  0  0  0  0  0  # atno 16519 bound_to 5428
   -1.0083  -18.5022    7.9636 LP  0  0  0  0  0  0  0  0  0  0  0  0  # atno 16520 bound_to 5431
    0.1980  -19.7343    8.1277 LP  0  0  0  0  0  0  0  0  0  0  0  0  # atno 16521 bound_to 5431
    3.8559  -13.7233   12.5248 LP  0  0  0  0  0  0  0  0  0  0  0  0  # atno 16522 bound_to 5439
    2.7695  -13.1963   11.4254 LP  0  0  0  0  0  0  0  0  0  0  0  0  # atno 16523 bound_to 5439
    1.0454  -10.5625    9.2513 LP  0  0  0  0  0  0  0  0  0  0  0  0  # atno 16525 bound_to 5532
    1.0761  -11.5375   10.6825 LP  0  0  0  0  0  0  0  0  0  0  0  0  # atno 16526 bound_to 5532
   -1.1746  -12.7950    7.8979 LP  0  0  0  0  0  0  0  0  0  0  0  0  # atno 16527 bound_to 5565
   -2.4124  -23.9648   11.2724 LP  0  0  0  0  0  0  0  0  0  0  0  0  # atno 16528 bound_to 5377
   -5.5948  -12.8828    9.9897 LP  0  0  0  0  0  0  0  0  0  0  0  0  # atno 16529 bound_to 8030
   -3.6622  -13.0306    8.4337 LP  0  0  0  0  0  0  0  0  0  0  0  0  # atno 16530 bound_to 8033
   -3.7710  -11.7062    7.3228 LP  0  0  0  0  0  0  0  0  0  0  0  0  # atno 16531 bound_to 8033
    5.0563  -22.1401   10.7602 LP  0  0  0  0  0  0  0  0  0  0  0  0  # atno 16532 bound_to 2665
    0.0062  -25.7474   14.3626 LP  0  0  0  0  0  0  0  0  0  0  0  0  # atno 16533 bound_to 5324
   -8.6300  -16.2411   11.3665 LP  0  0  0  0  0  0  0  0  0  0  0  0  # atno 16534 bound_to 8371
   -9.8791  -16.7629   12.4470 LP  0  0  0  0  0  0  0  0  0  0  0  0  # atno 16535 bound_to 8371
   -3.8808  -24.9844   10.7458 LP  0  0  0  0  0  0  0  0  0  0  0  0  # atno 16536 bound_to 4570
   -3.7994  -25.7815   12.2814 LP  0  0  0  0  0  0  0  0  0  0  0  0  # atno 16537 bound_to 4570
   -9.5805  -23.2505   10.3701 LP  0  0  0  0  0  0  0  0  0  0  0  0  # atno 16538 bound_to 4515
   -8.0060  -25.1583   12.2835 LP  0  0  0  0  0  0  0  0  0  0  0  0  # atno 16539 bound_to 4518
   -8.7884  -25.7675   10.8634 LP  0  0  0  0  0  0  0  0  0  0  0  0  # atno 16540 bound_to 4518
   -6.3102  -24.3421    8.9619 LP  0  0  0  0  0  0  0  0  0  0  0  0  # atno 16541 bound_to 4567
   -1.3774  -25.0117   18.7368 LP  0  0  0  0  0  0  0  0  0  0  0  0  # atno 16542 bound_to 5228
    0.2452  -25.0985   18.1369 LP  0  0  0  0  0  0  0  0  0  0  0  0  # atno 16543 bound_to 5228
   -0.1220  -27.7738   13.6006 LP  0  0  0  0  0  0  0  0  0  0  0  0  # atno 16544 bound_to 5277
   -1.7520  -27.3055   13.9521 LP  0  0  0  0  0  0  0  0  0  0  0  0  # atno 16545 bound_to 5277
  -10.8190  -21.2818   12.6090 LP  0  0  0  0  0  0  0  0  0  0  0  0  # atno 16548 bound_to 8418
   -9.1427  -21.0565   12.9819 LP  0  0  0  0  0  0  0  0  0  0  0  0  # atno 16549 bound_to 8418
    0.0519  -27.5542   17.7480 LP  0  0  0  0  0  0  0  0  0  0  0  0  # atno 16550 bound_to 5274
    1.1791  -21.2629   23.7869 LP  0  0  0  0  0  0  0  0  0  0  0  0  # atno 16551 bound_to 2006
   -0.2733  -21.1652   22.8483 LP  0  0  0  0  0  0  0  0  0  0  0  0  # atno 16552 bound_to 2006
  -10.2477  -22.9247   18.5904 LP  0  0  0  0  0  0  0  0  0  0  0  0  # atno 16555 bound_to 8549
   -2.6715  -13.0462   26.8489 LP  0  0  0  0  0  0  0  0  0  0  0  0  # atno 16556 bound_to 1821
   -4.0051  -13.9102   26.1597 LP  0  0  0  0  0  0  0  0  0  0  0  0  # atno 16557 bound_to 1821
   -2.7047  -16.6948   26.3658 LP  0  0  0  0  0  0  0  0  0  0  0  0  # atno 16558 bound_to 1854

> <Gold.Score>
     Fitness  S(hb_ext) S(vdw_ext)  S(hb_int)    S(int)      intcor
     34.39       6.00      21.48       0.00      -1.15      -0.76

> <Gold.Goldscore.Fitness>
34.3947

> <Gold.Goldscore.Internal.Vdw>
-1.2080

> <Gold.Goldscore.Internal.Torsion>
-0.7022

> <Gold.Goldscore.External.Vdw>
21.4837

> <Gold.Goldscore.Internal.HBond>
0.0000

> <Gold.Goldscore.External.HBond>
6.0000

> <Gold.Goldscore.Internal.Correction>
-0.7650

> <Gold.Goldscore.Hbonds>
donor molecule, donor type, donor heavy atom, donor atom, acceptor molecule, acceptor atom, score
      L1  H    10    23       P1  7881  1.00

> <Gold.Goldscore.Internal.Vdw.Weighted>
-1.2080

> <Gold.Goldscore.Internal.Torsion.Weighted>
-0.7022

> <Gold.Goldscore.External.Vdw.Weighted>
29.5400

> <Gold.Goldscore.Internal.HBond.Weighted>
0.0000

> <Gold.Goldscore.External.HBond.Weighted>
6.0000

> <Gold.Goldscore.Internal.Correction.Weighted>
-0.7650

> <Gold.Rescore>
     Score     S(PLP)   S(hbond)     S(cho)   S(metal)  DE(clash)   DE(tors)     intcor
     37.07     -36.49       1.00       0.00       0.00       1.47       0.48       ----

> <Gold.PLP.Fitness>
37.0697

> <Gold.PLP.PLP>
-36.4949

> <Gold.PLP.part.hbond>
-2.0665

> <Gold.PLP.part.metal>
0.0000

> <Gold.PLP.part.buried>
-7.0471

> <Gold.PLP.part.nonpolar>
-28.1246

> <Gold.PLP.part.repulsive>
0.4884

> <Gold.PLP.ligand.clash>
1.4728

> <Gold.PLP.ligand.torsion>
0.4762

> <Gold.PLP.Chemscore.Hbond>
1.0000

> <Gold.PLP.Chemscore.CHOScore>
0.0000

> <Gold.PLP.Chemscore.Metal>
0.0000

> <Gold.Chemscore.Hbonds>
donor molecule, donor type, donor heavy atom, donor atom, acceptor molecule, acceptor atom, score
      L1  H    10    23       P1  7881  1.00

> <Gold.PLP.Chemscore.Internal.Correction>
   9.000000E+99

