#       Name:                CT1002167954
#       Creating user name   hitesit
#       Creation time:       Sun Apr 16 20:16:32 2023


#       File generated by GOLD software.
#

@<TRIPOS>MOLECULE
CT1002167954|ligand_prepared|mol2|1|dock6
    29    30     1
SMALL
NO_CHARGES


@<TRIPOS>ATOM
      1 C1          -5.4293 -17.2924  19.7131 C.3            1 RES1               0.0000
      2 C2          -4.2508 -16.4568  19.1732 C.ar           1 RES1               0.0000
      3 C3          -5.2267 -17.3940  21.2221 C.2            1 RES1               0.0000
      4 C4          -6.6988 -16.5537  19.3042 C.2            1 RES1               0.0000
      5 C5          -5.5000 -18.7229  19.1297 C.3            1 RES1               0.0000
      6 C6          -3.5589 -16.8601  18.0350 C.ar           1 RES1               0.0000
      7 C7          -3.8463 -15.2810  19.7997 C.ar           1 RES1               0.0000
      8 N8          -6.0445 -16.6504  22.0208 N.am           1 RES1               0.0000
      9 O9          -4.3370 -18.0855  21.7022 O.2            1 RES1               0.0000
     10 N10         -7.4811 -16.0236  20.2966 N.am           1 RES1               0.0000
     11 O11         -7.0201 -16.4114  18.1308 O.2            1 RES1               0.0000
     12 C12         -6.5898 -19.5842  19.7483 C.3            1 RES1               0.0000
     13 C13         -2.5028 -16.1136  17.5394 C.ar           1 RES1               0.0000
     14 C14         -2.7897 -14.5361  19.3025 C.ar           1 RES1               0.0000
     15 C15         -7.1956 -16.0119  21.6347 C.2            1 RES1               0.0000
     16 C16         -2.1178 -14.9510  18.1724 C.ar           1 RES1               0.0000
     17 O17         -7.9221 -15.4672  22.4609 O.2            1 RES1               0.0000
     18 H18         -5.6745 -18.6551  18.0488 H              1 RES1               0.0000
     19 H19         -4.5316 -19.2150  19.2828 H              1 RES1               0.0000
     20 H20         -3.8460 -17.7735  17.5248 H              1 RES1               0.0000
     21 H21         -4.3596 -14.9359  20.6908 H              1 RES1               0.0000
     22 H22         -5.7754 -16.5606  22.9954 H              1 RES1               0.0000
     23 H23         -8.3576 -15.5984  20.0113 H              1 RES1               0.0000
     24 H24         -6.5958 -20.5771  19.3035 H              1 RES1               0.0000
     25 H25         -6.4334 -19.6937  20.8194 H              1 RES1               0.0000
     26 H26         -7.5695 -19.1372  19.5928 H              1 RES1               0.0000
     27 H27         -1.9764 -16.4451  16.6505 H              1 RES1               0.0000
     28 H28         -2.4897 -13.6220  19.8043 H              1 RES1               0.0000
     29 H29         -1.2907 -14.3661  17.7837 H              1 RES1               0.0000
@<TRIPOS>BOND
    1    1    2 1     
    2    1    3 1     
    3    1    4 1     
    4    1    5 1     
    5    2    6 ar    
    6    2    7 ar    
    7    3    8 1     
    8    3    9 2     
    9    4   10 1     
   10    4   11 2     
   11    5   12 1     
   12    5   18 1     
   13    5   19 1     
   14    6   13 ar    
   15    6   20 1     
   16    7   14 ar    
   17    7   21 1     
   18    8   15 1     
   19    8   22 1     
   20   10   15 1     
   21   10   23 1     
   22   12   24 1     
   23   12   25 1     
   24   12   26 1     
   25   13   16 ar    
   26   13   27 1     
   27   14   16 ar    
   28   14   28 1     
   29   15   17 2     
   30   16   29 1     
@<TRIPOS>SUBSTRUCTURE
      1 RES1           1
@<TRIPOS>SET
DONOR_HYDROGENS      STATIC     ATOMS    <user>   **** ""
2 22 23
ATOM$RED        STATIC     ATOMS    COLORGROUP SYSTEM
2 22 23
@<TRIPOS>COMMENT
> <Gold.Version>
2022.3.0

> <Gold.Id.Protein>
unknown|3mvj_clean|pdb

> <Gold.Protein.RotatedTorsions>
[ 1772 1742 1743 1744 ] final  -31.98 input   69.76 | X-H torsion
[ 1801 1791 1792 1793 ] final  -60.86 input  -10.55 | X-H torsion
[ 1832 1818 1819 1820 ] final  120.20 input   43.70 | X-H torsion
[ 2090 2067 2068 2069 ] final   73.40 input   63.04 | X-H torsion
[ 2143 2117 2118 2119 ] final  -99.17 input   55.90 | X-H torsion
[ 5638 5617 5618 5619 ] final   94.32 input   93.34 | X-H torsion
[ 7894 7874 7875 7876 ] final   53.93 input   68.03 | X-H torsion
[ 7946 7916 7917 7918 ] final  -16.20 input   66.66 | X-H torsion
[ 8490 8469 8467 8464 ] final  102.70 input   59.99 | X-H torsion
[ 15476 15466 15465 15463 ] final    6.77 input   60.00 | X-H torsion
[ 8003 7973 7974 7975 ] final  -29.35 input   84.71 | X-H torsion
[ 8484 8463 8464 8465 ] final  -74.38 input   59.21 | X-H torsion
[ 8523 8507 8508 8509 ] final  174.21 input -104.23 | X-H torsion
[ 2825 2803 2804 2805 ] final -104.44 input  103.27 | X-H torsion
[ 2197 2168 2169 2170 ] final   83.77 input  106.62 | X-H torsion
[ 2728 2714 2715 2716 ] final -115.56 input   74.66 | X-H torsion
[ 2776 2750 2751 2752 ] final  -82.32 input   68.39 | X-H torsion
[ 5506 5481 5482 5483 ] final -135.20 input   57.83 | X-H torsion
[ 5596 5586 5587 5588 ] final    3.99 input -104.43 | X-H torsion
[ 5456 5428 5429 5430 ] final -169.55 input  113.20 | X-H torsion
[ 5464 5439 5438 5436 ] final -177.86 input   59.99 | X-H torsion
[ 5575 5565 5566 5567 ] final   83.07 input  101.53 | X-H torsion
[ 5392 5377 5378 5379 ] final -150.79 input  130.34 | X-H torsion
[ 8060 8030 8031 8032 ] final -124.10 input   72.86 | X-H torsion
[ 2686 2665 2666 2667 ] final    6.45 input   26.41 | X-H torsion
[ 5343 5324 5325 5326 ] final -145.58 input   62.58 | X-H torsion
[ 4538 4515 4516 4517 ] final   37.46 input  130.34 | X-H torsion
[ 4602 4567 4568 4569 ] final  -10.69 input  104.80 | X-H torsion
[ 5305 5274 5275 5276 ] final  130.24 input   71.10 | X-H torsion
[ 8578 8549 8550 8551 ] final  -87.81 input   74.91 | X-H torsion
[ 1861 1854 1855 1856 ] final -146.17 input   57.50 | X-H torsion
[ 15411 15403 15404 15405 ] final   50.37 input  102.24 | X-H torsion
[ 2878 2867 2868 2869 ] final   53.52 input   60.34 | X-H torsion
[ 16459 1745 1744 1743 ] final   48.04 input    0.00 | X-H torsion
[ 16462 1794 1793 1792 ] final -108.78 input   -0.00 | X-H torsion
[ 16466 2070 2069 2068 ] final   53.30 input    0.00 | X-H torsion
[ 16474 7834 7833 7832 ] final -154.99 input    0.00 | X-H torsion
[ 16477 7877 7876 7875 ] final  -18.97 input    0.00 | X-H torsion
[ 16486 7919 7918 7917 ] final -141.41 input    0.00 | X-H torsion
[ 16490 8466 8465 8464 ] final  107.44 input    0.00 | X-H torsion
[ 16495 2717 2716 2715 ] final   31.57 input    0.00 | X-H torsion
[ 16498 5484 5483 5482 ] final  104.96 input    0.00 | X-H torsion
[ 16500 2120 2119 2118 ] final -151.07 input    0.00 | X-H torsion
[ 16505 2753 2752 2751 ] final   -9.15 input    0.00 | X-H torsion
[ 16507 5380 5379 5378 ] final  134.30 input    0.00 | X-H torsion
[ 16510 1701 1700 1699 ] final   48.69 input   -0.00 | X-H torsion
[ 16513 5589 5588 5587 ] final   16.37 input    0.00 | X-H torsion
[ 16515 2668 2667 2666 ] final   78.58 input    0.00 | X-H torsion
[ 16517 5327 5326 5325 ] final -132.28 input   -0.00 | X-H torsion
[ 16520 5431 5430 5429 ] final   26.53 input    0.00 | X-H torsion
[ 16525 5532 5531 5530 ] final    1.66 input   -0.00 | X-H torsion
[ 16530 8033 8032 8031 ] final -132.95 input    0.00 | X-H torsion
[ 16534 8371 8370 8369 ] final  149.85 input    0.00 | X-H torsion
[ 16536 4570 4569 4568 ] final -159.58 input    0.00 | X-H torsion
[ 16539 4518 4517 4516 ] final  -49.34 input    0.00 | X-H torsion
[ 16542 5228 5227 5226 ] final  -44.86 input    0.00 | X-H torsion
[ 16544 5277 5276 5275 ] final  146.20 input    0.00 | X-H torsion
[ 16548 8418 8417 8416 ] final  -28.15 input    0.00 | X-H torsion
[ 16551 2006 2005 2004 ] final  134.81 input    0.00 | X-H torsion
[ 16556 1821 1820 1819 ] final  -11.24 input    0.00 | X-H torsion

> <Gold.Protein.ActiveResidues>
 THR48   LEU49   GLY50   THR51   GLY52   ARG56   VAL57   MET58   LEU59   TYR69  
 ALA70   MET71   LYS72   ILE73   GLU91   LEU95   VAL104  LYS105  LEU106  MET118 
 VAL119  MET120  GLU121  TYR122  VAL123  PRO124  GLY125  GLY126  GLU127  GLU170 
 ASN171  LEU172  LEU173  ILE174  ASP175  GLN181  VAL182  THR183  ASP184  PHE185 
 ASN326  PHE327  ASP328  TYR330 

> <Gold.Protein.RotatedAtoms>
    3.0930  -14.5866   21.0424 H   0  0  0  0  0  0  0  0  0  0  0  0  # atno 1772 bound_to 1742
    1.5821  -13.8525   21.6952 H   0  0  0  0  0  0  0  0  0  0  0  0  # atno 1801 bound_to 1791
   -0.2765  -13.5300   24.4696 H   0  0  0  0  0  0  0  0  0  0  0  0  # atno 1832 bound_to 1818
   -2.7948  -15.3144   26.4724 H   0  0  0  0  0  0  0  0  0  0  0  0  # atno 1861 bound_to 1854
    0.2007  -17.6683   22.7502 H   0  0  0  0  0  0  0  0  0  0  0  0  # atno 2090 bound_to 2067
    1.9643  -18.5461   20.1062 H   0  0  0  0  0  0  0  0  0  0  0  0  # atno 2143 bound_to 2117
    5.2917  -17.3709   17.8644 H   0  0  0  0  0  0  0  0  0  0  0  0  # atno 2197 bound_to 2168
    5.3533  -21.1889   12.1873 H   0  0  0  0  0  0  0  0  0  0  0  0  # atno 2686 bound_to 2665
    2.8304  -21.3749   13.5184 H   0  0  0  0  0  0  0  0  0  0  0  0  # atno 2728 bound_to 2714
    1.1237  -22.0236   16.6341 H   0  0  0  0  0  0  0  0  0  0  0  0  # atno 2776 bound_to 2750
    0.7470  -22.6703   19.3955 H   0  0  0  0  0  0  0  0  0  0  0  0  # atno 2825 bound_to 2803
    0.1129  -22.5128   23.2975 H   0  0  0  0  0  0  0  0  0  0  0  0  # atno 2878 bound_to 2867
   -9.5601  -23.1052   11.0823 H   0  0  0  0  0  0  0  0  0  0  0  0  # atno 4538 bound_to 4515
   -6.2274  -24.4089   10.6124 H   0  0  0  0  0  0  0  0  0  0  0  0  # atno 4602 bound_to 4567
    0.0523  -28.0688   17.3076 H   0  0  0  0  0  0  0  0  0  0  0  0  # atno 5305 bound_to 5274
   -0.6991  -25.8271   14.9657 H   0  0  0  0  0  0  0  0  0  0  0  0  # atno 5343 bound_to 5324
   -1.1995  -24.8550   11.0352 H   0  0  0  0  0  0  0  0  0  0  0  0  # atno 5392 bound_to 5377
    0.7601  -21.6922   10.9729 H   0  0  0  0  0  0  0  0  0  0  0  0  # atno 5456 bound_to 5428
    4.1496  -13.4429   10.8532 H   0  0  0  0  0  0  0  0  0  0  0  0  # atno 5464 bound_to 5439
   -0.5419  -18.5317    9.8425 H   0  0  0  0  0  0  0  0  0  0  0  0  # atno 5506 bound_to 5481
   -1.6043  -12.9706    8.5397 H   0  0  0  0  0  0  0  0  0  0  0  0  # atno 5575 bound_to 5565
   -2.9008  -11.2874   10.2692 H   0  0  0  0  0  0  0  0  0  0  0  0  # atno 5596 bound_to 5586
   -3.9578   -9.7175   14.1825 H   0  0  0  0  0  0  0  0  0  0  0  0  # atno 5638 bound_to 5617
  -11.0118  -12.5215   17.1702 H   0  0  0  0  0  0  0  0  0  0  0  0  # atno 7894 bound_to 7874
   -9.3114  -13.4956   15.3332 H   0  0  0  0  0  0  0  0  0  0  0  0  # atno 7946 bound_to 7916
   -9.2108  -13.7785   11.8055 H   0  0  0  0  0  0  0  0  0  0  0  0  # atno 8003 bound_to 7973
   -7.2552  -13.0559    9.9802 H   0  0  0  0  0  0  0  0  0  0  0  0  # atno 8060 bound_to 8030
  -10.6988  -19.3749   14.0042 H   0  0  0  0  0  0  0  0  0  0  0  0  # atno 8484 bound_to 8463
   -7.6894  -17.6792   16.9594 H   0  0  0  0  0  0  0  0  0  0  0  0  # atno 8490 bound_to 8469
   -8.5429  -19.8505   17.5193 H   0  0  0  0  0  0  0  0  0  0  0  0  # atno 8523 bound_to 8507
  -11.0191  -21.6486   19.3677 H   0  0  0  0  0  0  0  0  0  0  0  0  # atno 8578 bound_to 8549
    1.3263   -8.9168   18.0198 H   0  0  0  0  0  0  0  0  0  0  0  0  # atno 15411 bound_to 15403
   -1.3532  -10.3068   20.7027 H   0  0  0  0  0  0  0  0  0  0  0  0  # atno 15476 bound_to 15466
    3.6455  -15.3243   19.5546 LP  0  0  0  0  0  0  0  0  0  0  0  0  # atno 16458 bound_to 1742
   -0.5257  -13.4034   18.6299 LP  0  0  0  0  0  0  0  0  0  0  0  0  # atno 16459 bound_to 1745
   -0.6700  -12.3505   19.9976 LP  0  0  0  0  0  0  0  0  0  0  0  0  # atno 16460 bound_to 1745
    0.5926  -14.5152   20.4120 LP  0  0  0  0  0  0  0  0  0  0  0  0  # atno 16461 bound_to 1791
   -0.2666  -16.7164   23.5439 LP  0  0  0  0  0  0  0  0  0  0  0  0  # atno 16462 bound_to 1794
    1.2243  -15.8475   23.3946 LP  0  0  0  0  0  0  0  0  0  0  0  0  # atno 16463 bound_to 1794
   -1.5831  -14.4814   23.8005 LP  0  0  0  0  0  0  0  0  0  0  0  0  # atno 16464 bound_to 1818
    0.5916  -19.2980   23.2641 LP  0  0  0  0  0  0  0  0  0  0  0  0  # atno 16465 bound_to 2067
    2.1066  -16.8302   21.7450 LP  0  0  0  0  0  0  0  0  0  0  0  0  # atno 16466 bound_to 2070
    2.3732  -16.6118   20.0476 LP  0  0  0  0  0  0  0  0  0  0  0  0  # atno 16467 bound_to 2070
    2.5584  -20.1883   20.2233 LP  0  0  0  0  0  0  0  0  0  0  0  0  # atno 16468 bound_to 2117
   -4.2928  -10.5135   12.6586 LP  0  0  0  0  0  0  0  0  0  0  0  0  # atno 16469 bound_to 5617
   -7.7830  -13.6192   17.3755 LP  0  0  0  0  0  0  0  0  0  0  0  0  # atno 16474 bound_to 7834
   -7.3560  -12.4878   18.6155 LP  0  0  0  0  0  0  0  0  0  0  0  0  # atno 16475 bound_to 7834
   -9.4579  -12.5376   17.9622 LP  0  0  0  0  0  0  0  0  0  0  0  0  # atno 16476 bound_to 7874
  -10.0718  -16.6354   15.7957 LP  0  0  0  0  0  0  0  0  0  0  0  0  # atno 16477 bound_to 7877
  -10.7381  -15.9976   14.3297 LP  0  0  0  0  0  0  0  0  0  0  0  0  # atno 16478 bound_to 7877
  -11.0434  -13.6586   15.4891 LP  0  0  0  0  0  0  0  0  0  0  0  0  # atno 16479 bound_to 7916
   -8.7019  -17.4414   15.7077 LP  0  0  0  0  0  0  0  0  0  0  0  0  # atno 16480 bound_to 8469
   -7.0894  -17.2937   15.4965 LP  0  0  0  0  0  0  0  0  0  0  0  0  # atno 16481 bound_to 8469
   -1.6982   -9.1228   21.7642 LP  0  0  0  0  0  0  0  0  0  0  0  0  # atno 16484 bound_to 15466
   -2.1610  -10.6585   22.0707 LP  0  0  0  0  0  0  0  0  0  0  0  0  # atno 16485 bound_to 15466
   -8.2724  -11.6263   12.0943 LP  0  0  0  0  0  0  0  0  0  0  0  0  # atno 16486 bound_to 7919
   -8.7953  -11.5873   13.7451 LP  0  0  0  0  0  0  0  0  0  0  0  0  # atno 16487 bound_to 7919
   -8.3487  -14.7864   12.9392 LP  0  0  0  0  0  0  0  0  0  0  0  0  # atno 16488 bound_to 7973
   -9.4826  -18.1162   14.0640 LP  0  0  0  0  0  0  0  0  0  0  0  0  # atno 16489 bound_to 8463
  -11.7409  -19.1694   16.9285 LP  0  0  0  0  0  0  0  0  0  0  0  0  # atno 16490 bound_to 8466
  -10.6020  -17.8647   16.9487 LP  0  0  0  0  0  0  0  0  0  0  0  0  # atno 16491 bound_to 8466
   -9.7914  -20.9464   16.9433 LP  0  0  0  0  0  0  0  0  0  0  0  0  # atno 16492 bound_to 8507
    0.2275  -23.3368   14.8222 LP  0  0  0  0  0  0  0  0  0  0  0  0  # atno 16495 bound_to 2717
   -0.1256  -23.5490   16.5045 LP  0  0  0  0  0  0  0  0  0  0  0  0  # atno 16496 bound_to 2717
   -0.1493  -24.1562   19.1454 LP  0  0  0  0  0  0  0  0  0  0  0  0  # atno 16497 bound_to 2803
   -0.2972  -14.6290   11.4227 LP  0  0  0  0  0  0  0  0  0  0  0  0  # atno 16498 bound_to 5484
   -1.9316  -14.2417   10.9997 LP  0  0  0  0  0  0  0  0  0  0  0  0  # atno 16499 bound_to 5484
    4.2550  -20.4329   16.5456 LP  0  0  0  0  0  0  0  0  0  0  0  0  # atno 16500 bound_to 2120
    2.9575  -20.5272   17.6891 LP  0  0  0  0  0  0  0  0  0  0  0  0  # atno 16501 bound_to 2120
    4.1227  -18.6399   17.5959 LP  0  0  0  0  0  0  0  0  0  0  0  0  # atno 16502 bound_to 2168
    1.2728  -22.1385   13.3073 LP  0  0  0  0  0  0  0  0  0  0  0  0  # atno 16503 bound_to 2714
    2.7883  -21.6866   17.0595 LP  0  0  0  0  0  0  0  0  0  0  0  0  # atno 16504 bound_to 2750
    2.8722  -21.9411   19.9591 LP  0  0  0  0  0  0  0  0  0  0  0  0  # atno 16505 bound_to 2753
    1.4620  -21.7201   20.9401 LP  0  0  0  0  0  0  0  0  0  0  0  0  # atno 16506 bound_to 2753
   -1.4175  -20.4520   12.0584 LP  0  0  0  0  0  0  0  0  0  0  0  0  # atno 16507 bound_to 5380
   -2.6057  -20.9630   10.9065 LP  0  0  0  0  0  0  0  0  0  0  0  0  # atno 16508 bound_to 5380
   -0.5342  -17.4494   11.2175 LP  0  0  0  0  0  0  0  0  0  0  0  0  # atno 16509 bound_to 5481
    5.3336  -12.7255   19.8301 LP  0  0  0  0  0  0  0  0  0  0  0  0  # atno 16510 bound_to 1701
    3.7820  -12.2488   20.4346 LP  0  0  0  0  0  0  0  0  0  0  0  0  # atno 16511 bound_to 1701
   -1.2294  -11.1080   10.7518 LP  0  0  0  0  0  0  0  0  0  0  0  0  # atno 16512 bound_to 5586
   -4.4553  -11.5220   10.7006 LP  0  0  0  0  0  0  0  0  0  0  0  0  # atno 16513 bound_to 5589
   -5.8370  -10.8204   11.4742 LP  0  0  0  0  0  0  0  0  0  0  0  0  # atno 16514 bound_to 5589
    4.3411  -19.9741   13.7028 LP  0  0  0  0  0  0  0  0  0  0  0  0  # atno 16515 bound_to 2668
    4.4231  -21.1965   14.9271 LP  0  0  0  0  0  0  0  0  0  0  0  0  # atno 16516 bound_to 2668
    0.4771  -22.5044   12.1370 LP  0  0  0  0  0  0  0  0  0  0  0  0  # atno 16517 bound_to 5327
    1.0108  -23.9994   12.8300 LP  0  0  0  0  0  0  0  0  0  0  0  0  # atno 16518 bound_to 5327
   -0.1077  -21.2374    9.5267 LP  0  0  0  0  0  0  0  0  0  0  0  0  # atno 16519 bound_to 5428
   -0.2710  -19.9523    8.2363 LP  0  0  0  0  0  0  0  0  0  0  0  0  # atno 16520 bound_to 5431
   -0.5394  -18.2842    7.8551 LP  0  0  0  0  0  0  0  0  0  0  0  0  # atno 16521 bound_to 5431
    4.0443  -13.7565   12.4462 LP  0  0  0  0  0  0  0  0  0  0  0  0  # atno 16522 bound_to 5439
    2.7338  -13.2302   11.6263 LP  0  0  0  0  0  0  0  0  0  0  0  0  # atno 16523 bound_to 5439
    1.7220  -11.5947   10.0933 LP  0  0  0  0  0  0  0  0  0  0  0  0  # atno 16525 bound_to 5532
    0.3995  -10.5052    9.8405 LP  0  0  0  0  0  0  0  0  0  0  0  0  # atno 16526 bound_to 5532
   -0.0475  -12.1962    8.7489 LP  0  0  0  0  0  0  0  0  0  0  0  0  # atno 16527 bound_to 5565
   -1.9770  -23.5129   11.8409 LP  0  0  0  0  0  0  0  0  0  0  0  0  # atno 16528 bound_to 5377
   -5.6451  -12.3822   10.1126 LP  0  0  0  0  0  0  0  0  0  0  0  0  # atno 16529 bound_to 8030
   -3.5135  -12.2796    7.0411 LP  0  0  0  0  0  0  0  0  0  0  0  0  # atno 16530 bound_to 8033
   -3.9197  -12.4571    8.7154 LP  0  0  0  0  0  0  0  0  0  0  0  0  # atno 16531 bound_to 8033
    5.1361  -22.2762   10.8339 LP  0  0  0  0  0  0  0  0  0  0  0  0  # atno 16532 bound_to 2665
    0.1082  -24.3136   14.6576 LP  0  0  0  0  0  0  0  0  0  0  0  0  # atno 16533 bound_to 5324
  -10.0206  -16.5719   12.3047 LP  0  0  0  0  0  0  0  0  0  0  0  0  # atno 16534 bound_to 8371
   -8.4885  -16.4321   11.5088 LP  0  0  0  0  0  0  0  0  0  0  0  0  # atno 16535 bound_to 8371
   -3.3970  -26.0029   11.9252 LP  0  0  0  0  0  0  0  0  0  0  0  0  # atno 16536 bound_to 4570
   -4.2831  -24.7630   11.1020 LP  0  0  0  0  0  0  0  0  0  0  0  0  # atno 16537 bound_to 4570
   -9.1638  -21.7685   10.0344 LP  0  0  0  0  0  0  0  0  0  0  0  0  # atno 16538 bound_to 4515
   -8.2139  -24.9630   12.2565 LP  0  0  0  0  0  0  0  0  0  0  0  0  # atno 16539 bound_to 4518
   -8.5805  -25.9629   10.8905 LP  0  0  0  0  0  0  0  0  0  0  0  0  # atno 16540 bound_to 4518
   -6.8521  -24.5362    8.9757 LP  0  0  0  0  0  0  0  0  0  0  0  0  # atno 16541 bound_to 4567
   -1.3960  -24.9922   18.6761 LP  0  0  0  0  0  0  0  0  0  0  0  0  # atno 16542 bound_to 5228
    0.2638  -25.1181   18.1976 LP  0  0  0  0  0  0  0  0  0  0  0  0  # atno 16543 bound_to 5228
   -1.6553  -27.0904   13.5970 LP  0  0  0  0  0  0  0  0  0  0  0  0  # atno 16544 bound_to 5277
   -0.2187  -27.9889   13.9557 LP  0  0  0  0  0  0  0  0  0  0  0  0  # atno 16545 bound_to 5277
  -10.7348  -21.1947   12.3702 LP  0  0  0  0  0  0  0  0  0  0  0  0  # atno 16548 bound_to 8418
   -9.2269  -21.1435   13.2207 LP  0  0  0  0  0  0  0  0  0  0  0  0  # atno 16549 bound_to 8418
   -1.2640  -26.9391   17.0950 LP  0  0  0  0  0  0  0  0  0  0  0  0  # atno 16550 bound_to 5274
   -0.1495  -21.1447   22.6994 LP  0  0  0  0  0  0  0  0  0  0  0  0  # atno 16551 bound_to 2006
    1.0554  -21.2834   23.9359 LP  0  0  0  0  0  0  0  0  0  0  0  0  # atno 16552 bound_to 2006
  -10.0731  -23.0636   18.9903 LP  0  0  0  0  0  0  0  0  0  0  0  0  # atno 16555 bound_to 8549
   -2.6588  -13.0536   26.1757 LP  0  0  0  0  0  0  0  0  0  0  0  0  # atno 16556 bound_to 1821
   -4.0178  -13.9028   26.8329 LP  0  0  0  0  0  0  0  0  0  0  0  0  # atno 16557 bound_to 1821
   -2.0474  -16.7346   27.1826 LP  0  0  0  0  0  0  0  0  0  0  0  0  # atno 16558 bound_to 1854

> <Gold.Score>
     Fitness  S(hb_ext) S(vdw_ext)  S(hb_int)    S(int)      intcor
     35.30       6.42      21.72       0.00      -0.99      -0.77

> <Gold.Goldscore.Fitness>
35.2974

> <Gold.Goldscore.Internal.Vdw>
-1.3459

> <Gold.Goldscore.Internal.Torsion>
-0.4085

> <Gold.Goldscore.External.Vdw>
21.7157

> <Gold.Goldscore.Internal.HBond>
0.0000

> <Gold.Goldscore.External.HBond>
6.4240

> <Gold.Goldscore.Internal.Correction>
-0.7686

> <Gold.Goldscore.Hbonds>
donor molecule, donor type, donor heavy atom, donor atom, acceptor molecule, acceptor atom, score
      P1  H  8469  8490       L1    11  0.21
      L1  H    10    23       P1  7881  1.00

> <Gold.Goldscore.Internal.Vdw.Weighted>
-1.3459

> <Gold.Goldscore.Internal.Torsion.Weighted>
-0.4085

> <Gold.Goldscore.External.Vdw.Weighted>
29.8591

> <Gold.Goldscore.Internal.HBond.Weighted>
0.0000

> <Gold.Goldscore.External.HBond.Weighted>
6.4240

> <Gold.Goldscore.Internal.Correction.Weighted>
-0.7686

> <Gold.Rescore>
     Score     S(PLP)   S(hbond)     S(cho)   S(metal)  DE(clash)   DE(tors)     intcor
     31.24     -25.83       1.82       0.00       0.00       0.00       0.02       ----

> <Gold.PLP.Fitness>
31.2422

> <Gold.PLP.PLP>
-25.8348

> <Gold.PLP.part.hbond>
-2.0057

> <Gold.PLP.part.metal>
0.0000

> <Gold.PLP.part.buried>
3.8256

> <Gold.PLP.part.nonpolar>
-29.0212

> <Gold.PLP.part.repulsive>
0.4125

> <Gold.PLP.ligand.clash>
0.0000

> <Gold.PLP.ligand.torsion>
0.0203

> <Gold.PLP.Chemscore.Hbond>
1.8160

> <Gold.PLP.Chemscore.CHOScore>
0.0000

> <Gold.PLP.Chemscore.Metal>
0.0000

> <Gold.Chemscore.Hbonds>
donor molecule, donor type, donor heavy atom, donor atom, acceptor molecule, acceptor atom, score
      L1  H    10    23       P1  7881  0.81
      P1  H  8469  8490       L1    11  0.77

> <Gold.PLP.Chemscore.Internal.Correction>
   9.000000E+99

