#       Name:                CT1002167954
#       Creating user name   hitesit
#       Creation time:       Sun Apr 16 20:16:35 2023


#       File generated by GOLD software.
#

@<TRIPOS>MOLECULE
CT1002167954|ligand_prepared|mol2|1|dock8
    29    30     1
SMALL
NO_CHARGES


@<TRIPOS>ATOM
      1 C1          -5.1310 -16.5543  18.4952 C.3            1 RES1               0.0000
      2 C2          -3.9113 -16.6219  17.5536 C.ar           1 RES1               0.0000
      3 C3          -4.5950 -16.1366  19.8614 C.2            1 RES1               0.0000
      4 C4          -6.0957 -15.5513  17.8722 C.2            1 RES1               0.0000
      5 C5          -5.8759 -17.9006  18.6504 C.3            1 RES1               0.0000
      6 C6          -3.8361 -17.5934  16.5600 C.ar           1 RES1               0.0000
      7 C7          -2.8567 -15.7196  17.6645 C.ar           1 RES1               0.0000
      8 N8          -4.8408 -14.8599  20.2732 N.am           1 RES1               0.0000
      9 O9          -3.9329 -16.9035  20.5497 O.2            1 RES1               0.0000
     10 N10         -6.3385 -14.3865  18.5520 N.am           1 RES1               0.0000
     11 O11         -6.6350 -15.7518  16.7909 O.2            1 RES1               0.0000
     12 C12         -6.8789 -17.9182  19.7931 C.3            1 RES1               0.0000
     13 C13         -2.7475 -17.6587  15.7062 C.ar           1 RES1               0.0000
     14 C14         -1.7688 -15.7869  16.8098 C.ar           1 RES1               0.0000
     15 C15         -5.7311 -13.9818  19.7094 C.2            1 RES1               0.0000
     16 C16         -1.7134 -16.7554  15.8302 C.ar           1 RES1               0.0000
     17 O17         -5.9620 -12.8952  20.2320 O.2            1 RES1               0.0000
     18 H18         -6.4031 -18.1224  17.7143 H              1 RES1               0.0000
     19 H19         -5.1380 -18.6953  18.8160 H              1 RES1               0.0000
     20 H20         -4.6392 -18.3143  16.4489 H              1 RES1               0.0000
     21 H21         -2.8783 -14.9499  18.4285 H              1 RES1               0.0000
     22 H22         -4.3137 -14.5273  21.0744 H              1 RES1               0.0000
     23 H23         -7.0367 -13.7634  18.1588 H              1 RES1               0.0000
     24 H24         -7.3731 -18.8853  19.8577 H              1 RES1               0.0000
     25 H25         -6.3847 -17.7261  20.7432 H              1 RES1               0.0000
     26 H26         -7.6423 -17.1566  19.6480 H              1 RES1               0.0000
     27 H27         -2.7081 -18.4237  14.9378 H              1 RES1               0.0000
     28 H28         -0.9570 -15.0742  16.9114 H              1 RES1               0.0000
     29 H29         -0.8609 -16.8066  15.1610 H              1 RES1               0.0000
@<TRIPOS>BOND
    1    1    2 1     
    2    1    3 1     
    3    1    4 1     
    4    1    5 1     
    5    2    6 ar    
    6    2    7 ar    
    7    3    8 1     
    8    3    9 2     
    9    4   10 1     
   10    4   11 2     
   11    5   12 1     
   12    5   18 1     
   13    5   19 1     
   14    6   13 ar    
   15    6   20 1     
   16    7   14 ar    
   17    7   21 1     
   18    8   15 1     
   19    8   22 1     
   20   10   15 1     
   21   10   23 1     
   22   12   24 1     
   23   12   25 1     
   24   12   26 1     
   25   13   16 ar    
   26   13   27 1     
   27   14   16 ar    
   28   14   28 1     
   29   15   17 2     
   30   16   29 1     
@<TRIPOS>SUBSTRUCTURE
      1 RES1           1
@<TRIPOS>SET
DONOR_HYDROGENS      STATIC     ATOMS    <user>   **** ""
2 22 23
ATOM$RED        STATIC     ATOMS    COLORGROUP SYSTEM
2 22 23
@<TRIPOS>COMMENT
> <Gold.Version>
2022.3.0

> <Gold.Id.Protein>
unknown|3mvj_clean|pdb

> <Gold.Protein.RotatedTorsions>
[ 1772 1742 1743 1744 ] final   76.24 input   69.76 | X-H torsion
[ 1801 1791 1792 1793 ] final   84.29 input  -10.55 | X-H torsion
[ 1832 1818 1819 1820 ] final  173.69 input   43.70 | X-H torsion
[ 2090 2067 2068 2069 ] final  -57.20 input   63.04 | X-H torsion
[ 2143 2117 2118 2119 ] final   97.27 input   55.90 | X-H torsion
[ 5638 5617 5618 5619 ] final    5.86 input   93.34 | X-H torsion
[ 7894 7874 7875 7876 ] final -127.88 input   68.03 | X-H torsion
[ 7946 7916 7917 7918 ] final  -56.30 input   66.66 | X-H torsion
[ 8490 8469 8467 8464 ] final  -99.56 input   59.99 | X-H torsion
[ 15476 15466 15465 15463 ] final   53.75 input   60.00 | X-H torsion
[ 8003 7973 7974 7975 ] final -103.10 input   84.71 | X-H torsion
[ 8484 8463 8464 8465 ] final  145.50 input   59.21 | X-H torsion
[ 8523 8507 8508 8509 ] final  -35.06 input -104.23 | X-H torsion
[ 2825 2803 2804 2805 ] final   60.20 input  103.27 | X-H torsion
[ 2197 2168 2169 2170 ] final  166.13 input  106.62 | X-H torsion
[ 2728 2714 2715 2716 ] final  113.07 input   74.66 | X-H torsion
[ 2776 2750 2751 2752 ] final   72.36 input   68.39 | X-H torsion
[ 5506 5481 5482 5483 ] final   38.97 input   57.83 | X-H torsion
[ 5596 5586 5587 5588 ] final   50.45 input -104.43 | X-H torsion
[ 5456 5428 5429 5430 ] final -132.79 input  113.20 | X-H torsion
[ 5464 5439 5438 5436 ] final  110.68 input   59.99 | X-H torsion
[ 5575 5565 5566 5567 ] final -117.81 input  101.53 | X-H torsion
[ 5392 5377 5378 5379 ] final  -44.09 input  130.34 | X-H torsion
[ 8060 8030 8031 8032 ] final  -93.21 input   72.86 | X-H torsion
[ 2686 2665 2666 2667 ] final  151.42 input   26.41 | X-H torsion
[ 5343 5324 5325 5326 ] final  -36.05 input   62.58 | X-H torsion
[ 4538 4515 4516 4517 ] final   28.84 input  130.34 | X-H torsion
[ 4602 4567 4568 4569 ] final  -12.19 input  104.80 | X-H torsion
[ 5305 5274 5275 5276 ] final -128.95 input   71.10 | X-H torsion
[ 8578 8549 8550 8551 ] final -160.27 input   74.91 | X-H torsion
[ 1861 1854 1855 1856 ] final  -24.44 input   57.50 | X-H torsion
[ 15411 15403 15404 15405 ] final  -66.97 input  102.24 | X-H torsion
[ 2878 2867 2868 2869 ] final  -18.89 input   60.34 | X-H torsion
[ 16459 1745 1744 1743 ] final -111.56 input    0.00 | X-H torsion
[ 16462 1794 1793 1792 ] final  -62.38 input   -0.00 | X-H torsion
[ 16466 2070 2069 2068 ] final  126.03 input    0.00 | X-H torsion
[ 16474 7834 7833 7832 ] final  -94.78 input    0.00 | X-H torsion
[ 16477 7877 7876 7875 ] final  111.89 input    0.00 | X-H torsion
[ 16486 7919 7918 7917 ] final -115.92 input    0.00 | X-H torsion
[ 16490 8466 8465 8464 ] final   19.04 input    0.00 | X-H torsion
[ 16495 2717 2716 2715 ] final -128.60 input    0.00 | X-H torsion
[ 16498 5484 5483 5482 ] final   44.35 input    0.00 | X-H torsion
[ 16500 2120 2119 2118 ] final   31.65 input    0.00 | X-H torsion
[ 16505 2753 2752 2751 ] final  -27.46 input    0.00 | X-H torsion
[ 16507 5380 5379 5378 ] final -168.06 input    0.00 | X-H torsion
[ 16510 1701 1700 1699 ] final -152.59 input   -0.00 | X-H torsion
[ 16513 5589 5588 5587 ] final  -17.66 input    0.00 | X-H torsion
[ 16515 2668 2667 2666 ] final -134.42 input    0.00 | X-H torsion
[ 16517 5327 5326 5325 ] final   99.03 input   -0.00 | X-H torsion
[ 16520 5431 5430 5429 ] final   37.12 input    0.00 | X-H torsion
[ 16525 5532 5531 5530 ] final -172.43 input   -0.00 | X-H torsion
[ 16530 8033 8032 8031 ] final  141.15 input    0.00 | X-H torsion
[ 16534 8371 8370 8369 ] final   30.50 input    0.00 | X-H torsion
[ 16536 4570 4569 4568 ] final -109.23 input    0.00 | X-H torsion
[ 16539 4518 4517 4516 ] final    8.88 input    0.00 | X-H torsion
[ 16542 5228 5227 5226 ] final   39.81 input    0.00 | X-H torsion
[ 16544 5277 5276 5275 ] final  -62.86 input    0.00 | X-H torsion
[ 16548 8418 8417 8416 ] final  -41.82 input    0.00 | X-H torsion
[ 16551 2006 2005 2004 ] final  108.62 input    0.00 | X-H torsion
[ 16556 1821 1820 1819 ] final -120.70 input    0.00 | X-H torsion

> <Gold.Protein.ActiveResidues>
 THR48   LEU49   GLY50   THR51   GLY52   ARG56   VAL57   MET58   LEU59   TYR69  
 ALA70   MET71   LYS72   ILE73   GLU91   LEU95   VAL104  LYS105  LEU106  MET118 
 VAL119  MET120  GLU121  TYR122  VAL123  PRO124  GLY125  GLY126  GLU127  GLU170 
 ASN171  LEU172  LEU173  ILE174  ASP175  GLN181  VAL182  THR183  ASP184  PHE185 
 ASN326  PHE327  ASP328  TYR330 

> <Gold.Protein.RotatedAtoms>
    2.9066  -15.7068   20.1555 H   0  0  0  0  0  0  0  0  0  0  0  0  # atno 1772 bound_to 1742
    0.7206  -14.9317   20.7056 H   0  0  0  0  0  0  0  0  0  0  0  0  # atno 1801 bound_to 1791
   -0.0729  -14.1984   24.0830 H   0  0  0  0  0  0  0  0  0  0  0  0  # atno 1832 bound_to 1818
   -1.8725  -15.9824   27.5522 H   0  0  0  0  0  0  0  0  0  0  0  0  # atno 1861 bound_to 1854
    1.1916  -18.8847   23.1754 H   0  0  0  0  0  0  0  0  0  0  0  0  # atno 2090 bound_to 2067
    2.6610  -20.1273   20.4462 H   0  0  0  0  0  0  0  0  0  0  0  0  # atno 2143 bound_to 2117
    4.2382  -17.3491   17.3778 H   0  0  0  0  0  0  0  0  0  0  0  0  # atno 2197 bound_to 2168
    5.3815  -22.5652   11.2004 H   0  0  0  0  0  0  0  0  0  0  0  0  # atno 2686 bound_to 2665
    1.2959  -21.4712   13.0385 H   0  0  0  0  0  0  0  0  0  0  0  0  # atno 2728 bound_to 2714
    2.6168  -21.4759   17.3328 H   0  0  0  0  0  0  0  0  0  0  0  0  # atno 2776 bound_to 2750
   -0.0007  -24.2757   19.2908 H   0  0  0  0  0  0  0  0  0  0  0  0  # atno 2825 bound_to 2803
   -0.6580  -23.2166   23.1832 H   0  0  0  0  0  0  0  0  0  0  0  0  # atno 2878 bound_to 2867
   -9.5779  -23.1741   10.9712 H   0  0  0  0  0  0  0  0  0  0  0  0  # atno 4538 bound_to 4515
   -6.2482  -24.4165   10.6205 H   0  0  0  0  0  0  0  0  0  0  0  0  # atno 4602 bound_to 4567
   -0.4385  -26.9163   17.8426 H   0  0  0  0  0  0  0  0  0  0  0  0  # atno 5305 bound_to 5274
    0.3543  -25.1934   14.2374 H   0  0  0  0  0  0  0  0  0  0  0  0  # atno 5343 bound_to 5324
   -0.9930  -23.8261   11.9911 H   0  0  0  0  0  0  0  0  0  0  0  0  # atno 5392 bound_to 5377
    0.2223  -21.6311   11.1029 H   0  0  0  0  0  0  0  0  0  0  0  0  # atno 5456 bound_to 5428
    4.5165  -13.7528   11.8351 H   0  0  0  0  0  0  0  0  0  0  0  0  # atno 5464 bound_to 5439
   -0.4678  -17.3842   11.1957 H   0  0  0  0  0  0  0  0  0  0  0  0  # atno 5506 bound_to 5481
   -0.0458  -12.1750    8.4299 H   0  0  0  0  0  0  0  0  0  0  0  0  # atno 5575 bound_to 5565
   -2.6393  -10.6545   10.1278 H   0  0  0  0  0  0  0  0  0  0  0  0  # atno 5596 bound_to 5586
   -4.3201   -9.3240   13.0590 H   0  0  0  0  0  0  0  0  0  0  0  0  # atno 5638 bound_to 5617
   -9.4631  -12.5316   17.9934 H   0  0  0  0  0  0  0  0  0  0  0  0  # atno 7894 bound_to 7874
   -9.4603  -14.0789   15.3923 H   0  0  0  0  0  0  0  0  0  0  0  0  # atno 7946 bound_to 7916
   -8.8362  -13.4925   12.7486 H   0  0  0  0  0  0  0  0  0  0  0  0  # atno 8003 bound_to 7973
   -6.9604  -13.4140    9.8844 H   0  0  0  0  0  0  0  0  0  0  0  0  # atno 8060 bound_to 8030
   -9.2982  -18.5210   13.6638 H   0  0  0  0  0  0  0  0  0  0  0  0  # atno 8484 bound_to 8463
   -7.6031  -17.2506   15.1746 H   0  0  0  0  0  0  0  0  0  0  0  0  # atno 8490 bound_to 8469
   -9.4964  -21.2544   17.0901 H   0  0  0  0  0  0  0  0  0  0  0  0  # atno 8523 bound_to 8507
  -10.8879  -22.0644   18.4284 H   0  0  0  0  0  0  0  0  0  0  0  0  # atno 8578 bound_to 8549
    1.9773   -7.9117   17.0971 H   0  0  0  0  0  0  0  0  0  0  0  0  # atno 15411 bound_to 15403
   -1.6685  -10.8625   21.0880 H   0  0  0  0  0  0  0  0  0  0  0  0  # atno 15476 bound_to 15466
    3.8259  -14.2401   20.4131 LP  0  0  0  0  0  0  0  0  0  0  0  0  # atno 16458 bound_to 1742
   -0.4721  -12.1903   19.8263 LP  0  0  0  0  0  0  0  0  0  0  0  0  # atno 16459 bound_to 1745
   -0.7236  -13.5636   18.8012 LP  0  0  0  0  0  0  0  0  0  0  0  0  # atno 16460 bound_to 1745
    1.4251  -13.4724   21.3682 LP  0  0  0  0  0  0  0  0  0  0  0  0  # atno 16461 bound_to 1791
   -0.0811  -16.6101   22.8959 LP  0  0  0  0  0  0  0  0  0  0  0  0  # atno 16462 bound_to 1794
    1.0388  -15.9538   24.0426 LP  0  0  0  0  0  0  0  0  0  0  0  0  # atno 16463 bound_to 1794
   -1.7809  -13.8320   24.1761 LP  0  0  0  0  0  0  0  0  0  0  0  0  # atno 16464 bound_to 1818
   -0.3587  -18.1314   22.8564 LP  0  0  0  0  0  0  0  0  0  0  0  0  # atno 16465 bound_to 2067
    2.9995  -16.9401   21.2498 LP  0  0  0  0  0  0  0  0  0  0  0  0  # atno 16466 bound_to 2070
    1.4803  -16.5019   20.5428 LP  0  0  0  0  0  0  0  0  0  0  0  0  # atno 16467 bound_to 2070
    1.8845  -18.6589   19.8945 LP  0  0  0  0  0  0  0  0  0  0  0  0  # atno 16468 bound_to 2117
   -3.9437  -10.8927   13.7413 LP  0  0  0  0  0  0  0  0  0  0  0  0  # atno 16469 bound_to 5617
   -7.4112  -12.8626   17.1657 LP  0  0  0  0  0  0  0  0  0  0  0  0  # atno 16474 bound_to 7834
   -7.7278  -13.2444   18.8252 LP  0  0  0  0  0  0  0  0  0  0  0  0  # atno 16475 bound_to 7834
  -10.9890  -12.5276   17.1485 LP  0  0  0  0  0  0  0  0  0  0  0  0  # atno 16476 bound_to 7874
  -11.2225  -16.1308   14.8457 LP  0  0  0  0  0  0  0  0  0  0  0  0  # atno 16477 bound_to 7877
   -9.5874  -16.5022   15.2797 LP  0  0  0  0  0  0  0  0  0  0  0  0  # atno 16478 bound_to 7877
  -10.8975  -13.0871   15.4313 LP  0  0  0  0  0  0  0  0  0  0  0  0  # atno 16479 bound_to 7916
   -7.1476  -17.5830   16.7013 LP  0  0  0  0  0  0  0  0  0  0  0  0  # atno 16480 bound_to 8469
   -8.7305  -17.5837   16.3000 LP  0  0  0  0  0  0  0  0  0  0  0  0  # atno 16481 bound_to 8469
   -1.3695   -9.2632   21.1032 LP  0  0  0  0  0  0  0  0  0  0  0  0  # atno 16484 bound_to 15466
   -2.1723   -9.9585   22.3436 LP  0  0  0  0  0  0  0  0  0  0  0  0  # atno 16485 bound_to 15466
   -8.6347  -11.5088   12.0652 LP  0  0  0  0  0  0  0  0  0  0  0  0  # atno 16486 bound_to 7919
   -8.4329  -11.7049   13.7742 LP  0  0  0  0  0  0  0  0  0  0  0  0  # atno 16487 bound_to 7919
   -8.7181  -15.0685   12.0092 LP  0  0  0  0  0  0  0  0  0  0  0  0  # atno 16488 bound_to 7973
  -10.8344  -18.9404   14.3926 LP  0  0  0  0  0  0  0  0  0  0  0  0  # atno 16489 bound_to 8463
  -11.2585  -18.4598   16.0789 LP  0  0  0  0  0  0  0  0  0  0  0  0  # atno 16490 bound_to 8466
  -11.0844  -18.5743   17.7984 LP  0  0  0  0  0  0  0  0  0  0  0  0  # atno 16491 bound_to 8466
   -8.8927  -19.6232   17.3478 LP  0  0  0  0  0  0  0  0  0  0  0  0  # atno 16492 bound_to 8507
   -0.3259  -23.3388   16.4361 LP  0  0  0  0  0  0  0  0  0  0  0  0  # atno 16495 bound_to 2717
    0.4278  -23.5469   14.8906 LP  0  0  0  0  0  0  0  0  0  0  0  0  # atno 16496 bound_to 2717
    0.5672  -22.6176   19.2458 LP  0  0  0  0  0  0  0  0  0  0  0  0  # atno 16497 bound_to 2803
   -0.9494  -15.1674   11.6436 LP  0  0  0  0  0  0  0  0  0  0  0  0  # atno 16498 bound_to 5484
   -1.2794  -13.7034   10.7789 LP  0  0  0  0  0  0  0  0  0  0  0  0  # atno 16499 bound_to 5484
    2.9348  -20.5040   17.6638 LP  0  0  0  0  0  0  0  0  0  0  0  0  # atno 16500 bound_to 2120
    4.2776  -20.4561   16.5709 LP  0  0  0  0  0  0  0  0  0  0  0  0  # atno 16501 bound_to 2120
    5.1563  -18.6614   18.0733 LP  0  0  0  0  0  0  0  0  0  0  0  0  # atno 16502 bound_to 2168
    2.7726  -22.0444   13.7763 LP  0  0  0  0  0  0  0  0  0  0  0  0  # atno 16503 bound_to 2714
    1.3450  -22.2161   16.3841 LP  0  0  0  0  0  0  0  0  0  0  0  0  # atno 16504 bound_to 2750
    2.9119  -22.1456   20.1396 LP  0  0  0  0  0  0  0  0  0  0  0  0  # atno 16505 bound_to 2753
    1.4223  -21.5157   20.7595 LP  0  0  0  0  0  0  0  0  0  0  0  0  # atno 16506 bound_to 2753
   -1.5750  -19.9643   11.3993 LP  0  0  0  0  0  0  0  0  0  0  0  0  # atno 16507 bound_to 5380
   -2.4483  -21.4507   11.5656 LP  0  0  0  0  0  0  0  0  0  0  0  0  # atno 16508 bound_to 5380
   -0.6059  -18.5603    9.9074 LP  0  0  0  0  0  0  0  0  0  0  0  0  # atno 16509 bound_to 5481
    3.7142  -12.2916   20.1251 LP  0  0  0  0  0  0  0  0  0  0  0  0  # atno 16510 bound_to 1701
    5.4014  -12.6827   20.1397 LP  0  0  0  0  0  0  0  0  0  0  0  0  # atno 16511 bound_to 1701
   -1.4838  -11.7238   10.8893 LP  0  0  0  0  0  0  0  0  0  0  0  0  # atno 16512 bound_to 5586
   -4.4941  -11.0460   10.5313 LP  0  0  0  0  0  0  0  0  0  0  0  0  # atno 16513 bound_to 5589
   -5.7982  -11.2965   11.6434 LP  0  0  0  0  0  0  0  0  0  0  0  0  # atno 16514 bound_to 5589
    4.0795  -20.8758   15.0726 LP  0  0  0  0  0  0  0  0  0  0  0  0  # atno 16515 bound_to 2668
    4.6846  -20.2947   13.5573 LP  0  0  0  0  0  0  0  0  0  0  0  0  # atno 16516 bound_to 2668
    1.0985  -23.9358   12.0879 LP  0  0  0  0  0  0  0  0  0  0  0  0  # atno 16517 bound_to 5327
    0.3894  -22.5680   12.8791 LP  0  0  0  0  0  0  0  0  0  0  0  0  # atno 16518 bound_to 5327
    0.4188  -21.2972    9.3995 LP  0  0  0  0  0  0  0  0  0  0  0  0  # atno 16519 bound_to 5428
   -0.4296  -19.9580    8.2562 LP  0  0  0  0  0  0  0  0  0  0  0  0  # atno 16520 bound_to 5431
   -0.3808  -18.2786    7.8352 LP  0  0  0  0  0  0  0  0  0  0  0  0  # atno 16521 bound_to 5431
    2.9940  -13.4500   12.3225 LP  0  0  0  0  0  0  0  0  0  0  0  0  # atno 16522 bound_to 5439
    3.4145  -13.2246   10.7608 LP  0  0  0  0  0  0  0  0  0  0  0  0  # atno 16523 bound_to 5439
    0.3667  -10.5343    9.9183 LP  0  0  0  0  0  0  0  0  0  0  0  0  # atno 16525 bound_to 5532
    1.7548  -11.5657   10.0154 LP  0  0  0  0  0  0  0  0  0  0  0  0  # atno 16526 bound_to 5532
   -1.5507  -12.9636    8.8548 LP  0  0  0  0  0  0  0  0  0  0  0  0  # atno 16527 bound_to 5565
   -2.1785  -24.5168   10.9083 LP  0  0  0  0  0  0  0  0  0  0  0  0  # atno 16528 bound_to 5377
   -5.9306  -12.0354   10.2053 LP  0  0  0  0  0  0  0  0  0  0  0  0  # atno 16529 bound_to 8030
   -3.4380  -13.1841    7.7954 LP  0  0  0  0  0  0  0  0  0  0  0  0  # atno 16530 bound_to 8033
   -3.9952  -11.5526    7.9612 LP  0  0  0  0  0  0  0  0  0  0  0  0  # atno 16531 bound_to 8033
    5.1087  -20.9411   11.7913 LP  0  0  0  0  0  0  0  0  0  0  0  0  # atno 16532 bound_to 2665
   -0.9371  -24.9425   15.3804 LP  0  0  0  0  0  0  0  0  0  0  0  0  # atno 16533 bound_to 5324
   -9.1614  -15.9306   11.2626 LP  0  0  0  0  0  0  0  0  0  0  0  0  # atno 16534 bound_to 8371
   -9.3477  -17.0733   12.5509 LP  0  0  0  0  0  0  0  0  0  0  0  0  # atno 16535 bound_to 8371
   -3.1888  -25.8781   11.2296 LP  0  0  0  0  0  0  0  0  0  0  0  0  # atno 16536 bound_to 4570
   -4.4913  -24.8877   11.7976 LP  0  0  0  0  0  0  0  0  0  0  0  0  # atno 16537 bound_to 4570
   -9.1462  -21.7004   10.1441 LP  0  0  0  0  0  0  0  0  0  0  0  0  # atno 16538 bound_to 4515
   -8.8684  -24.7620   11.7652 LP  0  0  0  0  0  0  0  0  0  0  0  0  # atno 16539 bound_to 4518
   -7.9261  -26.1638   11.3818 LP  0  0  0  0  0  0  0  0  0  0  0  0  # atno 16540 bound_to 4518
   -6.8324  -24.5290    8.9679 LP  0  0  0  0  0  0  0  0  0  0  0  0  # atno 16541 bound_to 4567
   -0.4323  -25.3008   19.2565 LP  0  0  0  0  0  0  0  0  0  0  0  0  # atno 16542 bound_to 5228
   -0.6999  -24.8094   17.6173 LP  0  0  0  0  0  0  0  0  0  0  0  0  # atno 16543 bound_to 5228
   -0.1220  -27.7688   13.5937 LP  0  0  0  0  0  0  0  0  0  0  0  0  # atno 16544 bound_to 5277
   -1.7520  -27.3106   13.9590 LP  0  0  0  0  0  0  0  0  0  0  0  0  # atno 16545 bound_to 5277
  -10.8065  -21.2623   12.5512 LP  0  0  0  0  0  0  0  0  0  0  0  0  # atno 16548 bound_to 8418
   -9.1552  -21.0759   13.0397 LP  0  0  0  0  0  0  0  0  0  0  0  0  # atno 16549 bound_to 8418
   -0.7843  -28.0654   16.5721 LP  0  0  0  0  0  0  0  0  0  0  0  0  # atno 16550 bound_to 5274
   -0.3622  -21.1888   23.0262 LP  0  0  0  0  0  0  0  0  0  0  0  0  # atno 16551 bound_to 2006
    1.2681  -21.2393   23.6090 LP  0  0  0  0  0  0  0  0  0  0  0  0  # atno 16552 bound_to 2006
  -10.2030  -22.6519   19.9202 LP  0  0  0  0  0  0  0  0  0  0  0  0  # atno 16555 bound_to 8549
   -3.3110  -13.4410   27.3691 LP  0  0  0  0  0  0  0  0  0  0  0  0  # atno 16556 bound_to 1821
   -3.3655  -13.5154   25.6395 LP  0  0  0  0  0  0  0  0  0  0  0  0  # atno 16557 bound_to 1821
   -2.9263  -16.0980   26.1535 LP  0  0  0  0  0  0  0  0  0  0  0  0  # atno 16558 bound_to 1854

> <Gold.Score>
     Fitness  S(hb_ext) S(vdw_ext)  S(hb_int)    S(int)      intcor
     31.90       1.52      22.58       0.00      -0.66      -0.76

> <Gold.Goldscore.Fitness>
31.9003

> <Gold.Goldscore.Internal.Vdw>
-0.8060

> <Gold.Goldscore.Internal.Torsion>
-0.6200

> <Gold.Goldscore.External.Vdw>
22.5755

> <Gold.Goldscore.Internal.HBond>
0.0000

> <Gold.Goldscore.External.HBond>
1.5201

> <Gold.Goldscore.Internal.Correction>
-0.7650

> <Gold.Goldscore.Hbonds>
donor molecule, donor type, donor heavy atom, donor atom, acceptor molecule, acceptor atom, score
      P1  H  7916  7946       L1    11  0.04
      L1  H    10    23       P1  7834  0.72

> <Gold.Goldscore.Internal.Vdw.Weighted>
-0.8060

> <Gold.Goldscore.Internal.Torsion.Weighted>
-0.6200

> <Gold.Goldscore.External.Vdw.Weighted>
31.0413

> <Gold.Goldscore.Internal.HBond.Weighted>
0.0000

> <Gold.Goldscore.External.HBond.Weighted>
1.5201

> <Gold.Goldscore.Internal.Correction.Weighted>
-0.7650

> <Gold.Rescore>
     Score     S(PLP)   S(hbond)     S(cho)   S(metal)  DE(clash)   DE(tors)     intcor
     32.50     -31.60       1.00       0.00       0.00       0.00       1.05       ----

> <Gold.PLP.Fitness>
32.4967

> <Gold.PLP.PLP>
-31.5997

> <Gold.PLP.part.hbond>
-2.1020

> <Gold.PLP.part.metal>
0.0000

> <Gold.PLP.part.buried>
1.6405

> <Gold.PLP.part.nonpolar>
-32.4652

> <Gold.PLP.part.repulsive>
0.4623

> <Gold.PLP.ligand.clash>
0.0000

> <Gold.PLP.ligand.torsion>
1.0515

> <Gold.PLP.Chemscore.Hbond>
1.0000

> <Gold.PLP.Chemscore.CHOScore>
0.0000

> <Gold.PLP.Chemscore.Metal>
0.0000

> <Gold.Chemscore.Hbonds>
donor molecule, donor type, donor heavy atom, donor atom, acceptor molecule, acceptor atom, score
      L1  H    10    23       P1  7834  0.41

> <Gold.PLP.Chemscore.Internal.Correction>
   9.000000E+99

