#       Name:                CT1002167954
#       Creating user name   hitesit
#       Creation time:       Sun Apr 16 20:16:46 2023


#       File generated by GOLD software.
#

@<TRIPOS>MOLECULE
CT1002167954|ligand_prepared|mol2|1|dock7
    29    30     1
SMALL
NO_CHARGES


@<TRIPOS>ATOM
      1 C1         116.9204 245.6352 359.4186 C.3            1 RES1               0.0000
      2 C2         117.8836 246.4946 358.5745 C.ar           1 RES1               0.0000
      3 C3         117.6270 245.3786 360.7464 C.2            1 RES1               0.0000
      4 C4         115.6311 246.4391 359.5451 C.2            1 RES1               0.0000
      5 C5         116.5726 244.2724 358.7758 C.3            1 RES1               0.0000
      6 C6         117.6893 247.8675 358.4557 C.ar           1 RES1               0.0000
      7 C7         118.9706 245.9302 357.9122 C.ar           1 RES1               0.0000
      8 N8         117.1790 246.0563 361.8419 N.am           1 RES1               0.0000
      9 O9         118.5880 244.6231 360.8234 O.2            1 RES1               0.0000
     10 N10        115.2715 246.8842 360.7903 N.am           1 RES1               0.0000
     11 O11        114.9319 246.7052 358.5753 O.2            1 RES1               0.0000
     12 C12        115.3284 243.6198 359.3575 C.3            1 RES1               0.0000
     13 C13        118.5519 248.6484 357.7044 C.ar           1 RES1               0.0000
     14 C14        119.8319 246.7129 357.1612 C.ar           1 RES1               0.0000
     15 C15        116.0029 246.7555 361.9395 C.2            1 RES1               0.0000
     16 C16        119.6239 248.0719 357.0571 C.ar           1 RES1               0.0000
     17 O17        115.6388 247.2305 363.0114 O.2            1 RES1               0.0000
     18 H18        116.4245 244.4175 357.6986 H              1 RES1               0.0000
     19 H19        117.4229 243.5921 358.9086 H              1 RES1               0.0000
     20 H20        116.8497 248.3385 358.9559 H              1 RES1               0.0000
     21 H21        119.1531 244.8631 357.9791 H              1 RES1               0.0000
     22 H22        117.7735 246.0420 362.6645 H              1 RES1               0.0000
     23 H23        114.3755 247.3550 360.8676 H              1 RES1               0.0000
     24 H24        115.1296 242.6669 358.8715 H              1 RES1               0.0000
     25 H25        115.4507 243.4377 360.4232 H              1 RES1               0.0000
     26 H26        114.4581 244.2583 359.2204 H              1 RES1               0.0000
     27 H27        118.3830 249.7172 357.6245 H              1 RES1               0.0000
     28 H28        120.6739 246.2548 356.6530 H              1 RES1               0.0000
     29 H29        120.2997 248.6839 356.4690 H              1 RES1               0.0000
@<TRIPOS>BOND
    1    1    2 1     
    2    1    3 1     
    3    1    4 1     
    4    1    5 1     
    5    2    6 ar    
    6    2    7 ar    
    7    3    8 1     
    8    3    9 2     
    9    4   10 1     
   10    4   11 2     
   11    5   12 1     
   12    5   18 1     
   13    5   19 1     
   14    6   13 ar    
   15    6   20 1     
   16    7   14 ar    
   17    7   21 1     
   18    8   15 1     
   19    8   22 1     
   20   10   15 1     
   21   10   23 1     
   22   12   24 1     
   23   12   25 1     
   24   12   26 1     
   25   13   16 ar    
   26   13   27 1     
   27   14   16 ar    
   28   14   28 1     
   29   15   17 2     
   30   16   29 1     
@<TRIPOS>SUBSTRUCTURE
      1 RES1           1
@<TRIPOS>SET
DONOR_HYDROGENS      STATIC     ATOMS    <user>   **** ""
2 22 23
ATOM$RED        STATIC     ATOMS    COLORGROUP SYSTEM
2 22 23
@<TRIPOS>COMMENT
> <Gold.Version>
2022.3.0

> <Gold.Id.Protein>
unknown|4uch_clean|pdb

> <Gold.Protein.RotatedTorsions>
[ 12872 12851 12850 12848 ] final  -64.60 input   59.98 | X-H torsion
[ 13459 13409 13408 13404 ] final  115.41 input   59.99 | X-H torsion
[ 5555 5539 5538 5535 ] final   33.91 input   60.02 | X-H torsion
[ 9075 9061 9060 9058 ] final   45.83 input   59.99 | X-H torsion
[ 8987 8971 8970 8967 ] final  122.43 input   60.01 | X-H torsion
[ 8337 8307 8306 8304 ] final  -65.94 input   59.99 | X-H torsion
[ 13454 13411 13410 13408 ] final   88.42 input   60.01 | X-H torsion

> <Gold.Protein.ActiveResidues>
 TRP311  MET341  HIS342  TRP414  ALA417  ARG419  CYS420  VAL421  GLY422  ARG423 
 SER462  ALA463  SER482  GLN483  LEU484  ILE485  ARG486  TRP566  TYR567  LEU569 
 PRO570  ALA571  VAL572  SER573  ASN574  MET575  PHE589  SER590  GLY591  TRP592 
 TYR593  MET594  GLU597  ILE598  ARG601  ASP602  ARG608  TRP683  PHE696  HIS697 
 GLU710  TYR711  GLN712  ASP714  HEM750  H4B760 

> <Gold.Protein.RotatedAtoms>
  126.4315  248.9443  362.1516 H   0  0  0  0  0  0  0  0  0  0  0  0  # atno 5555 bound_to 5539
  124.0238  241.9711  360.5223 H   0  0  0  0  0  0  0  0  0  0  0  0  # atno 8337 bound_to 8307
  114.8021  243.7408  367.6184 H   0  0  0  0  0  0  0  0  0  0  0  0  # atno 8987 bound_to 8971
  121.7914  241.9666  360.0178 H   0  0  0  0  0  0  0  0  0  0  0  0  # atno 9075 bound_to 9061
  120.6755  253.8352  354.0226 H   0  0  0  0  0  0  0  0  0  0  0  0  # atno 12872 bound_to 12851
  122.1775  253.6905  345.4713 H   0  0  0  0  0  0  0  0  0  0  0  0  # atno 13454 bound_to 13411
  124.1008  250.0448  344.6994 H   0  0  0  0  0  0  0  0  0  0  0  0  # atno 13459 bound_to 13409
  119.5416  254.6619  353.1991 LP  0  0  0  0  0  0  0  0  0  0  0  0  # atno 13471 bound_to 12851
  119.1519  253.9000  354.5899 LP  0  0  0  0  0  0  0  0  0  0  0  0  # atno 13472 bound_to 12851
  123.6721  249.1779  346.0077 LP  0  0  0  0  0  0  0  0  0  0  0  0  # atno 13488 bound_to 13409
  124.8912  250.2600  346.1051 LP  0  0  0  0  0  0  0  0  0  0  0  0  # atno 13489 bound_to 13409
  127.8890  249.6557  362.0246 LP  0  0  0  0  0  0  0  0  0  0  0  0  # atno 13492 bound_to 5539
  126.9754  249.4155  360.6926 LP  0  0  0  0  0  0  0  0  0  0  0  0  # atno 13493 bound_to 5539
  122.6285  240.6649  359.5145 LP  0  0  0  0  0  0  0  0  0  0  0  0  # atno 13518 bound_to 9061
  122.1810  240.7962  361.0794 LP  0  0  0  0  0  0  0  0  0  0  0  0  # atno 13519 bound_to 9061
  113.9601  245.0882  367.2673 LP  0  0  0  0  0  0  0  0  0  0  0  0  # atno 13520 bound_to 8971
  115.1796  245.1434  368.3519 LP  0  0  0  0  0  0  0  0  0  0  0  0  # atno 13521 bound_to 8971
  125.5190  242.2731  361.0889 LP  0  0  0  0  0  0  0  0  0  0  0  0  # atno 13526 bound_to 8307
  124.2269  243.0273  361.7433 LP  0  0  0  0  0  0  0  0  0  0  0  0  # atno 13527 bound_to 8307

> <Gold.Score>
     Fitness  S(hb_ext) S(vdw_ext)  S(hb_int)    S(int)      intcor
     45.01      10.80      26.19       0.00      -1.80      -0.76

> <Gold.Goldscore.Fitness>
45.0134

> <Gold.Goldscore.Internal.Vdw>
-1.7189

> <Gold.Goldscore.Internal.Torsion>
-0.8426

> <Gold.Goldscore.External.Vdw>
26.1908

> <Gold.Goldscore.Internal.HBond>
0.0000

> <Gold.Goldscore.External.HBond>
10.8040

> <Gold.Goldscore.Internal.Correction>
-0.7585

> <Gold.Goldscore.Hbonds>
donor molecule, donor type, donor heavy atom, donor atom, acceptor molecule, acceptor atom, score
      P1  H  8438  8461       L1    17  0.45
      P1  M 13284 13534       L1    11  0.99

> <Gold.Goldscore.Internal.Vdw.Weighted>
-1.7189

> <Gold.Goldscore.Internal.Torsion.Weighted>
-0.8426

> <Gold.Goldscore.External.Vdw.Weighted>
36.0124

> <Gold.Goldscore.Internal.HBond.Weighted>
0.0000

> <Gold.Goldscore.External.HBond.Weighted>
10.8040

> <Gold.Goldscore.Internal.Correction.Weighted>
-0.7585

> <Gold.Rescore>
     Score     S(PLP)   S(hbond)     S(cho)   S(metal)  DE(clash)   DE(tors)     intcor
     30.37     -27.22       0.00       0.00       1.00       1.37       0.74       ----

> <Gold.PLP.Fitness>
30.3731

> <Gold.PLP.PLP>
-27.2186

> <Gold.PLP.part.hbond>
-2.4111

> <Gold.PLP.part.metal>
-1.0000

> <Gold.PLP.part.buried>
23.9632

> <Gold.PLP.part.nonpolar>
-52.3993

> <Gold.PLP.part.repulsive>
3.3207

> <Gold.PLP.ligand.clash>
1.3707

> <Gold.PLP.ligand.torsion>
0.7374

> <Gold.PLP.Chemscore.Hbond>
0.0000

> <Gold.PLP.Chemscore.CHOScore>
0.0000

> <Gold.PLP.Chemscore.Metal>
1.0000

> <Gold.Chemscore.Hbonds>
donor molecule, donor type, donor heavy atom, donor atom, acceptor molecule, acceptor atom, score
      L1  H     8    22       P1  8393  0.01
      P1  M 13284 13284       L1    11  1.00

> <Gold.PLP.Chemscore.Internal.Correction>
   9.000000E+99

