#       Name:                CT1002167954
#       Creating user name   hitesit
#       Creation time:       Sun Apr 16 20:16:39 2023


#       File generated by GOLD software.
#

@<TRIPOS>MOLECULE
CT1002167954|ligand_prepared|mol2|1|dock1
    29    30     1
SMALL
NO_CHARGES


@<TRIPOS>ATOM
      1 C1         123.2735 246.1732 354.8624 C.3            1 RES1               0.0000
      2 C2         122.4778 247.0776 355.8256 C.ar           1 RES1               0.0000
      3 C3         122.7733 246.4983 353.4580 C.2            1 RES1               0.0000
      4 C4         124.7455 246.4990 355.0894 C.2            1 RES1               0.0000
      5 C5         123.0740 244.6609 355.1170 C.3            1 RES1               0.0000
      6 C6         122.3310 248.4364 355.5632 C.ar           1 RES1               0.0000
      7 C7         121.8837 246.5679 356.9771 C.ar           1 RES1               0.0000
      8 N8         123.5936 247.2270 352.6481 N.am           1 RES1               0.0000
      9 O9         121.6599 246.1544 353.0806 O.2            1 RES1               0.0000
     10 N10        125.4400 247.0820 354.0621 N.am           1 RES1               0.0000
     11 O11        125.3061 246.2712 356.1544 O.2            1 RES1               0.0000
     12 C12        123.6904 243.7726 354.0479 C.3            1 RES1               0.0000
     13 C13        121.6138 249.2555 356.4193 C.ar           1 RES1               0.0000
     14 C14        121.1671 247.3889 357.8321 C.ar           1 RES1               0.0000
     15 C15        124.9229 247.4889 352.8624 C.2            1 RES1               0.0000
     16 C16        121.0310 248.7324 357.5539 C.ar           1 RES1               0.0000
     17 O17        125.5995 248.0560 352.0092 O.2            1 RES1               0.0000
     18 H18        123.5169 244.4048 356.0874 H              1 RES1               0.0000
     19 H19        121.9987 244.4512 355.1735 H              1 RES1               0.0000
     20 H20        122.7846 248.8664 354.6764 H              1 RES1               0.0000
     21 H21        121.9786 245.5143 357.2166 H              1 RES1               0.0000
     22 H22        123.1804 247.6131 351.8051 H              1 RES1               0.0000
     23 H23        126.4346 247.2260 354.2048 H              1 RES1               0.0000
     24 H24        123.5217 242.7221 354.2749 H              1 RES1               0.0000
     25 H25        123.2547 243.9829 353.0733 H              1 RES1               0.0000
     26 H26        124.7640 243.9369 353.9818 H              1 RES1               0.0000
     27 H27        121.5108 250.3124 356.1966 H              1 RES1               0.0000
     28 H28        120.7107 246.9730 358.7242 H              1 RES1               0.0000
     29 H29        120.4689 249.3742 358.2242 H              1 RES1               0.0000
@<TRIPOS>BOND
    1    1    2 1     
    2    1    3 1     
    3    1    4 1     
    4    1    5 1     
    5    2    6 ar    
    6    2    7 ar    
    7    3    8 1     
    8    3    9 2     
    9    4   10 1     
   10    4   11 2     
   11    5   12 1     
   12    5   18 1     
   13    5   19 1     
   14    6   13 ar    
   15    6   20 1     
   16    7   14 ar    
   17    7   21 1     
   18    8   15 1     
   19    8   22 1     
   20   10   15 1     
   21   10   23 1     
   22   12   24 1     
   23   12   25 1     
   24   12   26 1     
   25   13   16 ar    
   26   13   27 1     
   27   14   16 ar    
   28   14   28 1     
   29   15   17 2     
   30   16   29 1     
@<TRIPOS>SUBSTRUCTURE
      1 RES1           1
@<TRIPOS>SET
DONOR_HYDROGENS      STATIC     ATOMS    <user>   **** ""
2 22 23
ATOM$RED        STATIC     ATOMS    COLORGROUP SYSTEM
2 22 23
@<TRIPOS>COMMENT
> <Gold.Version>
2022.3.0

> <Gold.Id.Protein>
unknown|4uch_clean|pdb

> <Gold.Protein.RotatedTorsions>
[ 12872 12851 12850 12848 ] final  -43.26 input   59.98 | X-H torsion
[ 13459 13409 13408 13404 ] final   48.16 input   59.99 | X-H torsion
[ 5555 5539 5538 5535 ] final  -35.18 input   60.02 | X-H torsion
[ 9075 9061 9060 9058 ] final  -49.27 input   59.99 | X-H torsion
[ 8987 8971 8970 8967 ] final  124.43 input   60.01 | X-H torsion
[ 8337 8307 8306 8304 ] final  -53.95 input   59.99 | X-H torsion
[ 13454 13411 13410 13408 ] final -138.22 input   60.01 | X-H torsion

> <Gold.Protein.ActiveResidues>
 TRP311  MET341  HIS342  TRP414  ALA417  ARG419  CYS420  VAL421  GLY422  ARG423 
 SER462  ALA463  SER482  GLN483  LEU484  ILE485  ARG486  TRP566  TYR567  LEU569 
 PRO570  ALA571  VAL572  SER573  ASN574  MET575  PHE589  SER590  GLY591  TRP592 
 TYR593  MET594  GLU597  ILE598  ARG601  ASP602  ARG608  TRP683  PHE696  HIS697 
 GLU710  TYR711  GLN712  ASP714  HEM750  H4B760 

> <Gold.Protein.RotatedAtoms>
  127.3480  249.3265  362.5255 H   0  0  0  0  0  0  0  0  0  0  0  0  # atno 5555 bound_to 5539
  123.8823  242.0707  360.6133 H   0  0  0  0  0  0  0  0  0  0  0  0  # atno 8337 bound_to 8307
  114.8264  243.7424  367.6401 H   0  0  0  0  0  0  0  0  0  0  0  0  # atno 8987 bound_to 8971
  122.4897  240.9955  359.3258 H   0  0  0  0  0  0  0  0  0  0  0  0  # atno 9075 bound_to 9061
  120.5337  253.6968  354.3069 H   0  0  0  0  0  0  0  0  0  0  0  0  # atno 12872 bound_to 12851
  121.0153  252.9042  344.4760 H   0  0  0  0  0  0  0  0  0  0  0  0  # atno 13454 bound_to 13411
  123.5295  249.3408  345.2017 H   0  0  0  0  0  0  0  0  0  0  0  0  # atno 13459 bound_to 13409
  119.8801  254.6109  353.1303 LP  0  0  0  0  0  0  0  0  0  0  0  0  # atno 13471 bound_to 12851
  118.9563  254.0905  354.3723 LP  0  0  0  0  0  0  0  0  0  0  0  0  # atno 13472 bound_to 12851
  124.4295  249.6910  346.5111 LP  0  0  0  0  0  0  0  0  0  0  0  0  # atno 13488 bound_to 13409
  124.7094  250.4560  345.0958 LP  0  0  0  0  0  0  0  0  0  0  0  0  # atno 13489 bound_to 13409
  127.6754  249.7074  360.9782 LP  0  0  0  0  0  0  0  0  0  0  0  0  # atno 13492 bound_to 5539
  126.2654  248.9785  361.3622 LP  0  0  0  0  0  0  0  0  0  0  0  0  # atno 13493 bound_to 5539
  122.3864  240.5105  360.8758 LP  0  0  0  0  0  0  0  0  0  0  0  0  # atno 13518 bound_to 9061
  121.7200  241.9282  360.4149 LP  0  0  0  0  0  0  0  0  0  0  0  0  # atno 13519 bound_to 9061
  113.9529  245.0596  367.2528 LP  0  0  0  0  0  0  0  0  0  0  0  0  # atno 13520 bound_to 8971
  115.1623  245.1704  368.3445 LP  0  0  0  0  0  0  0  0  0  0  0  0  # atno 13521 bound_to 8971
  125.4739  242.1495  360.9423 LP  0  0  0  0  0  0  0  0  0  0  0  0  # atno 13526 bound_to 8307
  124.4146  243.0505  361.7983 LP  0  0  0  0  0  0  0  0  0  0  0  0  # atno 13527 bound_to 8307

> <Gold.Score>
     Fitness  S(hb_ext) S(vdw_ext)  S(hb_int)    S(int)      intcor
     30.61       6.06      17.92       0.00      -0.10      -0.76

> <Gold.Goldscore.Fitness>
30.6050

> <Gold.Goldscore.Internal.Vdw>
-0.3766

> <Gold.Goldscore.Internal.Torsion>
-0.4848

> <Gold.Goldscore.External.Vdw>
17.9229

> <Gold.Goldscore.Internal.HBond>
0.0000

> <Gold.Goldscore.External.HBond>
6.0574

> <Gold.Goldscore.Internal.Correction>
-0.7650

> <Gold.Goldscore.Hbonds>
donor molecule, donor type, donor heavy atom, donor atom, acceptor molecule, acceptor atom, score
      P1  H 13399 13450       L1     9  0.03
      L1  H     8    22       P1 13402  1.00

> <Gold.Goldscore.Internal.Vdw.Weighted>
-0.3766

> <Gold.Goldscore.Internal.Torsion.Weighted>
-0.4848

> <Gold.Goldscore.External.Vdw.Weighted>
24.6440

> <Gold.Goldscore.Internal.HBond.Weighted>
0.0000

> <Gold.Goldscore.External.HBond.Weighted>
6.0574

> <Gold.Goldscore.Internal.Correction.Weighted>
-0.7650

> <Gold.Rescore>
     Score     S(PLP)   S(hbond)     S(cho)   S(metal)  DE(clash)   DE(tors)     intcor
     26.81     -24.02       0.99       0.00       0.00       0.00       0.09       ----

> <Gold.PLP.Fitness>
26.8097

> <Gold.PLP.PLP>
-24.0231

> <Gold.PLP.part.hbond>
-4.1717

> <Gold.PLP.part.metal>
0.0000

> <Gold.PLP.part.buried>
3.9928

> <Gold.PLP.part.nonpolar>
-23.3183

> <Gold.PLP.part.repulsive>
0.5352

> <Gold.PLP.ligand.clash>
0.0000

> <Gold.PLP.ligand.torsion>
0.0936

> <Gold.PLP.Chemscore.Hbond>
0.9913

> <Gold.PLP.Chemscore.CHOScore>
0.0000

> <Gold.PLP.Chemscore.Metal>
0.0000

> <Gold.Chemscore.Hbonds>
donor molecule, donor type, donor heavy atom, donor atom, acceptor molecule, acceptor atom, score
      L1  H     8    22       P1 13402  1.00

> <Gold.PLP.Chemscore.Internal.Correction>
   9.000000E+99

