#       Name:                CT1002167954
#       Creating user name   hitesit
#       Creation time:       Sun Apr 16 20:16:42 2023


#       File generated by GOLD software.
#

@<TRIPOS>MOLECULE
CT1002167954|ligand_prepared|mol2|1|dock3
    29    30     1
SMALL
NO_CHARGES


@<TRIPOS>ATOM
      1 C1         119.7329 245.6878 359.1317 C.3            1 RES1               0.0000
      2 C2         118.2629 246.0145 359.4651 C.ar           1 RES1               0.0000
      3 C3         119.9115 245.9851 357.6458 C.2            1 RES1               0.0000
      4 C4         120.5825 246.5618 360.0476 C.2            1 RES1               0.0000
      5 C5         120.1184 244.2121 359.3871 C.3            1 RES1               0.0000
      6 C6         117.7455 245.7427 360.7281 C.ar           1 RES1               0.0000
      7 C7         117.4144 246.5892 358.5226 C.ar           1 RES1               0.0000
      8 N8         120.6098 247.1060 357.3052 N.am           1 RES1               0.0000
      9 O9         119.4135 245.2685 356.7863 O.2            1 RES1               0.0000
     10 N10        121.3578 247.5331 359.4703 N.am           1 RES1               0.0000
     11 O11        120.5749 246.4292 361.2652 O.2            1 RES1               0.0000
     12 C12        121.5499 243.8764 358.9994 C.3            1 RES1               0.0000
     13 C13        116.4283 246.0375 361.0386 C.ar           1 RES1               0.0000
     14 C14        116.0974 246.8830 358.8352 C.ar           1 RES1               0.0000
     15 C15        121.3865 247.8650 358.1432 C.2            1 RES1               0.0000
     16 C16        115.6036 246.6082 360.0927 C.ar           1 RES1               0.0000
     17 O17        122.0690 248.7876 357.7072 O.2            1 RES1               0.0000
     18 H18        119.9798 243.9902 360.4525 H              1 RES1               0.0000
     19 H19        119.4380 243.5659 358.8188 H              1 RES1               0.0000
     20 H20        118.3788 245.2916 361.4846 H              1 RES1               0.0000
     21 H21        117.7809 246.8131 357.5266 H              1 RES1               0.0000
     22 H22        120.5487 247.4078 356.3380 H              1 RES1               0.0000
     23 H23        121.9704 248.0572 360.0870 H              1 RES1               0.0000
     24 H24        121.7681 242.8293 359.1990 H              1 RES1               0.0000
     25 H25        121.7162 244.0613 357.9402 H              1 RES1               0.0000
     26 H26        122.2548 244.4831 359.5641 H              1 RES1               0.0000
     27 H27        116.0442 245.8180 362.0293 H              1 RES1               0.0000
     28 H28        115.4517 247.3315 358.0874 H              1 RES1               0.0000
     29 H29        114.5719 246.8394 360.3364 H              1 RES1               0.0000
@<TRIPOS>BOND
    1    1    2 1     
    2    1    3 1     
    3    1    4 1     
    4    1    5 1     
    5    2    6 ar    
    6    2    7 ar    
    7    3    8 1     
    8    3    9 2     
    9    4   10 1     
   10    4   11 2     
   11    5   12 1     
   12    5   18 1     
   13    5   19 1     
   14    6   13 ar    
   15    6   20 1     
   16    7   14 ar    
   17    7   21 1     
   18    8   15 1     
   19    8   22 1     
   20   10   15 1     
   21   10   23 1     
   22   12   24 1     
   23   12   25 1     
   24   12   26 1     
   25   13   16 ar    
   26   13   27 1     
   27   14   16 ar    
   28   14   28 1     
   29   15   17 2     
   30   16   29 1     
@<TRIPOS>SUBSTRUCTURE
      1 RES1           1
@<TRIPOS>SET
DONOR_HYDROGENS      STATIC     ATOMS    <user>   **** ""
2 22 23
ATOM$RED        STATIC     ATOMS    COLORGROUP SYSTEM
2 22 23
@<TRIPOS>COMMENT
> <Gold.Version>
2022.3.0

> <Gold.Id.Protein>
unknown|4uch_clean|pdb

> <Gold.Protein.RotatedTorsions>
[ 12872 12851 12850 12848 ] final -135.28 input   59.98 | X-H torsion
[ 13459 13409 13408 13404 ] final   35.19 input   59.99 | X-H torsion
[ 5555 5539 5538 5535 ] final   16.66 input   60.02 | X-H torsion
[ 9075 9061 9060 9058 ] final -118.51 input   59.99 | X-H torsion
[ 8987 8971 8970 8967 ] final  -18.29 input   60.01 | X-H torsion
[ 8337 8307 8306 8304 ] final -175.24 input   59.99 | X-H torsion
[ 13454 13411 13410 13408 ] final   11.84 input   60.01 | X-H torsion

> <Gold.Protein.ActiveResidues>
 TRP311  MET341  HIS342  TRP414  ALA417  ARG419  CYS420  VAL421  GLY422  ARG423 
 SER462  ALA463  SER482  GLN483  LEU484  ILE485  ARG486  TRP566  TYR567  LEU569 
 PRO570  ALA571  VAL572  SER573  ASN574  MET575  PHE589  SER590  GLY591  TRP592 
 TYR593  MET594  GLU597  ILE598  ARG601  ASP602  ARG608  TRP683  PHE696  HIS697 
 GLU710  TYR711  GLN712  ASP714  HEM750  H4B760 

> <Gold.Protein.RotatedAtoms>
  126.6167  249.0029  362.3542 H   0  0  0  0  0  0  0  0  0  0  0  0  # atno 5555 bound_to 5539
  125.4740  242.1624  360.9605 H   0  0  0  0  0  0  0  0  0  0  0  0  # atno 8337 bound_to 8307
  114.0870  245.3436  367.4486 H   0  0  0  0  0  0  0  0  0  0  0  0  # atno 8987 bound_to 8971
  122.6587  240.3309  360.1393 H   0  0  0  0  0  0  0  0  0  0  0  0  # atno 9075 bound_to 9061
  120.2952  254.4469  353.2139 H   0  0  0  0  0  0  0  0  0  0  0  0  # atno 12872 bound_to 12851
  121.6620  252.9167  346.1663 H   0  0  0  0  0  0  0  0  0  0  0  0  # atno 13454 bound_to 13411
  123.5111  249.2549  345.3940 H   0  0  0  0  0  0  0  0  0  0  0  0  # atno 13459 bound_to 13409
  118.8756  254.3444  354.0023 LP  0  0  0  0  0  0  0  0  0  0  0  0  # atno 13471 bound_to 12851
  120.2009  253.6016  354.6010 LP  0  0  0  0  0  0  0  0  0  0  0  0  # atno 13472 bound_to 12851
  124.5775  249.8397  346.4746 LP  0  0  0  0  0  0  0  0  0  0  0  0  # atno 13488 bound_to 13409
  124.5799  250.3938  344.9385 LP  0  0  0  0  0  0  0  0  0  0  0  0  # atno 13489 bound_to 13409
  127.9472  249.7229  361.7561 LP  0  0  0  0  0  0  0  0  0  0  0  0  # atno 13492 bound_to 5539
  126.7306  249.2893  360.7569 LP  0  0  0  0  0  0  0  0  0  0  0  0  # atno 13493 bound_to 5539
  121.8484  241.4234  361.0328 LP  0  0  0  0  0  0  0  0  0  0  0  0  # atno 13518 bound_to 9061
  122.0879  241.6844  359.4388 LP  0  0  0  0  0  0  0  0  0  0  0  0  # atno 13519 bound_to 9061
  115.3171  244.8351  368.3846 LP  0  0  0  0  0  0  0  0  0  0  0  0  # atno 13520 bound_to 8971
  114.5428  243.7821  367.4056 LP  0  0  0  0  0  0  0  0  0  0  0  0  # atno 13521 bound_to 8971
  124.3939  243.0494  361.7938 LP  0  0  0  0  0  0  0  0  0  0  0  0  # atno 13526 bound_to 8307
  123.8914  242.0584  360.5971 LP  0  0  0  0  0  0  0  0  0  0  0  0  # atno 13527 bound_to 8307

> <Gold.Score>
     Fitness  S(hb_ext) S(vdw_ext)  S(hb_int)    S(int)      intcor
     41.32       3.36      29.13       0.00      -2.10      -0.76

> <Gold.Goldscore.Fitness>
41.3150

> <Gold.Goldscore.Internal.Vdw>
-2.4744

> <Gold.Goldscore.Internal.Torsion>
-0.3795

> <Gold.Goldscore.External.Vdw>
29.1309

> <Gold.Goldscore.Internal.HBond>
0.0000

> <Gold.Goldscore.External.HBond>
3.3554

> <Gold.Goldscore.Internal.Correction>
-0.7585

> <Gold.Goldscore.Hbonds>
donor molecule, donor type, donor heavy atom, donor atom, acceptor molecule, acceptor atom, score
      L1  H     8    22       P1 13273  0.56

> <Gold.Goldscore.Internal.Vdw.Weighted>
-2.4744

> <Gold.Goldscore.Internal.Torsion.Weighted>
-0.3795

> <Gold.Goldscore.External.Vdw.Weighted>
40.0550

> <Gold.Goldscore.Internal.HBond.Weighted>
0.0000

> <Gold.Goldscore.External.HBond.Weighted>
3.3554

> <Gold.Goldscore.Internal.Correction.Weighted>
-0.7585

> <Gold.Rescore>
     Score     S(PLP)   S(hbond)     S(cho)   S(metal)  DE(clash)   DE(tors)     intcor
     29.10     -28.22       1.00       0.00       0.00       1.24       0.44       ----

> <Gold.PLP.Fitness>
29.0993

> <Gold.PLP.PLP>
-28.2197

> <Gold.PLP.part.hbond>
-1.0000

> <Gold.PLP.part.metal>
0.0000

> <Gold.PLP.part.buried>
8.3394

> <Gold.PLP.part.nonpolar>
-43.6189

> <Gold.PLP.part.repulsive>
7.0114

> <Gold.PLP.ligand.clash>
1.2405

> <Gold.PLP.ligand.torsion>
0.4400

> <Gold.PLP.Chemscore.Hbond>
1.0000

> <Gold.PLP.Chemscore.CHOScore>
0.0000

> <Gold.PLP.Chemscore.Metal>
0.0000

> <Gold.Chemscore.Hbonds>
donor molecule, donor type, donor heavy atom, donor atom, acceptor molecule, acceptor atom, score
      L1  H     8    22       P1 13273  0.63

> <Gold.PLP.Chemscore.Internal.Correction>
   9.000000E+99

