#       Name:                CT1002167954
#       Creating user name   hitesit
#       Creation time:       Sun Apr 16 20:16:43 2023


#       File generated by GOLD software.
#

@<TRIPOS>MOLECULE
CT1002167954|ligand_prepared|mol2|1|dock4
    29    30     1
SMALL
NO_CHARGES


@<TRIPOS>ATOM
      1 C1         120.5807 245.7848 358.1343 C.3            1 RES1               0.0000
      2 C2         119.0510 245.6876 358.3056 C.ar           1 RES1               0.0000
      3 C3         121.1801 244.6849 359.0057 C.2            1 RES1               0.0000
      4 C4         120.8547 245.6164 356.6440 C.2            1 RES1               0.0000
      5 C5         121.1742 247.1419 358.5789 C.3            1 RES1               0.0000
      6 C6         118.2201 246.7032 357.8419 C.ar           1 RES1               0.0000
      7 C7         118.4569 244.5894 358.9216 C.ar           1 RES1               0.0000
      8 N8         121.6853 243.5854 358.3767 N.am           1 RES1               0.0000
      9 O9         121.1737 244.7633 360.2280 O.2            1 RES1               0.0000
     10 N10        121.5435 244.5030 356.2395 N.am           1 RES1               0.0000
     11 O11        120.4658 246.4295 355.8145 O.2            1 RES1               0.0000
     12 C12        122.3660 247.5914 357.7484 C.3            1 RES1               0.0000
     13 C13        116.8450 246.6225 357.9861 C.ar           1 RES1               0.0000
     14 C14        117.0815 244.5108 359.0651 C.ar           1 RES1               0.0000
     15 C15        121.9445 243.4645 357.0351 C.2            1 RES1               0.0000
     16 C16        116.2747 245.5262 358.5973 C.ar           1 RES1               0.0000
     17 O17        122.5115 242.4711 356.5893 O.2            1 RES1               0.0000
     18 H18        120.3910 247.9074 358.5160 H              1 RES1               0.0000
     19 H19        121.4842 247.0649 359.6284 H              1 RES1               0.0000
     20 H20        118.6509 247.5748 357.3605 H              1 RES1               0.0000
     21 H21        119.0720 243.7792 359.2982 H              1 RES1               0.0000
     22 H22        121.8892 242.7783 358.9575 H              1 RES1               0.0000
     23 H23        121.7794 244.4429 355.2541 H              1 RES1               0.0000
     24 H24        122.7436 248.5484 358.1022 H              1 RES1               0.0000
     25 H25        123.1739 246.8652 357.8084 H              1 RES1               0.0000
     26 H26        122.0873 247.7027 356.7026 H              1 RES1               0.0000
     27 H27        116.2146 247.4250 357.6175 H              1 RES1               0.0000
     28 H28        116.6371 243.6464 359.5473 H              1 RES1               0.0000
     29 H29        115.1975 245.4631 358.7099 H              1 RES1               0.0000
@<TRIPOS>BOND
    1    1    2 1     
    2    1    3 1     
    3    1    4 1     
    4    1    5 1     
    5    2    6 ar    
    6    2    7 ar    
    7    3    8 1     
    8    3    9 2     
    9    4   10 1     
   10    4   11 2     
   11    5   12 1     
   12    5   18 1     
   13    5   19 1     
   14    6   13 ar    
   15    6   20 1     
   16    7   14 ar    
   17    7   21 1     
   18    8   15 1     
   19    8   22 1     
   20   10   15 1     
   21   10   23 1     
   22   12   24 1     
   23   12   25 1     
   24   12   26 1     
   25   13   16 ar    
   26   13   27 1     
   27   14   16 ar    
   28   14   28 1     
   29   15   17 2     
   30   16   29 1     
@<TRIPOS>SUBSTRUCTURE
      1 RES1           1
@<TRIPOS>SET
DONOR_HYDROGENS      STATIC     ATOMS    <user>   **** ""
2 22 23
ATOM$RED        STATIC     ATOMS    COLORGROUP SYSTEM
2 22 23
@<TRIPOS>COMMENT
> <Gold.Version>
2022.3.0

> <Gold.Id.Protein>
unknown|4uch_clean|pdb

> <Gold.Protein.RotatedTorsions>
[ 12872 12851 12850 12848 ] final  117.56 input   59.98 | X-H torsion
[ 13459 13409 13408 13404 ] final  -43.70 input   59.99 | X-H torsion
[ 5555 5539 5538 5535 ] final    4.11 input   60.02 | X-H torsion
[ 9075 9061 9060 9058 ] final  138.67 input   59.99 | X-H torsion
[ 8987 8971 8970 8967 ] final    7.54 input   60.01 | X-H torsion
[ 8337 8307 8306 8304 ] final  -96.20 input   59.99 | X-H torsion
[ 13454 13411 13410 13408 ] final  148.36 input   60.01 | X-H torsion

> <Gold.Protein.ActiveResidues>
 TRP311  MET341  HIS342  TRP414  ALA417  ARG419  CYS420  VAL421  GLY422  ARG423 
 SER462  ALA463  SER482  GLN483  LEU484  ILE485  ARG486  TRP566  TYR567  LEU569 
 PRO570  ALA571  VAL572  SER573  ASN574  MET575  PHE589  SER590  GLY591  TRP592 
 TYR593  MET594  GLU597  ILE598  ARG601  ASP602  ARG608  TRP683  PHE696  HIS697 
 GLU710  TYR711  GLN712  ASP714  HEM750  H4B760 

> <Gold.Protein.RotatedAtoms>
  126.7796  249.0649  362.4612 H   0  0  0  0  0  0  0  0  0  0  0  0  # atno 5555 bound_to 5539
  124.4739  241.8146  360.4144 H   0  0  0  0  0  0  0  0  0  0  0  0  # atno 8337 bound_to 8307
  113.9497  245.0118  367.2336 H   0  0  0  0  0  0  0  0  0  0  0  0  # atno 8987 bound_to 8971
  121.9619  241.1780  361.1086 H   0  0  0  0  0  0  0  0  0  0  0  0  # atno 9075 bound_to 9061
  118.9180  254.4477  353.8243 H   0  0  0  0  0  0  0  0  0  0  0  0  # atno 12872 bound_to 12851
  121.8267  253.6652  344.6041 H   0  0  0  0  0  0  0  0  0  0  0  0  # atno 13454 bound_to 13411
  124.0819  249.4071  346.4261 H   0  0  0  0  0  0  0  0  0  0  0  0  # atno 13459 bound_to 13409
  120.0080  253.6017  354.6865 LP  0  0  0  0  0  0  0  0  0  0  0  0  # atno 13471 bound_to 12851
  120.4555  254.3434  353.3022 LP  0  0  0  0  0  0  0  0  0  0  0  0  # atno 13472 bound_to 12851
  124.8977  250.4786  345.5131 LP  0  0  0  0  0  0  0  0  0  0  0  0  # atno 13488 bound_to 13409
  123.6847  249.6015  344.8604 LP  0  0  0  0  0  0  0  0  0  0  0  0  # atno 13489 bound_to 13409
  127.9415  249.7501  361.5519 LP  0  0  0  0  0  0  0  0  0  0  0  0  # atno 13492 bound_to 5539
  126.5721  249.1995  360.8533 LP  0  0  0  0  0  0  0  0  0  0  0  0  # atno 13493 bound_to 5539
  121.9538  241.8474  359.6253 LP  0  0  0  0  0  0  0  0  0  0  0  0  # atno 13518 bound_to 9061
  122.6841  240.4076  359.8704 LP  0  0  0  0  0  0  0  0  0  0  0  0  # atno 13519 bound_to 9061
  115.1342  245.2111  368.3315 LP  0  0  0  0  0  0  0  0  0  0  0  0  # atno 13520 bound_to 8971
  114.8641  243.7403  367.6753 LP  0  0  0  0  0  0  0  0  0  0  0  0  # atno 13521 bound_to 8971
  125.4525  242.6013  361.4495 LP  0  0  0  0  0  0  0  0  0  0  0  0  # atno 13526 bound_to 8307
  123.8401  242.8568  361.4914 LP  0  0  0  0  0  0  0  0  0  0  0  0  # atno 13527 bound_to 8307

> <Gold.Score>
     Fitness  S(hb_ext) S(vdw_ext)  S(hb_int)    S(int)      intcor
     29.72       2.00      26.36       0.00      -8.52      -0.76

> <Gold.Goldscore.Fitness>
29.7234

> <Gold.Goldscore.Internal.Vdw>
-7.4892

> <Gold.Goldscore.Internal.Torsion>
-1.7857

> <Gold.Goldscore.External.Vdw>
26.3562

> <Gold.Goldscore.Internal.HBond>
0.0000

> <Gold.Goldscore.External.HBond>
2.0000

> <Gold.Goldscore.Internal.Correction>
-0.7585

> <Gold.Goldscore.Hbonds>
donor molecule, donor type, donor heavy atom, donor atom, acceptor molecule, acceptor atom, score
      L1  H     8    22       P1  9061  1.00

> <Gold.Goldscore.Internal.Vdw.Weighted>
-7.4892

> <Gold.Goldscore.Internal.Torsion.Weighted>
-1.7857

> <Gold.Goldscore.External.Vdw.Weighted>
36.2398

> <Gold.Goldscore.Internal.HBond.Weighted>
0.0000

> <Gold.Goldscore.External.HBond.Weighted>
2.0000

> <Gold.Goldscore.Internal.Correction.Weighted>
-0.7585

> <Gold.Rescore>
     Score     S(PLP)   S(hbond)     S(cho)   S(metal)  DE(clash)   DE(tors)     intcor
     28.69     -28.21       1.00       0.00       0.00       1.36       0.59       ----

> <Gold.PLP.Fitness>
28.6882

> <Gold.PLP.PLP>
-28.2136

> <Gold.PLP.part.hbond>
-2.8072

> <Gold.PLP.part.metal>
0.0000

> <Gold.PLP.part.buried>
2.1221

> <Gold.PLP.part.nonpolar>
-34.2116

> <Gold.PLP.part.repulsive>
6.3341

> <Gold.PLP.ligand.clash>
1.3550

> <Gold.PLP.ligand.torsion>
0.5852

> <Gold.PLP.Chemscore.Hbond>
1.0000

> <Gold.PLP.Chemscore.CHOScore>
0.0000

> <Gold.PLP.Chemscore.Metal>
0.0000

> <Gold.Chemscore.Hbonds>
donor molecule, donor type, donor heavy atom, donor atom, acceptor molecule, acceptor atom, score
      L1  H     8    22       P1  9061  0.89

> <Gold.PLP.Chemscore.Internal.Correction>
   9.000000E+99

