#       Name:                CT1002167954
#       Creating user name   hitesit
#       Creation time:       Sun Apr 16 20:16:47 2023


#       File generated by GOLD software.
#

@<TRIPOS>MOLECULE
CT1002167954|ligand_prepared|mol2|1|dock8
    29    30     1
SMALL
NO_CHARGES


@<TRIPOS>ATOM
      1 C1         119.9925 245.3215 358.7820 C.3            1 RES1               0.0000
      2 C2         120.7552 244.8515 357.5266 C.ar           1 RES1               0.0000
      3 C3         119.7265 246.8115 358.5889 C.2            1 RES1               0.0000
      4 C4         118.7307 244.4691 358.8586 C.2            1 RES1               0.0000
      5 C5         120.7793 245.1296 360.0994 C.3            1 RES1               0.0000
      6 C6         121.4904 243.6700 357.5450 C.ar           1 RES1               0.0000
      7 C7         120.7309 245.5860 356.3440 C.ar           1 RES1               0.0000
      8 N8         118.4518 247.1920 358.2884 N.am           1 RES1               0.0000
      9 O9         120.6292 247.6363 358.6602 O.2            1 RES1               0.0000
     10 N10        117.5222 245.0950 358.6985 N.am           1 RES1               0.0000
     11 O11        118.7728 243.2584 359.0397 O.2            1 RES1               0.0000
     12 C12        120.1217 245.7796 361.3066 C.3            1 RES1               0.0000
     13 C13        122.1742 243.2369 356.4211 C.ar           1 RES1               0.0000
     14 C14        121.4156 245.1511 355.2212 C.ar           1 RES1               0.0000
     15 C15        117.3271 246.4129 358.3863 C.2            1 RES1               0.0000
     16 C16        122.1369 243.9768 355.2584 C.ar           1 RES1               0.0000
     17 O17        116.2111 246.8907 358.2042 O.2            1 RES1               0.0000
     18 H18        120.8882 244.0553 360.2924 H              1 RES1               0.0000
     19 H19        121.7843 245.5515 359.9751 H              1 RES1               0.0000
     20 H20        121.5334 243.0757 358.4516 H              1 RES1               0.0000
     21 H21        120.1709 246.5135 356.2919 H              1 RES1               0.0000
     22 H22        118.3229 248.1440 357.9605 H              1 RES1               0.0000
     23 H23        116.6911 244.5259 358.8238 H              1 RES1               0.0000
     24 H24        120.7144 245.6150 362.2040 H              1 RES1               0.0000
     25 H25        120.0205 246.8529 361.1595 H              1 RES1               0.0000
     26 H26        119.1297 245.3655 361.4749 H              1 RES1               0.0000
     27 H27        122.7415 242.3127 356.4559 H              1 RES1               0.0000
     28 H28        121.3839 245.7370 354.3085 H              1 RES1               0.0000
     29 H29        122.6723 243.6371 354.3780 H              1 RES1               0.0000
@<TRIPOS>BOND
    1    1    2 1     
    2    1    3 1     
    3    1    4 1     
    4    1    5 1     
    5    2    6 ar    
    6    2    7 ar    
    7    3    8 1     
    8    3    9 2     
    9    4   10 1     
   10    4   11 2     
   11    5   12 1     
   12    5   18 1     
   13    5   19 1     
   14    6   13 ar    
   15    6   20 1     
   16    7   14 ar    
   17    7   21 1     
   18    8   15 1     
   19    8   22 1     
   20   10   15 1     
   21   10   23 1     
   22   12   24 1     
   23   12   25 1     
   24   12   26 1     
   25   13   16 ar    
   26   13   27 1     
   27   14   16 ar    
   28   14   28 1     
   29   15   17 2     
   30   16   29 1     
@<TRIPOS>SUBSTRUCTURE
      1 RES1           1
@<TRIPOS>SET
DONOR_HYDROGENS      STATIC     ATOMS    <user>   **** ""
2 22 23
ATOM$RED        STATIC     ATOMS    COLORGROUP SYSTEM
2 22 23
@<TRIPOS>COMMENT
> <Gold.Version>
2022.3.0

> <Gold.Id.Protein>
unknown|4uch_clean|pdb

> <Gold.Protein.RotatedTorsions>
[ 12872 12851 12850 12848 ] final  130.18 input   59.98 | X-H torsion
[ 13459 13409 13408 13404 ] final   61.69 input   59.99 | X-H torsion
[ 5555 5539 5538 5535 ] final  -67.87 input   60.02 | X-H torsion
[ 9075 9061 9060 9058 ] final   70.70 input   59.99 | X-H torsion
[ 8987 8971 8970 8967 ] final   10.60 input   60.01 | X-H torsion
[ 8337 8307 8306 8304 ] final  -73.58 input   59.99 | X-H torsion
[ 13454 13411 13410 13408 ] final  -74.78 input   60.01 | X-H torsion

> <Gold.Protein.ActiveResidues>
 TRP311  MET341  HIS342  TRP414  ALA417  ARG419  CYS420  VAL421  GLY422  ARG423 
 SER462  ALA463  SER482  GLN483  LEU484  ILE485  ARG486  TRP566  TYR567  LEU569 
 PRO570  ALA571  VAL572  SER573  ASN574  MET575  PHE589  SER590  GLY591  TRP592 
 TYR593  MET594  GLU597  ILE598  ARG601  ASP602  ARG608  TRP683  PHE696  HIS697 
 GLU710  TYR711  GLN712  ASP714  HEM750  H4B760 

> <Gold.Protein.RotatedAtoms>
  127.7445  249.5541  362.2639 H   0  0  0  0  0  0  0  0  0  0  0  0  # atno 5555 bound_to 5539
  124.1273  241.9176  360.4778 H   0  0  0  0  0  0  0  0  0  0  0  0  # atno 8337 bound_to 8307
  113.9424  244.9663  367.2143 H   0  0  0  0  0  0  0  0  0  0  0  0  # atno 8987 bound_to 8971
  121.7212  241.9219  360.4125 H   0  0  0  0  0  0  0  0  0  0  0  0  # atno 9075 bound_to 9061
  118.9952  254.5330  353.6536 H   0  0  0  0  0  0  0  0  0  0  0  0  # atno 12872 bound_to 12851
  120.8406  252.4166  345.3139 H   0  0  0  0  0  0  0  0  0  0  0  0  # atno 13454 bound_to 13411
  123.5861  249.4569  345.0231 H   0  0  0  0  0  0  0  0  0  0  0  0  # atno 13459 bound_to 13409
  119.8079  253.6276  354.7339 LP  0  0  0  0  0  0  0  0  0  0  0  0  # atno 13471 bound_to 12851
  120.5779  254.2316  353.4266 LP  0  0  0  0  0  0  0  0  0  0  0  0  # atno 13472 bound_to 12851
  124.2640  249.5434  346.4996 LP  0  0  0  0  0  0  0  0  0  0  0  0  # atno 13488 bound_to 13409
  124.8178  250.4866  345.2871 LP  0  0  0  0  0  0  0  0  0  0  0  0  # atno 13489 bound_to 13409
  127.2452  249.5408  360.7157 LP  0  0  0  0  0  0  0  0  0  0  0  0  # atno 13492 bound_to 5539
  126.2960  248.9158  361.8883 LP  0  0  0  0  0  0  0  0  0  0  0  0  # atno 13493 bound_to 5539
  122.4940  240.9953  359.3204 LP  0  0  0  0  0  0  0  0  0  0  0  0  # atno 13518 bound_to 9061
  122.3862  240.5108  360.8761 LP  0  0  0  0  0  0  0  0  0  0  0  0  # atno 13519 bound_to 9061
  115.1051  245.2495  368.3170 LP  0  0  0  0  0  0  0  0  0  0  0  0  # atno 13520 bound_to 8971
  114.9005  243.7477  367.7093 LP  0  0  0  0  0  0  0  0  0  0  0  0  # atno 13521 bound_to 8971
  125.5266  242.3556  361.1832 LP  0  0  0  0  0  0  0  0  0  0  0  0  # atno 13526 bound_to 8307
  124.1151  242.9987  361.6938 LP  0  0  0  0  0  0  0  0  0  0  0  0  # atno 13527 bound_to 8307

> <Gold.Score>
     Fitness  S(hb_ext) S(vdw_ext)  S(hb_int)    S(int)      intcor
     37.26       0.71      27.37       0.00      -1.08      -0.76

> <Gold.Goldscore.Fitness>
37.2621

> <Gold.Goldscore.Internal.Vdw>
-1.3490

> <Gold.Goldscore.Internal.Torsion>
-0.4924

> <Gold.Goldscore.External.Vdw>
27.3730

> <Gold.Goldscore.Internal.HBond>
0.0000

> <Gold.Goldscore.External.HBond>
0.7071

> <Gold.Goldscore.Internal.Correction>
-0.7585

> <Gold.Goldscore.Hbonds>
donor molecule, donor type, donor heavy atom, donor atom, acceptor molecule, acceptor atom, score
      P1  M 13284 13534       L1    17  0.07

> <Gold.Goldscore.Internal.Vdw.Weighted>
-1.3490

> <Gold.Goldscore.Internal.Torsion.Weighted>
-0.4924

> <Gold.Goldscore.External.Vdw.Weighted>
37.6379

> <Gold.Goldscore.Internal.HBond.Weighted>
0.0000

> <Gold.Goldscore.External.HBond.Weighted>
0.7071

> <Gold.Goldscore.Internal.Correction.Weighted>
-0.7585

> <Gold.Rescore>
     Score     S(PLP)   S(hbond)     S(cho)   S(metal)  DE(clash)   DE(tors)     intcor
     19.51     -22.41       0.00       0.00       0.00       0.53       1.18       ----

> <Gold.PLP.Fitness>
19.5131

> <Gold.PLP.PLP>
-22.4119

> <Gold.PLP.part.hbond>
-1.7276

> <Gold.PLP.part.metal>
0.0000

> <Gold.PLP.part.buried>
7.9396

> <Gold.PLP.part.nonpolar>
-30.0803

> <Gold.PLP.part.repulsive>
0.6402

> <Gold.PLP.ligand.clash>
0.5326

> <Gold.PLP.ligand.torsion>
1.1831

> <Gold.PLP.Chemscore.Hbond>
0.0000

> <Gold.PLP.Chemscore.CHOScore>
0.0000

> <Gold.PLP.Chemscore.Metal>
0.0000

> <Gold.Chemscore.Hbonds>
donor molecule, donor type, donor heavy atom, donor atom, acceptor molecule, acceptor atom, score
      P1  M 13284 13284       L1    17  0.00

> <Gold.PLP.Chemscore.Internal.Correction>
   9.000000E+99

