#       Name:                CT1002167954
#       Creating user name   hitesit
#       Creation time:       Sun Apr 16 20:16:41 2023


#       File generated by GOLD software.
#

@<TRIPOS>MOLECULE
CT1002167954|ligand_prepared|mol2|1|dock2
    29    30     1
SMALL
NO_CHARGES


@<TRIPOS>ATOM
      1 C1         119.7115 245.7772 359.3004 C.3            1 RES1               0.0000
      2 C2         118.2529 246.0995 359.6844 C.ar           1 RES1               0.0000
      3 C3         119.8456 246.1031 357.8158 C.2            1 RES1               0.0000
      4 C4         120.5901 246.6321 360.2069 C.2            1 RES1               0.0000
      5 C5         120.1015 244.2963 359.5154 C.3            1 RES1               0.0000
      6 C6         117.7925 245.8668 360.9770 C.ar           1 RES1               0.0000
      7 C7         117.3583 246.6313 358.7595 C.ar           1 RES1               0.0000
      8 N8         120.5355 247.2294 357.4761 N.am           1 RES1               0.0000
      9 O9         119.3204 245.4040 356.9581 O.2            1 RES1               0.0000
     10 N10        121.3496 247.6133 359.6254 N.am           1 RES1               0.0000
     11 O11        120.6190 246.4758 361.4214 O.2            1 RES1               0.0000
     12 C12        121.4883 243.9463 358.9992 C.3            1 RES1               0.0000
     13 C13        116.4860 246.1581 361.3328 C.ar           1 RES1               0.0000
     14 C14        116.0521 246.9216 359.1174 C.ar           1 RES1               0.0000
     15 C15        121.3388 247.9709 358.3047 C.2            1 RES1               0.0000
     16 C16        115.6152 246.6860 360.4035 C.ar           1 RES1               0.0000
     17 O17        122.0097 248.9008 357.8662 O.2            1 RES1               0.0000
     18 H18        120.0570 244.0715 360.5882 H              1 RES1               0.0000
     19 H19        119.3653 243.6601 359.0087 H              1 RES1               0.0000
     20 H20        118.4626 245.4496 361.7212 H              1 RES1               0.0000
     21 H21        117.6798 246.8239 357.7415 H              1 RES1               0.0000
     22 H22        120.4458 247.5501 356.5172 H              1 RES1               0.0000
     23 H23        121.9816 248.1245 360.2334 H              1 RES1               0.0000
     24 H24        121.7117 242.8961 359.1749 H              1 RES1               0.0000
     25 H25        121.5605 244.1338 357.9299 H              1 RES1               0.0000
     26 H26        122.2481 244.5428 359.4999 H              1 RES1               0.0000
     27 H27        116.1466 245.9695 362.3460 H              1 RES1               0.0000
     28 H28        115.3701 247.3364 358.3826 H              1 RES1               0.0000
     29 H29        114.5919 246.9144 360.6826 H              1 RES1               0.0000
@<TRIPOS>BOND
    1    1    2 1     
    2    1    3 1     
    3    1    4 1     
    4    1    5 1     
    5    2    6 ar    
    6    2    7 ar    
    7    3    8 1     
    8    3    9 2     
    9    4   10 1     
   10    4   11 2     
   11    5   12 1     
   12    5   18 1     
   13    5   19 1     
   14    6   13 ar    
   15    6   20 1     
   16    7   14 ar    
   17    7   21 1     
   18    8   15 1     
   19    8   22 1     
   20   10   15 1     
   21   10   23 1     
   22   12   24 1     
   23   12   25 1     
   24   12   26 1     
   25   13   16 ar    
   26   13   27 1     
   27   14   16 ar    
   28   14   28 1     
   29   15   17 2     
   30   16   29 1     
@<TRIPOS>SUBSTRUCTURE
      1 RES1           1
@<TRIPOS>SET
DONOR_HYDROGENS      STATIC     ATOMS    <user>   **** ""
2 22 23
ATOM$RED        STATIC     ATOMS    COLORGROUP SYSTEM
2 22 23
@<TRIPOS>COMMENT
> <Gold.Version>
2022.3.0

> <Gold.Id.Protein>
unknown|4uch_clean|pdb

> <Gold.Protein.RotatedTorsions>
[ 12872 12851 12850 12848 ] final -179.14 input   59.98 | X-H torsion
[ 13459 13409 13408 13404 ] final  -90.15 input   59.99 | X-H torsion
[ 5555 5539 5538 5535 ] final   66.07 input   60.02 | X-H torsion
[ 9075 9061 9060 9058 ] final   92.09 input   59.99 | X-H torsion
[ 8987 8971 8970 8967 ] final  -54.14 input   60.01 | X-H torsion
[ 8337 8307 8306 8304 ] final  -37.30 input   59.99 | X-H torsion
[ 13454 13411 13410 13408 ] final -156.98 input   60.01 | X-H torsion

> <Gold.Protein.ActiveResidues>
 TRP311  MET341  HIS342  TRP414  ALA417  ARG419  CYS420  VAL421  GLY422  ARG423 
 SER462  ALA463  SER482  GLN483  LEU484  ILE485  ARG486  TRP566  TYR567  LEU569 
 PRO570  ALA571  VAL572  SER573  ASN574  MET575  PHE589  SER590  GLY591  TRP592 
 TYR593  MET594  GLU597  ILE598  ARG601  ASP602  ARG608  TRP683  PHE696  HIS697 
 GLU710  TYR711  GLN712  ASP714  HEM750  H4B760 

> <Gold.Protein.RotatedAtoms>
  126.2549  248.9316  361.6646 H   0  0  0  0  0  0  0  0  0  0  0  0  # atno 5555 bound_to 5539
  123.7379  242.2334  360.7750 H   0  0  0  0  0  0  0  0  0  0  0  0  # atno 8337 bound_to 8307
  114.4534  245.5668  367.8334 H   0  0  0  0  0  0  0  0  0  0  0  0  # atno 8987 bound_to 8971
  121.7315  241.7670  360.7234 H   0  0  0  0  0  0  0  0  0  0  0  0  # atno 9075 bound_to 9061
  119.6286  254.6544  353.1782 H   0  0  0  0  0  0  0  0  0  0  0  0  # atno 12872 bound_to 12851
  121.1984  253.1255  344.3725 H   0  0  0  0  0  0  0  0  0  0  0  0  # atno 13454 bound_to 13411
  124.6287  249.9029  346.4410 H   0  0  0  0  0  0  0  0  0  0  0  0  # atno 13459 bound_to 13409
  119.0921  253.9468  354.5416 LP  0  0  0  0  0  0  0  0  0  0  0  0  # atno 13471 bound_to 12851
  120.6557  253.7901  354.0976 LP  0  0  0  0  0  0  0  0  0  0  0  0  # atno 13472 bound_to 12851
  124.5209  250.3595  344.8832 LP  0  0  0  0  0  0  0  0  0  0  0  0  # atno 13488 bound_to 13409
  123.5108  249.2212  345.4753 LP  0  0  0  0  0  0  0  0  0  0  0  0  # atno 13489 bound_to 13409
  127.5992  249.4605  362.4127 LP  0  0  0  0  0  0  0  0  0  0  0  0  # atno 13492 bound_to 5539
  127.4432  249.6235  360.7953 LP  0  0  0  0  0  0  0  0  0  0  0  0  # atno 13493 bound_to 5539
  122.3335  241.3041  359.2840 LP  0  0  0  0  0  0  0  0  0  0  0  0  # atno 13518 bound_to 9061
  122.5363  240.3579  360.5995 LP  0  0  0  0  0  0  0  0  0  0  0  0  # atno 13519 bound_to 9061
  115.3461  244.2714  368.2493 LP  0  0  0  0  0  0  0  0  0  0  0  0  # atno 13520 bound_to 8971
  114.1448  244.1210  367.1534 LP  0  0  0  0  0  0  0  0  0  0  0  0  # atno 13521 bound_to 8971
  125.3479  241.9988  360.7527 LP  0  0  0  0  0  0  0  0  0  0  0  0  # atno 13526 bound_to 8307
  124.6860  243.0374  361.8250 LP  0  0  0  0  0  0  0  0  0  0  0  0  # atno 13527 bound_to 8307

> <Gold.Score>
     Fitness  S(hb_ext) S(vdw_ext)  S(hb_int)    S(int)      intcor
     40.53       2.34      29.75       0.00      -2.73      -0.76

> <Gold.Goldscore.Fitness>
40.5262

> <Gold.Goldscore.Internal.Vdw>
-3.0610

> <Gold.Goldscore.Internal.Torsion>
-0.4314

> <Gold.Goldscore.External.Vdw>
29.7531

> <Gold.Goldscore.Internal.HBond>
0.0000

> <Gold.Goldscore.External.HBond>
2.3431

> <Gold.Goldscore.Internal.Correction>
-0.7650

> <Gold.Goldscore.Hbonds>
donor molecule, donor type, donor heavy atom, donor atom, acceptor molecule, acceptor atom, score
      L1  H     8    22       P1 13273  0.39

> <Gold.Goldscore.Internal.Vdw.Weighted>
-3.0610

> <Gold.Goldscore.Internal.Torsion.Weighted>
-0.4314

> <Gold.Goldscore.External.Vdw.Weighted>
40.9105

> <Gold.Goldscore.Internal.HBond.Weighted>
0.0000

> <Gold.Goldscore.External.HBond.Weighted>
2.3431

> <Gold.Goldscore.Internal.Correction.Weighted>
-0.7650

> <Gold.Rescore>
     Score     S(PLP)   S(hbond)     S(cho)   S(metal)  DE(clash)   DE(tors)     intcor
     28.54     -27.40       0.84       0.00       0.00       1.36       0.02       ----

> <Gold.PLP.Fitness>
28.5421

> <Gold.PLP.PLP>
-27.3962

> <Gold.PLP.part.hbond>
-0.9672

> <Gold.PLP.part.metal>
0.0000

> <Gold.PLP.part.buried>
13.4416

> <Gold.PLP.part.nonpolar>
-47.9163

> <Gold.PLP.part.repulsive>
7.7333

> <Gold.PLP.ligand.clash>
1.3582

> <Gold.PLP.ligand.torsion>
0.0154

> <Gold.PLP.Chemscore.Hbond>
0.8450

> <Gold.PLP.Chemscore.CHOScore>
0.0000

> <Gold.PLP.Chemscore.Metal>
0.0000

> <Gold.Chemscore.Hbonds>
donor molecule, donor type, donor heavy atom, donor atom, acceptor molecule, acceptor atom, score
      L1  H     8    22       P1 13273  0.24

> <Gold.PLP.Chemscore.Internal.Correction>
   9.000000E+99

