#       Name:                CT1002167954
#       Creating user name   hitesit
#       Creation time:       Sun Apr 16 20:16:45 2023


#       File generated by GOLD software.
#

@<TRIPOS>MOLECULE
CT1002167954|ligand_prepared|mol2|1|dock6
    29    30     1
SMALL
NO_CHARGES


@<TRIPOS>ATOM
      1 C1         122.2851 244.4459 356.5422 C.3            1 RES1               0.0000
      2 C2         121.2282 244.9713 357.5351 C.ar           1 RES1               0.0000
      3 C3         123.4317 245.4524 356.5646 C.2            1 RES1               0.0000
      4 C4         122.6707 243.0527 357.0272 C.2            1 RES1               0.0000
      5 C5         121.7699 244.3204 355.0895 C.3            1 RES1               0.0000
      6 C6         121.2901 244.6293 358.8827 C.ar           1 RES1               0.0000
      7 C7         120.1889 245.7994 357.1195 C.ar           1 RES1               0.0000
      8 N8         124.5808 245.0871 357.2018 N.am           1 RES1               0.0000
      9 O9         123.3154 246.5647 356.0650 O.2            1 RES1               0.0000
     10 N10        123.9524 242.8595 357.4717 N.am           1 RES1               0.0000
     11 O11        121.8714 242.1248 357.0440 O.2            1 RES1               0.0000
     12 C12        122.6723 243.4925 354.1882 C.3            1 RES1               0.0000
     13 C13        120.3489 245.1006 359.7828 C.ar           1 RES1               0.0000
     14 C14        119.2486 246.2694 358.0214 C.ar           1 RES1               0.0000
     15 C15        124.9161 243.8210 357.6097 C.2            1 RES1               0.0000
     16 C16        119.3278 245.9211 359.3530 C.ar           1 RES1               0.0000
     17 O17        126.0290 243.5804 358.0686 O.2            1 RES1               0.0000
     18 H18        120.7728 243.8633 355.1068 H              1 RES1               0.0000
     19 H19        121.6705 245.3258 354.6621 H              1 RES1               0.0000
     20 H20        122.0850 243.9826 359.2389 H              1 RES1               0.0000
     21 H21        120.1061 246.0855 356.0765 H              1 RES1               0.0000
     22 H22        125.2530 245.8233 357.3926 H              1 RES1               0.0000
     23 H23        124.2123 241.9110 357.7229 H              1 RES1               0.0000
     24 H24        122.2648 243.4364 353.1810 H              1 RES1               0.0000
     25 H25        123.6656 243.9324 354.1279 H              1 RES1               0.0000
     26 H26        122.7732 242.4786 354.5700 H              1 RES1               0.0000
     27 H27        120.4149 244.8225 360.8295 H              1 RES1               0.0000
     28 H28        118.4463 246.9144 357.6785 H              1 RES1               0.0000
     29 H29        118.5908 246.2905 360.0584 H              1 RES1               0.0000
@<TRIPOS>BOND
    1    1    2 1     
    2    1    3 1     
    3    1    4 1     
    4    1    5 1     
    5    2    6 ar    
    6    2    7 ar    
    7    3    8 1     
    8    3    9 2     
    9    4   10 1     
   10    4   11 2     
   11    5   12 1     
   12    5   18 1     
   13    5   19 1     
   14    6   13 ar    
   15    6   20 1     
   16    7   14 ar    
   17    7   21 1     
   18    8   15 1     
   19    8   22 1     
   20   10   15 1     
   21   10   23 1     
   22   12   24 1     
   23   12   25 1     
   24   12   26 1     
   25   13   16 ar    
   26   13   27 1     
   27   14   16 ar    
   28   14   28 1     
   29   15   17 2     
   30   16   29 1     
@<TRIPOS>SUBSTRUCTURE
      1 RES1           1
@<TRIPOS>SET
DONOR_HYDROGENS      STATIC     ATOMS    <user>   **** ""
2 22 23
ATOM$RED        STATIC     ATOMS    COLORGROUP SYSTEM
2 22 23
@<TRIPOS>COMMENT
> <Gold.Version>
2022.3.0

> <Gold.Id.Protein>
unknown|4uch_clean|pdb

> <Gold.Protein.RotatedTorsions>
[ 12872 12851 12850 12848 ] final   68.43 input   59.98 | X-H torsion
[ 13459 13409 13408 13404 ] final  155.55 input   59.99 | X-H torsion
[ 5555 5539 5538 5535 ] final  -52.59 input   60.02 | X-H torsion
[ 9075 9061 9060 9058 ] final  -13.41 input   59.99 | X-H torsion
[ 8987 8971 8970 8967 ] final   47.55 input   60.01 | X-H torsion
[ 8337 8307 8306 8304 ] final -153.99 input   59.99 | X-H torsion
[ 13454 13411 13410 13408 ] final -161.54 input   60.01 | X-H torsion

> <Gold.Protein.ActiveResidues>
 TRP311  MET341  HIS342  TRP414  ALA417  ARG419  CYS420  VAL421  GLY422  ARG423 
 SER462  ALA463  SER482  GLN483  LEU484  ILE485  ARG486  TRP566  TYR567  LEU569 
 PRO570  ALA571  VAL572  SER573  ASN574  MET575  PHE589  SER590  GLY591  TRP592 
 TYR593  MET594  GLU597  ILE598  ARG601  ASP602  ARG608  TRP683  PHE696  HIS697 
 GLU710  TYR711  GLN712  ASP714  HEM750  H4B760 

> <Gold.Protein.RotatedAtoms>
  127.5783  249.4521  362.4184 H   0  0  0  0  0  0  0  0  0  0  0  0  # atno 5555 bound_to 5539
  125.3094  241.9741  360.7225 H   0  0  0  0  0  0  0  0  0  0  0  0  # atno 8337 bound_to 8307
  114.0137  244.3864  367.1114 H   0  0  0  0  0  0  0  0  0  0  0  0  # atno 8987 bound_to 8971
  122.2106  241.4998  359.3372 H   0  0  0  0  0  0  0  0  0  0  0  0  # atno 9075 bound_to 9061
  119.0262  254.0176  354.4637 H   0  0  0  0  0  0  0  0  0  0  0  0  # atno 12872 bound_to 12851
  121.2485  253.1796  344.3614 H   0  0  0  0  0  0  0  0  0  0  0  0  # atno 13454 bound_to 13411
  124.5792  250.3938  344.9480 H   0  0  0  0  0  0  0  0  0  0  0  0  # atno 13459 bound_to 13409
  120.6075  253.7391  354.2005 LP  0  0  0  0  0  0  0  0  0  0  0  0  # atno 13471 bound_to 12851
  119.7470  254.6392  353.1441 LP  0  0  0  0  0  0  0  0  0  0  0  0  # atno 13472 bound_to 12851
  123.5078  249.2505  345.3862 LP  0  0  0  0  0  0  0  0  0  0  0  0  # atno 13488 bound_to 13409
  124.5737  249.8357  346.4762 LP  0  0  0  0  0  0  0  0  0  0  0  0  # atno 13489 bound_to 13409
  127.4613  249.6306  360.8056 LP  0  0  0  0  0  0  0  0  0  0  0  0  # atno 13492 bound_to 5539
  126.2475  248.9288  361.6427 LP  0  0  0  0  0  0  0  0  0  0  0  0  # atno 13493 bound_to 5539
  122.6128  240.3153  360.3782 LP  0  0  0  0  0  0  0  0  0  0  0  0  # atno 13518 bound_to 9061
  121.7747  241.6157  360.9009 LP  0  0  0  0  0  0  0  0  0  0  0  0  # atno 13519 bound_to 9061
  114.6785  245.5537  368.0298 LP  0  0  0  0  0  0  0  0  0  0  0  0  # atno 13520 bound_to 8971
  115.2553  244.0276  368.1001 LP  0  0  0  0  0  0  0  0  0  0  0  0  # atno 13521 bound_to 8971
  124.7398  243.0285  361.8232 LP  0  0  0  0  0  0  0  0  0  0  0  0  # atno 13526 bound_to 8307
  123.7114  242.2689  360.8074 LP  0  0  0  0  0  0  0  0  0  0  0  0  # atno 13527 bound_to 8307

> <Gold.Score>
     Fitness  S(hb_ext) S(vdw_ext)  S(hb_int)    S(int)      intcor
     36.93       2.01      25.71       0.00      -0.44      -0.76

> <Gold.Goldscore.Fitness>
36.9271

> <Gold.Goldscore.Internal.Vdw>
-0.5144

> <Gold.Goldscore.Internal.Torsion>
-0.6820

> <Gold.Goldscore.External.Vdw>
25.7150

> <Gold.Goldscore.Internal.HBond>
0.0000

> <Gold.Goldscore.External.HBond>
2.0068

> <Gold.Goldscore.Internal.Correction>
-0.7585

> <Gold.Goldscore.Hbonds>
donor molecule, donor type, donor heavy atom, donor atom, acceptor molecule, acceptor atom, score
      P1  H  5563  5588       L1    17  0.03
      P1  H  5676  5713       L1    17  0.12
      P1  H  9061  9075       L1    11  0.10
      P1  H  9502  9538       L1    17  0.15
      L1  H    10    23       P1  9337  0.02

> <Gold.Goldscore.Internal.Vdw.Weighted>
-0.5144

> <Gold.Goldscore.Internal.Torsion.Weighted>
-0.6820

> <Gold.Goldscore.External.Vdw.Weighted>
35.3581

> <Gold.Goldscore.Internal.HBond.Weighted>
0.0000

> <Gold.Goldscore.External.HBond.Weighted>
2.0068

> <Gold.Goldscore.Internal.Correction.Weighted>
-0.7585

> <Gold.Rescore>
     Score     S(PLP)   S(hbond)     S(cho)   S(metal)  DE(clash)   DE(tors)     intcor
     25.19     -22.87       1.73       0.00       0.00       0.00       1.43       ----

> <Gold.PLP.Fitness>
25.1860

> <Gold.PLP.PLP>
-22.8721

> <Gold.PLP.part.hbond>
-4.6380

> <Gold.PLP.part.metal>
0.0000

> <Gold.PLP.part.buried>
6.5664

> <Gold.PLP.part.nonpolar>
-30.8341

> <Gold.PLP.part.repulsive>
6.8218

> <Gold.PLP.ligand.clash>
0.0000

> <Gold.PLP.ligand.torsion>
1.4340

> <Gold.PLP.Chemscore.Hbond>
1.7273

> <Gold.PLP.Chemscore.CHOScore>
0.0000

> <Gold.PLP.Chemscore.Metal>
0.0000

> <Gold.Chemscore.Hbonds>
donor molecule, donor type, donor heavy atom, donor atom, acceptor molecule, acceptor atom, score
      L1  H    10    23       P1  9337  0.11
      P1  H  5676  5713       L1    17  0.69
      P1  H  9061  9075       L1    11  0.21
      P1  H  9502  9538       L1    17  0.78

> <Gold.PLP.Chemscore.Internal.Correction>
   9.000000E+99

