#       Name:                CT1002167954
#       Creating user name   hitesit
#       Creation time:       Sun Apr 16 20:18:32 2023


#       File generated by GOLD software.
#

@<TRIPOS>MOLECULE
CT1002167954|ligand_prepared|mol2|1|dock1
    29    30     1
SMALL
NO_CHARGES


@<TRIPOS>ATOM
      1 C1         207.9077  26.6097  71.4396 C.3            1 RES1               0.0000
      2 C2         207.1407  27.8481  70.9327 C.ar           1 RES1               0.0000
      3 C3         208.5843  27.0281  72.7416 C.2            1 RES1               0.0000
      4 C4         206.8711  25.5039  71.6046 C.2            1 RES1               0.0000
      5 C5         208.9940  26.1042  70.4619 C.3            1 RES1               0.0000
      6 C6         207.4967  28.4609  69.7350 C.ar           1 RES1               0.0000
      7 C7         206.0752  28.3865  71.6491 C.ar           1 RES1               0.0000
      8 N8         208.0584  26.5548  73.9075 N.am           1 RES1               0.0000
      9 O9         209.5406  27.7935  72.7476 O.2            1 RES1               0.0000
     10 N10        206.6172  25.0455  72.8708 N.am           1 RES1               0.0000
     11 O11        206.2597  25.0370  70.6514 O.2            1 RES1               0.0000
     12 C12        209.7016  24.8425  70.9306 C.3            1 RES1               0.0000
     13 C13        206.8106  29.5700  69.2689 C.ar           1 RES1               0.0000
     14 C14        205.3905  29.4960  71.1812 C.ar           1 RES1               0.0000
     15 C15        207.1416  25.5421  74.0329 C.2            1 RES1               0.0000
     16 C16        205.7569  30.0880  69.9913 C.ar           1 RES1               0.0000
     17 O17        206.8231  25.1132  75.1382 O.2            1 RES1               0.0000
     18 H18        208.5287  25.9070  69.4883 H              1 RES1               0.0000
     19 H19        209.7401  26.8963  70.3227 H              1 RES1               0.0000
     20 H20        208.3249  28.0688  69.1540 H              1 RES1               0.0000
     21 H21        205.7701  27.9379  72.5884 H              1 RES1               0.0000
     22 H22        208.3760  26.9945  74.7655 H              1 RES1               0.0000
     23 H23        205.9783  24.2612  72.9547 H              1 RES1               0.0000
     24 H24        210.4534  24.5310  70.2086 H              1 RES1               0.0000
     25 H25        210.1970  25.0099  71.8848 H              1 RES1               0.0000
     26 H26        208.9928  24.0265  71.0553 H              1 RES1               0.0000
     27 H27        207.1037  30.0331  68.3325 H              1 RES1               0.0000
     28 H28        204.5622  29.9006  71.7534 H              1 RES1               0.0000
     29 H29        205.2192  30.9566  69.6257 H              1 RES1               0.0000
@<TRIPOS>BOND
    1    1    2 1     
    2    1    3 1     
    3    1    4 1     
    4    1    5 1     
    5    2    6 ar    
    6    2    7 ar    
    7    3    8 1     
    8    3    9 2     
    9    4   10 1     
   10    4   11 2     
   11    5   12 1     
   12    5   18 1     
   13    5   19 1     
   14    6   13 ar    
   15    6   20 1     
   16    7   14 ar    
   17    7   21 1     
   18    8   15 1     
   19    8   22 1     
   20   10   15 1     
   21   10   23 1     
   22   12   24 1     
   23   12   25 1     
   24   12   26 1     
   25   13   16 ar    
   26   13   27 1     
   27   14   16 ar    
   28   14   28 1     
   29   15   17 2     
   30   16   29 1     
@<TRIPOS>SUBSTRUCTURE
      1 RES1           1
@<TRIPOS>SET
DONOR_HYDROGENS      STATIC     ATOMS    <user>   **** ""
2 22 23
ATOM$RED        STATIC     ATOMS    COLORGROUP SYSTEM
2 22 23
@<TRIPOS>COMMENT
> <Gold.Version>
2022.3.0

> <Gold.Id.Protein>
unknown|4v3u_clean|pdb

> <Gold.Protein.RotatedTorsions>
[  566  526  525  524 ] final  148.52 input   59.98 | X-H torsion
[  717  667  668  669 ] final   66.00 input  100.61 | X-H torsion
[ 26064 26019 26018 26016 ] final -115.24 input   60.01 | X-H torsion
[ 27169 27085 27084 27080 ] final  -90.06 input   60.01 | X-H torsion
[  799  758  759  760 ] final -163.34 input  102.90 | X-H torsion
[ 18483 18438 18437 18435 ] final  137.78 input   59.97 | X-H torsion
[ 18287 18264 18263 18260 ] final  170.88 input   59.98 | X-H torsion
[ 10108 10080 10079 10076 ] final -138.77 input   60.03 | X-H torsion
[ 16975 16930 16929 16927 ] final  123.86 input   60.03 | X-H torsion
[ 11433 11400 11399 11396 ] final -165.51 input   59.99 | X-H torsion
[ 27163 27087 27086 27084 ] final   99.72 input   60.02 | X-H torsion
[ 27201  670  669  668 ] final   17.06 input    0.00 | X-H torsion

> <Gold.Protein.ActiveResidues>
 LYS309  TRP311  GLU312  MET341  HIS342  TRP414  ALA417  ARG419  CYS420  VAL421 
 GLY422  ARG423  SER462  ALA463  SER482  GLN483  LEU484  ILE485  ARG486  ALA502 
 TRP566  TYR567  LEU569  PRO570  ALA571  VAL572  SER573  ASN574  MET575  PHE589 
 SER590  GLY591  TRP592  TYR593  MET594  GLU597  ILE598  ARG601  ASP602  ASP605 
 ARG608  TRP683  HIS697  GLU699  TYR711  HEM750  H4B760 

> <Gold.Protein.RotatedAtoms>
  215.8329   11.3468   67.8470 H   0  0  0  0  0  0  0  0  0  0  0  0  # atno 566  bound_to 526 
  216.6031   10.1290   67.0273 H   0  0  0  0  0  0  0  0  0  0  0  0  # atno 567  bound_to 526 
  216.4297   11.6212   66.3255 H   0  0  0  0  0  0  0  0  0  0  0  0  # atno 568  bound_to 526 
  208.6221   10.0940   65.6083 H   0  0  0  0  0  0  0  0  0  0  0  0  # atno 717  bound_to 667 
  208.0584   10.7429   68.0966 H   0  0  0  0  0  0  0  0  0  0  0  0  # atno 799  bound_to 758 
  205.6877   38.2555   68.2839 H   0  0  0  0  0  0  0  0  0  0  0  0  # atno 10108 bound_to 10080
  214.7942   21.9645   74.7381 H   0  0  0  0  0  0  0  0  0  0  0  0  # atno 11433 bound_to 11400
  207.3595   25.4051   76.8146 H   0  0  0  0  0  0  0  0  0  0  0  0  # atno 16975 bound_to 16930
  209.7322   36.7005   74.7504 H   0  0  0  0  0  0  0  0  0  0  0  0  # atno 18287 bound_to 18264
  206.3908   27.2613   76.4494 H   0  0  0  0  0  0  0  0  0  0  0  0  # atno 18483 bound_to 18438
  212.1062   21.9584   62.9040 H   0  0  0  0  0  0  0  0  0  0  0  0  # atno 26064 bound_to 26019
  208.0709   15.3723   60.2939 H   0  0  0  0  0  0  0  0  0  0  0  0  # atno 27163 bound_to 27087
  206.4486   14.7537   64.6476 H   0  0  0  0  0  0  0  0  0  0  0  0  # atno 27169 bound_to 27085
  210.2584    9.5028   65.4353 LP  0  0  0  0  0  0  0  0  0  0  0  0  # atno 27200 bound_to 667 
  210.5900   11.7844   69.3647 LP  0  0  0  0  0  0  0  0  0  0  0  0  # atno 27201 bound_to 670 
  209.7337   10.5943   70.2868 LP  0  0  0  0  0  0  0  0  0  0  0  0  # atno 27202 bound_to 670 
  212.0333   23.5037   62.3986 LP  0  0  0  0  0  0  0  0  0  0  0  0  # atno 27208 bound_to 26019
  212.0218   23.1626   63.9955 LP  0  0  0  0  0  0  0  0  0  0  0  0  # atno 27209 bound_to 26019
  206.0154   13.7798   63.4179 LP  0  0  0  0  0  0  0  0  0  0  0  0  # atno 27212 bound_to 27085
  205.0261   14.9890   63.8931 LP  0  0  0  0  0  0  0  0  0  0  0  0  # atno 27213 bound_to 27085
  209.0030    9.2930   67.8361 LP  0  0  0  0  0  0  0  0  0  0  0  0  # atno 27214 bound_to 758 
  206.1920   26.2545   75.1866 LP  0  0  0  0  0  0  0  0  0  0  0  0  # atno 27251 bound_to 18438
  205.4426   25.9481   76.6048 LP  0  0  0  0  0  0  0  0  0  0  0  0  # atno 27252 bound_to 18438
  209.0398   36.9424   73.2977 LP  0  0  0  0  0  0  0  0  0  0  0  0  # atno 27253 bound_to 18264
  210.6657   36.8622   73.4272 LP  0  0  0  0  0  0  0  0  0  0  0  0  # atno 27254 bound_to 18264
  204.7910   39.3619   69.0715 LP  0  0  0  0  0  0  0  0  0  0  0  0  # atno 27255 bound_to 10080
  205.5543   38.1826   69.9041 LP  0  0  0  0  0  0  0  0  0  0  0  0  # atno 27256 bound_to 10080
  208.0299   24.4250   77.9271 LP  0  0  0  0  0  0  0  0  0  0  0  0  # atno 27261 bound_to 16930
  208.9046   25.6369   77.2693 LP  0  0  0  0  0  0  0  0  0  0  0  0  # atno 27262 bound_to 16930
  214.1474   23.4363   74.9898 LP  0  0  0  0  0  0  0  0  0  0  0  0  # atno 27269 bound_to 11400
  215.5969   23.0565   75.6388 LP  0  0  0  0  0  0  0  0  0  0  0  0  # atno 27270 bound_to 11400

> <Gold.Score>
     Fitness  S(hb_ext) S(vdw_ext)  S(hb_int)    S(int)      intcor
     42.85       1.02      30.96       0.00      -0.75      -0.78

> <Gold.Goldscore.Fitness>
42.8456

> <Gold.Goldscore.Internal.Vdw>
-1.1539

> <Gold.Goldscore.Internal.Torsion>
-0.3793

> <Gold.Goldscore.External.Vdw>
30.9623

> <Gold.Goldscore.Internal.HBond>
0.0000

> <Gold.Goldscore.External.HBond>
1.0219

> <Gold.Goldscore.Internal.Correction>
-0.7838

> <Gold.Goldscore.Hbonds>
donor molecule, donor type, donor heavy atom, donor atom, acceptor molecule, acceptor atom, score
      P1  H 16930 16975       L1    17  0.48
      L1  H     8    22       P1 11447  0.03

> <Gold.Goldscore.Internal.Vdw.Weighted>
-1.1539

> <Gold.Goldscore.Internal.Torsion.Weighted>
-0.3793

> <Gold.Goldscore.External.Vdw.Weighted>
42.5731

> <Gold.Goldscore.Internal.HBond.Weighted>
0.0000

> <Gold.Goldscore.External.HBond.Weighted>
1.0219

> <Gold.Goldscore.Internal.Correction.Weighted>
-0.7838

> <Gold.Rescore>
     Score     S(PLP)   S(hbond)     S(cho)   S(metal)  DE(clash)   DE(tors)     intcor
     35.35     -35.50       0.00       0.00       0.00       0.00       0.08       ----

> <Gold.PLP.Fitness>
35.3452

> <Gold.PLP.PLP>
-35.5021

> <Gold.PLP.part.hbond>
-4.7288

> <Gold.PLP.part.metal>
0.0000

> <Gold.PLP.part.buried>
2.1241

> <Gold.PLP.part.nonpolar>
-36.4019

> <Gold.PLP.part.repulsive>
2.2132

> <Gold.PLP.ligand.clash>
0.0000

> <Gold.PLP.ligand.torsion>
0.0785

> <Gold.PLP.Chemscore.Hbond>
0.0000

> <Gold.PLP.Chemscore.CHOScore>
0.0000

> <Gold.PLP.Chemscore.Metal>
0.0000

> <Gold.Chemscore.Hbonds>
donor molecule, donor type, donor heavy atom, donor atom, acceptor molecule, acceptor atom, score
      L1  H     8    22       P1 11447  0.32
      P1  H 16930 16975       L1    17  1.00

> <Gold.PLP.Chemscore.Internal.Correction>
   9.000000E+99

