#       Name:                CT1002167954
#       Creating user name   hitesit
#       Creation time:       Sun Apr 16 20:18:39 2023


#       File generated by GOLD software.
#

@<TRIPOS>MOLECULE
CT1002167954|ligand_prepared|mol2|1|dock10
    29    30     1
SMALL
NO_CHARGES


@<TRIPOS>ATOM
      1 C1         211.1297  24.4037  70.6861 C.3            1 RES1               0.0000
      2 C2         209.8192  24.9779  71.2620 C.ar           1 RES1               0.0000
      3 C3         211.1023  22.9048  70.9707 C.2            1 RES1               0.0000
      4 C4         211.1339  24.7553  69.2025 C.2            1 RES1               0.0000
      5 C5         212.4064  25.0011  71.3223 C.3            1 RES1               0.0000
      6 C6         208.6294  24.2625  71.1656 C.ar           1 RES1               0.0000
      7 C7         209.7850  26.2182  71.8937 C.ar           1 RES1               0.0000
      8 N8         210.8644  22.0668  69.9215 N.am           1 RES1               0.0000
      9 O9         211.2478  22.4671  72.1054 O.2            1 RES1               0.0000
     10 N10        211.0609  23.7277  68.2990 N.am           1 RES1               0.0000
     11 O11        211.1830  25.9138  68.8081 O.2            1 RES1               0.0000
     12 C12        213.6938  24.3531  70.8377 C.3            1 RES1               0.0000
     13 C13        207.4487  24.7674  71.6844 C.ar           1 RES1               0.0000
     14 C14        208.6030  26.7214  72.4117 C.ar           1 RES1               0.0000
     15 C15        210.8954  22.4013  68.5915 C.2            1 RES1               0.0000
     16 C16        207.4347  25.9968  72.3082 C.ar           1 RES1               0.0000
     17 O17        210.7832  21.5417  67.7222 O.2            1 RES1               0.0000
     18 H18        212.4445  26.0740  71.0967 H              1 RES1               0.0000
     19 H19        212.3434  24.8896  72.4118 H              1 RES1               0.0000
     20 H20        208.6205  23.2944  70.6760 H              1 RES1               0.0000
     21 H21        210.6918  26.8063  71.9858 H              1 RES1               0.0000
     22 H22        210.6428  21.1021  70.1465 H              1 RES1               0.0000
     23 H23        211.1372  23.9743  67.3173 H              1 RES1               0.0000
     24 H24        214.5586  24.8092  71.3150 H              1 RES1               0.0000
     25 H25        213.7010  23.2898  71.0684 H              1 RES1               0.0000
     26 H26        213.8015  24.4671  69.7610 H              1 RES1               0.0000
     27 H27        206.5316  24.1938  71.5991 H              1 RES1               0.0000
     28 H28        208.5966  27.6896  72.9013 H              1 RES1               0.0000
     29 H29        206.5096  26.3919  72.7149 H              1 RES1               0.0000
@<TRIPOS>BOND
    1    1    2 1     
    2    1    3 1     
    3    1    4 1     
    4    1    5 1     
    5    2    6 ar    
    6    2    7 ar    
    7    3    8 1     
    8    3    9 2     
    9    4   10 1     
   10    4   11 2     
   11    5   12 1     
   12    5   18 1     
   13    5   19 1     
   14    6   13 ar    
   15    6   20 1     
   16    7   14 ar    
   17    7   21 1     
   18    8   15 1     
   19    8   22 1     
   20   10   15 1     
   21   10   23 1     
   22   12   24 1     
   23   12   25 1     
   24   12   26 1     
   25   13   16 ar    
   26   13   27 1     
   27   14   16 ar    
   28   14   28 1     
   29   15   17 2     
   30   16   29 1     
@<TRIPOS>SUBSTRUCTURE
      1 RES1           1
@<TRIPOS>SET
DONOR_HYDROGENS      STATIC     ATOMS    <user>   **** ""
2 22 23
ATOM$RED        STATIC     ATOMS    COLORGROUP SYSTEM
2 22 23
@<TRIPOS>COMMENT
> <Gold.Version>
2022.3.0

> <Gold.Id.Protein>
unknown|4v3u_clean|pdb

> <Gold.Protein.RotatedTorsions>
[  566  526  525  524 ] final  101.51 input   59.98 | X-H torsion
[  717  667  668  669 ] final -148.07 input  100.61 | X-H torsion
[ 26064 26019 26018 26016 ] final  -24.11 input   60.01 | X-H torsion
[ 27169 27085 27084 27080 ] final -100.93 input   60.01 | X-H torsion
[  799  758  759  760 ] final -101.37 input  102.90 | X-H torsion
[ 18483 18438 18437 18435 ] final   50.14 input   59.97 | X-H torsion
[ 18287 18264 18263 18260 ] final  -67.19 input   59.98 | X-H torsion
[ 10108 10080 10079 10076 ] final   -5.72 input   60.03 | X-H torsion
[ 16975 16930 16929 16927 ] final  159.00 input   60.03 | X-H torsion
[ 11433 11400 11399 11396 ] final  118.30 input   59.99 | X-H torsion
[ 27163 27087 27086 27084 ] final  178.21 input   60.02 | X-H torsion
[ 27201  670  669  668 ] final   40.84 input    0.00 | X-H torsion

> <Gold.Protein.ActiveResidues>
 LYS309  TRP311  GLU312  MET341  HIS342  TRP414  ALA417  ARG419  CYS420  VAL421 
 GLY422  ARG423  SER462  ALA463  SER482  GLN483  LEU484  ILE485  ARG486  ALA502 
 TRP566  TYR567  LEU569  PRO570  ALA571  VAL572  SER573  ASN574  MET575  PHE589 
 SER590  GLY591  TRP592  TYR593  MET594  GLU597  ILE598  ARG601  ASP602  ASP605 
 ARG608  TRP683  HIS697  GLU699  TYR711  HEM750  H4B760 

> <Gold.Protein.RotatedAtoms>
  215.9047   11.8765   67.3021 H   0  0  0  0  0  0  0  0  0  0  0  0  # atno 566  bound_to 526 
  216.2510   10.3006   67.6825 H   0  0  0  0  0  0  0  0  0  0  0  0  # atno 567  bound_to 526 
  216.7102   10.9200   66.2147 H   0  0  0  0  0  0  0  0  0  0  0  0  # atno 568  bound_to 526 
  210.2369    9.9155   65.1318 H   0  0  0  0  0  0  0  0  0  0  0  0  # atno 717  bound_to 667 
  208.9044   10.6644   68.4364 H   0  0  0  0  0  0  0  0  0  0  0  0  # atno 799  bound_to 758 
  205.4329   38.3411   69.9803 H   0  0  0  0  0  0  0  0  0  0  0  0  # atno 10108 bound_to 10080
  214.0273   22.8255   74.6674 H   0  0  0  0  0  0  0  0  0  0  0  0  # atno 11433 bound_to 11400
  207.7823   25.7598   76.6927 H   0  0  0  0  0  0  0  0  0  0  0  0  # atno 16975 bound_to 16930
  210.6459   36.8637   73.4016 H   0  0  0  0  0  0  0  0  0  0  0  0  # atno 18287 bound_to 18264
  206.4533   26.6978   75.2837 H   0  0  0  0  0  0  0  0  0  0  0  0  # atno 18483 bound_to 18438
  212.0477   22.6954   64.0183 H   0  0  0  0  0  0  0  0  0  0  0  0  # atno 26064 bound_to 26019
  207.1154   15.3494   59.5943 H   0  0  0  0  0  0  0  0  0  0  0  0  # atno 27163 bound_to 27087
  206.5445   14.6185   64.5843 H   0  0  0  0  0  0  0  0  0  0  0  0  # atno 27169 bound_to 27085
  208.6844    9.6767   65.8997 LP  0  0  0  0  0  0  0  0  0  0  0  0  # atno 27200 bound_to 667 
  210.2889   11.9576   69.4468 LP  0  0  0  0  0  0  0  0  0  0  0  0  # atno 27201 bound_to 670 
  210.0347   10.4210   70.2047 LP  0  0  0  0  0  0  0  0  0  0  0  0  # atno 27202 bound_to 670 
  212.1013   22.1616   62.4818 LP  0  0  0  0  0  0  0  0  0  0  0  0  # atno 27208 bound_to 26019
  212.0127   23.7627   62.7903 LP  0  0  0  0  0  0  0  0  0  0  0  0  # atno 27209 bound_to 26019
  205.8568   13.8185   63.3453 LP  0  0  0  0  0  0  0  0  0  0  0  0  # atno 27212 bound_to 27085
  205.0881   15.0864   64.0294 LP  0  0  0  0  0  0  0  0  0  0  0  0  # atno 27213 bound_to 27085
  208.1832    9.3690   67.5068 LP  0  0  0  0  0  0  0  0  0  0  0  0  # atno 27214 bound_to 758 
  205.4679   25.7197   76.1323 LP  0  0  0  0  0  0  0  0  0  0  0  0  # atno 27251 bound_to 18438
  206.1037   27.0505   76.8333 LP  0  0  0  0  0  0  0  0  0  0  0  0  # atno 27252 bound_to 18438
  209.7634   36.7010   74.7591 LP  0  0  0  0  0  0  0  0  0  0  0  0  # atno 27253 bound_to 18264
  209.0222   36.9393   73.3237 LP  0  0  0  0  0  0  0  0  0  0  0  0  # atno 27254 bound_to 18264
  205.7791   38.1070   68.4075 LP  0  0  0  0  0  0  0  0  0  0  0  0  # atno 27255 bound_to 10080
  204.8228   39.3512   68.8596 LP  0  0  0  0  0  0  0  0  0  0  0  0  # atno 27256 bound_to 10080
  207.5271   24.4812   77.6663 LP  0  0  0  0  0  0  0  0  0  0  0  0  # atno 27261 bound_to 16930
  208.9816   25.2235   77.6528 LP  0  0  0  0  0  0  0  0  0  0  0  0  # atno 27262 bound_to 16930
  215.1299   23.5808   75.5957 LP  0  0  0  0  0  0  0  0  0  0  0  0  # atno 27269 bound_to 11400
  215.3867   22.0449   75.1040 LP  0  0  0  0  0  0  0  0  0  0  0  0  # atno 27270 bound_to 11400

> <Gold.Score>
     Fitness  S(hb_ext) S(vdw_ext)  S(hb_int)    S(int)      intcor
     31.97       4.38      20.63       0.00      -0.77      -0.76

> <Gold.Goldscore.Fitness>
31.9728

> <Gold.Goldscore.Internal.Vdw>
-1.1214

> <Gold.Goldscore.Internal.Torsion>
-0.4054

> <Gold.Goldscore.External.Vdw>
20.6256

> <Gold.Goldscore.Internal.HBond>
0.0000

> <Gold.Goldscore.External.HBond>
4.3809

> <Gold.Goldscore.Internal.Correction>
-0.7585

> <Gold.Goldscore.Hbonds>
donor molecule, donor type, donor heavy atom, donor atom, acceptor molecule, acceptor atom, score
      P1  H 11446 11494       L1     9  0.11
      L1  H    10    23       P1 26790  0.69

> <Gold.Goldscore.Internal.Vdw.Weighted>
-1.1214

> <Gold.Goldscore.Internal.Torsion.Weighted>
-0.4054

> <Gold.Goldscore.External.Vdw.Weighted>
28.3602

> <Gold.Goldscore.Internal.HBond.Weighted>
0.0000

> <Gold.Goldscore.External.HBond.Weighted>
4.3809

> <Gold.Goldscore.Internal.Correction.Weighted>
-0.7585

> <Gold.Rescore>
     Score     S(PLP)   S(hbond)     S(cho)   S(metal)  DE(clash)   DE(tors)     intcor
     31.16     -28.35       1.70       0.00       0.00       0.00       1.14       ----

> <Gold.PLP.Fitness>
31.1628

> <Gold.PLP.PLP>
-28.3488

> <Gold.PLP.part.hbond>
-2.9359

> <Gold.PLP.part.metal>
0.0000

> <Gold.PLP.part.buried>
-2.9794

> <Gold.PLP.part.nonpolar>
-23.5056

> <Gold.PLP.part.repulsive>
0.6034

> <Gold.PLP.ligand.clash>
0.0000

> <Gold.PLP.ligand.torsion>
1.1370

> <Gold.PLP.Chemscore.Hbond>
1.6960

> <Gold.PLP.Chemscore.CHOScore>
0.0000

> <Gold.PLP.Chemscore.Metal>
0.0000

> <Gold.Chemscore.Hbonds>
donor molecule, donor type, donor heavy atom, donor atom, acceptor molecule, acceptor atom, score
      L1  H    10    23       P1 26790  0.81
      P1  H 11446 11494       L1     9  0.53

> <Gold.PLP.Chemscore.Internal.Correction>
   9.000000E+99

