#       Name:                CT1002167954
#       Creating user name   hitesit
#       Creation time:       Sun Apr 16 20:18:36 2023


#       File generated by GOLD software.
#

@<TRIPOS>MOLECULE
CT1002167954|ligand_prepared|mol2|1|dock6
    29    30     1
SMALL
NO_CHARGES


@<TRIPOS>ATOM
      1 C1         207.6528  26.5327  71.5214 C.3            1 RES1               0.0000
      2 C2         206.8707  25.2052  71.5910 C.ar           1 RES1               0.0000
      3 C3         208.4593  26.4875  70.2270 C.2            1 RES1               0.0000
      4 C4         206.6106  27.6447  71.5665 C.2            1 RES1               0.0000
      5 C5         208.6294  26.7451  72.7015 C.3            1 RES1               0.0000
      6 C6         206.8469  24.3389  70.5021 C.ar           1 RES1               0.0000
      7 C7         206.1716  24.8326  72.7360 C.ar           1 RES1               0.0000
      8 N8         208.0351  27.2660  69.1907 N.am           1 RES1               0.0000
      9 O9         209.4297  25.7502  70.1041 O.2            1 RES1               0.0000
     10 N10        206.4670  28.4356  70.4567 N.am           1 RES1               0.0000
     11 O11        205.9009  27.8325  72.5470 O.2            1 RES1               0.0000
     12 C12        209.2193  28.1451  72.7648 C.3            1 RES1               0.0000
     13 C13        206.1520  23.1421  70.5569 C.ar           1 RES1               0.0000
     14 C14        205.4771  23.6354  72.7886 C.ar           1 RES1               0.0000
     15 C15        207.1107  28.2771  69.2597 C.2            1 RES1               0.0000
     16 C16        205.4671  22.7893  71.7001 C.ar           1 RES1               0.0000
     17 O17        206.8882  28.9955  68.2894 O.2            1 RES1               0.0000
     18 H18        208.0985  26.5429  73.6400 H              1 RES1               0.0000
     19 H19        209.4485  26.0204  72.6168 H              1 RES1               0.0000
     20 H20        207.3780  24.6007  69.5930 H              1 RES1               0.0000
     21 H21        206.1647  25.4831  73.6040 H              1 RES1               0.0000
     22 H22        208.4429  27.0790  68.2801 H              1 RES1               0.0000
     23 H23        205.8206  29.2147  70.5297 H              1 RES1               0.0000
     24 H24        209.8971  28.2402  73.6105 H              1 RES1               0.0000
     25 H25        209.7759  28.3706  71.8575 H              1 RES1               0.0000
     26 H26        208.4339  28.8900  72.8746 H              1 RES1               0.0000
     27 H27        206.1461  22.4803  69.6970 H              1 RES1               0.0000
     28 H28        204.9389  23.3621  73.6902 H              1 RES1               0.0000
     29 H29        204.9231  21.8515  71.7429 H              1 RES1               0.0000
@<TRIPOS>BOND
    1    1    2 1     
    2    1    3 1     
    3    1    4 1     
    4    1    5 1     
    5    2    6 ar    
    6    2    7 ar    
    7    3    8 1     
    8    3    9 2     
    9    4   10 1     
   10    4   11 2     
   11    5   12 1     
   12    5   18 1     
   13    5   19 1     
   14    6   13 ar    
   15    6   20 1     
   16    7   14 ar    
   17    7   21 1     
   18    8   15 1     
   19    8   22 1     
   20   10   15 1     
   21   10   23 1     
   22   12   24 1     
   23   12   25 1     
   24   12   26 1     
   25   13   16 ar    
   26   13   27 1     
   27   14   16 ar    
   28   14   28 1     
   29   15   17 2     
   30   16   29 1     
@<TRIPOS>SUBSTRUCTURE
      1 RES1           1
@<TRIPOS>SET
DONOR_HYDROGENS      STATIC     ATOMS    <user>   **** ""
2 22 23
ATOM$RED        STATIC     ATOMS    COLORGROUP SYSTEM
2 22 23
@<TRIPOS>COMMENT
> <Gold.Version>
2022.3.0

> <Gold.Id.Protein>
unknown|4v3u_clean|pdb

> <Gold.Protein.RotatedTorsions>
[  566  526  525  524 ] final   -0.65 input   59.98 | X-H torsion
[  717  667  668  669 ] final  108.67 input  100.61 | X-H torsion
[ 26064 26019 26018 26016 ] final -115.01 input   60.01 | X-H torsion
[ 27169 27085 27084 27080 ] final  103.13 input   60.01 | X-H torsion
[  799  758  759  760 ] final  -10.82 input  102.90 | X-H torsion
[ 18483 18438 18437 18435 ] final   92.72 input   59.97 | X-H torsion
[ 18287 18264 18263 18260 ] final -178.92 input   59.98 | X-H torsion
[ 10108 10080 10079 10076 ] final   -9.74 input   60.03 | X-H torsion
[ 16975 16930 16929 16927 ] final  142.18 input   60.03 | X-H torsion
[ 11433 11400 11399 11396 ] final  147.86 input   59.99 | X-H torsion
[ 27163 27087 27086 27084 ] final   62.62 input   60.02 | X-H torsion
[ 27201  670  669  668 ] final  143.92 input    0.00 | X-H torsion

> <Gold.Protein.ActiveResidues>
 LYS309  TRP311  GLU312  MET341  HIS342  TRP414  ALA417  ARG419  CYS420  VAL421 
 GLY422  ARG423  SER462  ALA463  SER482  GLN483  LEU484  ILE485  ARG486  ALA502 
 TRP566  TYR567  LEU569  PRO570  ALA571  VAL572  SER573  ASN574  MET575  PHE589 
 SER590  GLY591  TRP592  TYR593  MET594  GLU597  ILE598  ARG601  ASP602  ASP605 
 ARG608  TRP683  HIS697  GLU699  TYR711  HEM750  H4B760 

> <Gold.Protein.RotatedAtoms>
  216.6287   11.2033   66.1884 H   0  0  0  0  0  0  0  0  0  0  0  0  # atno 566  bound_to 526 
  215.8418   11.7267   67.5505 H   0  0  0  0  0  0  0  0  0  0  0  0  # atno 567  bound_to 526 
  216.3957   10.1665   67.4600 H   0  0  0  0  0  0  0  0  0  0  0  0  # atno 568  bound_to 526 
  208.9600   10.4564   65.1965 H   0  0  0  0  0  0  0  0  0  0  0  0  # atno 717  bound_to 667 
  209.2675    9.5107   68.0735 H   0  0  0  0  0  0  0  0  0  0  0  0  # atno 799  bound_to 758 
  205.4712   38.2917   69.9600 H   0  0  0  0  0  0  0  0  0  0  0  0  # atno 10108 bound_to 10080
  214.2066   22.3901   74.5873 H   0  0  0  0  0  0  0  0  0  0  0  0  # atno 11433 bound_to 11400
  207.5544   25.6109   76.7225 H   0  0  0  0  0  0  0  0  0  0  0  0  # atno 16975 bound_to 16930
  209.8984   36.6945   74.7489 H   0  0  0  0  0  0  0  0  0  0  0  0  # atno 18287 bound_to 18264
  206.5826   27.1593   75.7656 H   0  0  0  0  0  0  0  0  0  0  0  0  # atno 18483 bound_to 18438
  212.1062   21.9576   62.9078 H   0  0  0  0  0  0  0  0  0  0  0  0  # atno 26064 bound_to 26019
  208.1558   15.7983   60.7015 H   0  0  0  0  0  0  0  0  0  0  0  0  # atno 27163 bound_to 27087
  205.3615   14.1127   63.2812 H   0  0  0  0  0  0  0  0  0  0  0  0  # atno 27169 bound_to 27085
  209.9291    9.1495   65.8367 LP  0  0  0  0  0  0  0  0  0  0  0  0  # atno 27200 bound_to 667 
  209.3799   11.2763   70.1876 LP  0  0  0  0  0  0  0  0  0  0  0  0  # atno 27201 bound_to 670 
  210.9438   11.1024   69.4639 LP  0  0  0  0  0  0  0  0  0  0  0  0  # atno 27202 bound_to 670 
  212.0335   23.5008   62.3961 LP  0  0  0  0  0  0  0  0  0  0  0  0  # atno 27208 bound_to 26019
  212.0217   23.1663   63.9943 LP  0  0  0  0  0  0  0  0  0  0  0  0  # atno 27209 bound_to 26019
  205.4639   15.2471   64.4434 LP  0  0  0  0  0  0  0  0  0  0  0  0  # atno 27212 bound_to 27085
  206.6724   14.1672   64.2437 LP  0  0  0  0  0  0  0  0  0  0  0  0  # atno 27213 bound_to 27085
  207.8313   10.4871   67.8585 LP  0  0  0  0  0  0  0  0  0  0  0  0  # atno 27214 bound_to 758 
  205.7491   25.7850   75.5117 LP  0  0  0  0  0  0  0  0  0  0  0  0  # atno 27251 bound_to 18438
  205.6922   26.5204   76.9685 LP  0  0  0  0  0  0  0  0  0  0  0  0  # atno 27252 bound_to 18438
  208.9566   36.9244   73.4419 LP  0  0  0  0  0  0  0  0  0  0  0  0  # atno 27253 bound_to 18264
  210.5816   36.8862   73.2845 LP  0  0  0  0  0  0  0  0  0  0  0  0  # atno 27254 bound_to 18264
  205.7533   38.1493   68.3636 LP  0  0  0  0  0  0  0  0  0  0  0  0  # atno 27255 bound_to 10080
  204.8101   39.3587   68.9241 LP  0  0  0  0  0  0  0  0  0  0  0  0  # atno 27256 bound_to 10080
  207.7521   24.4200   77.8136 LP  0  0  0  0  0  0  0  0  0  0  0  0  # atno 27261 bound_to 16930
  208.9861   25.4346   77.4755 LP  0  0  0  0  0  0  0  0  0  0  0  0  # atno 27262 bound_to 16930
  214.7036   23.7034   75.4094 LP  0  0  0  0  0  0  0  0  0  0  0  0  # atno 27269 bound_to 11400
  215.6323   22.3608   75.3711 LP  0  0  0  0  0  0  0  0  0  0  0  0  # atno 27270 bound_to 11400

> <Gold.Score>
     Fitness  S(hb_ext) S(vdw_ext)  S(hb_int)    S(int)      intcor
     36.49       0.13      28.86       0.00      -3.32      -0.76

> <Gold.Goldscore.Fitness>
36.4912

> <Gold.Goldscore.Internal.Vdw>
-3.5568

> <Gold.Goldscore.Internal.Torsion>
-0.5197

> <Gold.Goldscore.External.Vdw>
28.8588

> <Gold.Goldscore.Internal.HBond>
0.0000

> <Gold.Goldscore.External.HBond>
0.1282

> <Gold.Goldscore.Internal.Correction>
-0.7585

> <Gold.Goldscore.Hbonds>
donor molecule, donor type, donor heavy atom, donor atom, acceptor molecule, acceptor atom, score
      P1  M 26806 27273       L1    17  0.01

> <Gold.Goldscore.Internal.Vdw.Weighted>
-3.5568

> <Gold.Goldscore.Internal.Torsion.Weighted>
-0.5197

> <Gold.Goldscore.External.Vdw.Weighted>
39.6808

> <Gold.Goldscore.Internal.HBond.Weighted>
0.0000

> <Gold.Goldscore.External.HBond.Weighted>
0.1282

> <Gold.Goldscore.Internal.Correction.Weighted>
-0.7585

> <Gold.Rescore>
     Score     S(PLP)   S(hbond)     S(cho)   S(metal)  DE(clash)   DE(tors)     intcor
     21.40     -24.61       0.00       0.00       0.00       0.01       1.60       ----

> <Gold.PLP.Fitness>
21.4040

> <Gold.PLP.PLP>
-24.6083

> <Gold.PLP.part.hbond>
-0.6120

> <Gold.PLP.part.metal>
0.0000

> <Gold.PLP.part.buried>
4.9548

> <Gold.PLP.part.nonpolar>
-30.1127

> <Gold.PLP.part.repulsive>
0.3971

> <Gold.PLP.ligand.clash>
0.0113

> <Gold.PLP.ligand.torsion>
1.5965

> <Gold.PLP.Chemscore.Hbond>
0.0000

> <Gold.PLP.Chemscore.CHOScore>
0.0000

> <Gold.PLP.Chemscore.Metal>
0.0000

> <Gold.PLP.Chemscore.Internal.Correction>
   9.000000E+99

