#       Name:                CT1002167954
#       Creating user name   hitesit
#       Creation time:       Sun Apr 16 20:18:38 2023


#       File generated by GOLD software.
#

@<TRIPOS>MOLECULE
CT1002167954|ligand_prepared|mol2|1|dock9
    29    30     1
SMALL
NO_CHARGES


@<TRIPOS>ATOM
      1 C1         207.4683  21.7905  70.8320 C.3            1 RES1               0.0000
      2 C2         208.0221  23.2298  70.8470 C.ar           1 RES1               0.0000
      3 C3         206.0256  21.8814  71.3204 C.2            1 RES1               0.0000
      4 C4         207.6093  21.2940  69.3973 C.2            1 RES1               0.0000
      5 C5         208.2381  20.8152  71.7528 C.3            1 RES1               0.0000
      6 C6         207.2605  24.2872  70.3586 C.ar           1 RES1               0.0000
      7 C7         209.2895  23.5158  71.3476 C.ar           1 RES1               0.0000
      8 N8         205.0348  21.7347  70.3948 N.am           1 RES1               0.0000
      9 O9         205.7616  22.1176  72.4929 O.2            1 RES1               0.0000
     10 N10        206.4634  21.0372  68.6912 N.am           1 RES1               0.0000
     11 O11        208.7022  21.1388  68.8665 O.2            1 RES1               0.0000
     12 C12        207.6859  19.3985  71.7437 C.3            1 RES1               0.0000
     13 C13        207.7469  25.5840  70.3728 C.ar           1 RES1               0.0000
     14 C14        209.7741  24.8133  71.3607 C.ar           1 RES1               0.0000
     15 C15        205.1823  21.2644  69.1147 C.2            1 RES1               0.0000
     16 C16        209.0037  25.8479  70.8742 C.ar           1 RES1               0.0000
     17 O17        204.2042  21.0595  68.4015 O.2            1 RES1               0.0000
     18 H18        209.2885  20.7868  71.4377 H              1 RES1               0.0000
     19 H19        208.2064  21.1998  72.7797 H              1 RES1               0.0000
     20 H20        206.2701  24.0985  69.9578 H              1 RES1               0.0000
     21 H21        209.9136  22.7174  71.7346 H              1 RES1               0.0000
     22 H22        204.0975  21.9992  70.6809 H              1 RES1               0.0000
     23 H23        206.5758  20.6398  67.7639 H              1 RES1               0.0000
     24 H24        208.2619  18.7557  72.4061 H              1 RES1               0.0000
     25 H25        206.6499  19.3861  72.0761 H              1 RES1               0.0000
     26 H26        207.7256  18.9755  70.7420 H              1 RES1               0.0000
     27 H27        207.1372  26.3945  69.9875 H              1 RES1               0.0000
     28 H28        210.7641  25.0163  71.7557 H              1 RES1               0.0000
     29 H29        209.3844  26.8639  70.8856 H              1 RES1               0.0000
@<TRIPOS>BOND
    1    1    2 1     
    2    1    3 1     
    3    1    4 1     
    4    1    5 1     
    5    2    6 ar    
    6    2    7 ar    
    7    3    8 1     
    8    3    9 2     
    9    4   10 1     
   10    4   11 2     
   11    5   12 1     
   12    5   18 1     
   13    5   19 1     
   14    6   13 ar    
   15    6   20 1     
   16    7   14 ar    
   17    7   21 1     
   18    8   15 1     
   19    8   22 1     
   20   10   15 1     
   21   10   23 1     
   22   12   24 1     
   23   12   25 1     
   24   12   26 1     
   25   13   16 ar    
   26   13   27 1     
   27   14   16 ar    
   28   14   28 1     
   29   15   17 2     
   30   16   29 1     
@<TRIPOS>SUBSTRUCTURE
      1 RES1           1
@<TRIPOS>SET
DONOR_HYDROGENS      STATIC     ATOMS    <user>   **** ""
2 22 23
ATOM$RED        STATIC     ATOMS    COLORGROUP SYSTEM
2 22 23
@<TRIPOS>COMMENT
> <Gold.Version>
2022.3.0

> <Gold.Id.Protein>
unknown|4v3u_clean|pdb

> <Gold.Protein.RotatedTorsions>
[  566  526  525  524 ] final -152.94 input   59.98 | X-H torsion
[  717  667  668  669 ] final   72.94 input  100.61 | X-H torsion
[ 26064 26019 26018 26016 ] final   62.70 input   60.01 | X-H torsion
[ 27169 27085 27084 27080 ] final -121.49 input   60.01 | X-H torsion
[  799  758  759  760 ] final -102.56 input  102.90 | X-H torsion
[ 18483 18438 18437 18435 ] final   49.21 input   59.97 | X-H torsion
[ 18287 18264 18263 18260 ] final   27.12 input   59.98 | X-H torsion
[ 10108 10080 10079 10076 ] final  162.76 input   60.03 | X-H torsion
[ 16975 16930 16929 16927 ] final   94.52 input   60.03 | X-H torsion
[ 11433 11400 11399 11396 ] final  153.95 input   59.99 | X-H torsion
[ 27163 27087 27086 27084 ] final   35.36 input   60.02 | X-H torsion
[ 27201  670  669  668 ] final   -2.23 input    0.00 | X-H torsion

> <Gold.Protein.ActiveResidues>
 LYS309  TRP311  GLU312  MET341  HIS342  TRP414  ALA417  ARG419  CYS420  VAL421 
 GLY422  ARG423  SER462  ALA463  SER482  GLN483  LEU484  ILE485  ARG486  ALA502 
 TRP566  TYR567  LEU569  PRO570  ALA571  VAL572  SER573  ASN574  MET575  PHE589 
 SER590  GLY591  TRP592  TYR593  MET594  GLU597  ILE598  ARG601  ASP602  ASP605 
 ARG608  TRP683  HIS697  GLU699  TYR711  HEM750  H4B760 

> <Gold.Protein.RotatedAtoms>
  216.1361   10.4619   67.8197 H   0  0  0  0  0  0  0  0  0  0  0  0  # atno 566  bound_to 526 
  216.7468   10.6957   66.2963 H   0  0  0  0  0  0  0  0  0  0  0  0  # atno 567  bound_to 526 
  215.9829   11.9388   67.0839 H   0  0  0  0  0  0  0  0  0  0  0  0  # atno 568  bound_to 526 
  208.6493   10.1704   65.5383 H   0  0  0  0  0  0  0  0  0  0  0  0  # atno 717  bound_to 667 
  208.8890   10.6744   68.4341 H   0  0  0  0  0  0  0  0  0  0  0  0  # atno 799  bound_to 758 
  205.1518   38.9961   68.2590 H   0  0  0  0  0  0  0  0  0  0  0  0  # atno 10108 bound_to 10080
  214.2667   22.3109   74.5879 H   0  0  0  0  0  0  0  0  0  0  0  0  # atno 11433 bound_to 11400
  207.2082   25.0329   77.0663 H   0  0  0  0  0  0  0  0  0  0  0  0  # atno 16975 bound_to 16930
  209.3259   36.9667   73.0381 H   0  0  0  0  0  0  0  0  0  0  0  0  # atno 18287 bound_to 18264
  206.4473   26.6853   75.2773 H   0  0  0  0  0  0  0  0  0  0  0  0  # atno 18483 bound_to 18438
  212.0042   23.7797   63.3267 H   0  0  0  0  0  0  0  0  0  0  0  0  # atno 26064 bound_to 26019
  208.0060   16.1658   60.8943 H   0  0  0  0  0  0  0  0  0  0  0  0  # atno 27163 bound_to 27087
  206.6539   14.3564   64.4086 H   0  0  0  0  0  0  0  0  0  0  0  0  # atno 27169 bound_to 27085
  210.2320    9.4283   65.5035 LP  0  0  0  0  0  0  0  0  0  0  0  0  # atno 27200 bound_to 667 
  210.7828   11.5677   69.3553 LP  0  0  0  0  0  0  0  0  0  0  0  0  # atno 27201 bound_to 670 
  209.5409   10.8110   70.2961 LP  0  0  0  0  0  0  0  0  0  0  0  0  # atno 27202 bound_to 670 
  212.0748   22.2172   63.7761 LP  0  0  0  0  0  0  0  0  0  0  0  0  # atno 27208 bound_to 26019
  212.0831   22.6153   62.1925 LP  0  0  0  0  0  0  0  0  0  0  0  0  # atno 27209 bound_to 26019
  205.5592   13.9573   63.2726 LP  0  0  0  0  0  0  0  0  0  0  0  0  # atno 27212 bound_to 27085
  205.2756   15.2116   64.2791 LP  0  0  0  0  0  0  0  0  0  0  0  0  # atno 27213 bound_to 27085
  208.1981    9.3594   67.5090 LP  0  0  0  0  0  0  0  0  0  0  0  0  # atno 27214 bound_to 758 
  205.4646   25.7232   76.1470 LP  0  0  0  0  0  0  0  0  0  0  0  0  # atno 27251 bound_to 18438
  206.1131   27.0596   76.8252 LP  0  0  0  0  0  0  0  0  0  0  0  0  # atno 27252 bound_to 18438
  210.7543   36.8041   73.8006 LP  0  0  0  0  0  0  0  0  0  0  0  0  # atno 27253 bound_to 18264
  209.3603   36.7325   74.6481 LP  0  0  0  0  0  0  0  0  0  0  0  0  # atno 27254 bound_to 18264
  204.9891   38.9638   69.8779 LP  0  0  0  0  0  0  0  0  0  0  0  0  # atno 27255 bound_to 10080
  205.8959   37.8349   69.1228 LP  0  0  0  0  0  0  0  0  0  0  0  0  # atno 27256 bound_to 10080
  208.4768   24.5842   77.9814 LP  0  0  0  0  0  0  0  0  0  0  0  0  # atno 27261 bound_to 16930
  208.6101   25.8525   76.9615 LP  0  0  0  0  0  0  0  0  0  0  0  0  # atno 27262 bound_to 16930
  214.6168   23.7000   75.3597 LP  0  0  0  0  0  0  0  0  0  0  0  0  # atno 27269 bound_to 11400
  215.6587   22.4440   75.4201 LP  0  0  0  0  0  0  0  0  0  0  0  0  # atno 27270 bound_to 11400

> <Gold.Score>
     Fitness  S(hb_ext) S(vdw_ext)  S(hb_int)    S(int)      intcor
     29.84       5.94      18.38       0.00      -1.37      -0.76

> <Gold.Goldscore.Fitness>
29.8368

> <Gold.Goldscore.Internal.Vdw>
-1.7578

> <Gold.Goldscore.Internal.Torsion>
-0.3666

> <Gold.Goldscore.External.Vdw>
18.3758

> <Gold.Goldscore.Internal.HBond>
0.0000

> <Gold.Goldscore.External.HBond>
5.9358

> <Gold.Goldscore.Internal.Correction>
-0.7585

> <Gold.Goldscore.Hbonds>
donor molecule, donor type, donor heavy atom, donor atom, acceptor molecule, acceptor atom, score
      P1  H 19320 19377       L1     9  0.01
      L1  H    10    23       P1 27078  0.98

> <Gold.Goldscore.Internal.Vdw.Weighted>
-1.7578

> <Gold.Goldscore.Internal.Torsion.Weighted>
-0.3666

> <Gold.Goldscore.External.Vdw.Weighted>
25.2668

> <Gold.Goldscore.Internal.HBond.Weighted>
0.0000

> <Gold.Goldscore.External.HBond.Weighted>
5.9358

> <Gold.Goldscore.Internal.Correction.Weighted>
-0.7585

> <Gold.Rescore>
     Score     S(PLP)   S(hbond)     S(cho)   S(metal)  DE(clash)   DE(tors)     intcor
     21.37     -19.17       0.87       0.00       0.00       0.00       0.21       ----

> <Gold.PLP.Fitness>
21.3693

> <Gold.PLP.PLP>
-19.1736

> <Gold.PLP.part.hbond>
-4.4833

> <Gold.PLP.part.metal>
0.0000

> <Gold.PLP.part.buried>
-5.3613

> <Gold.PLP.part.nonpolar>
-10.2536

> <Gold.PLP.part.repulsive>
0.5156

> <Gold.PLP.ligand.clash>
0.0000

> <Gold.PLP.ligand.torsion>
0.2108

> <Gold.PLP.Chemscore.Hbond>
0.8724

> <Gold.PLP.Chemscore.CHOScore>
0.0000

> <Gold.PLP.Chemscore.Metal>
0.0000

> <Gold.Chemscore.Hbonds>
donor molecule, donor type, donor heavy atom, donor atom, acceptor molecule, acceptor atom, score
      L1  H    10    23       P1 27078  1.00
      P1  H 18900 18958       L1    17  0.18

> <Gold.PLP.Chemscore.Internal.Correction>
   9.000000E+99

