#       Name:                CT1002167954
#       Creating user name   hitesit
#       Creation time:       Sun Apr 16 20:18:34 2023


#       File generated by GOLD software.
#

@<TRIPOS>MOLECULE
CT1002167954|ligand_prepared|mol2|1|dock4
    29    30     1
SMALL
NO_CHARGES


@<TRIPOS>ATOM
      1 C1         209.7488  24.8399  70.2540 C.3            1 RES1               0.0000
      2 C2         208.8025  26.0495  70.1120 C.ar           1 RES1               0.0000
      3 C3         210.1320  24.4269  68.8359 C.2            1 RES1               0.0000
      4 C4         210.9233  25.3143  71.1026 C.2            1 RES1               0.0000
      5 C5         209.1072  23.6245  70.9630 C.3            1 RES1               0.0000
      6 C6         208.7891  26.8054  68.9436 C.ar           1 RES1               0.0000
      7 C7         207.9370  26.4195  71.1379 C.ar           1 RES1               0.0000
      8 N8         211.3932  24.7240  68.4104 N.am           1 RES1               0.0000
      9 O9         209.3272  23.8844  68.0888 O.2            1 RES1               0.0000
     10 N10        212.1590  25.3729  70.5133 N.am           1 RES1               0.0000
     11 O11        210.7867  25.6538  72.2715 O.2            1 RES1               0.0000
     12 C12        209.9976  22.3923  70.9938 C.3            1 RES1               0.0000
     13 C13        207.9391  27.8900  68.8046 C.ar           1 RES1               0.0000
     14 C14        207.0879  27.5047  70.9969 C.ar           1 RES1               0.0000
     15 C15        212.4417  25.1285  69.1970 C.2            1 RES1               0.0000
     16 C16        207.0877  28.2401  69.8308 C.ar           1 RES1               0.0000
     17 O17        213.5693  25.2553  68.7285 O.2            1 RES1               0.0000
     18 H18        208.8597  23.9072  71.9936 H              1 RES1               0.0000
     19 H19        208.1708  23.3707  70.4509 H              1 RES1               0.0000
     20 H20        209.4538  26.5464  68.1262 H              1 RES1               0.0000
     21 H21        207.9207  25.8561  72.0647 H              1 RES1               0.0000
     22 H22        211.5735  24.6373  67.4152 H              1 RES1               0.0000
     23 H23        212.9406  25.6216  71.1113 H              1 RES1               0.0000
     24 H24        209.4997  21.5693  71.5022 H              1 RES1               0.0000
     25 H25        210.2429  22.0683  69.9845 H              1 RES1               0.0000
     26 H26        210.9277  22.6015  71.5182 H              1 RES1               0.0000
     27 H27        207.9438  28.4664  67.8853 H              1 RES1               0.0000
     28 H28        206.4199  27.7770  71.8074 H              1 RES1               0.0000
     29 H29        206.4217  29.0896  69.7215 H              1 RES1               0.0000
@<TRIPOS>BOND
    1    1    2 1     
    2    1    3 1     
    3    1    4 1     
    4    1    5 1     
    5    2    6 ar    
    6    2    7 ar    
    7    3    8 1     
    8    3    9 2     
    9    4   10 1     
   10    4   11 2     
   11    5   12 1     
   12    5   18 1     
   13    5   19 1     
   14    6   13 ar    
   15    6   20 1     
   16    7   14 ar    
   17    7   21 1     
   18    8   15 1     
   19    8   22 1     
   20   10   15 1     
   21   10   23 1     
   22   12   24 1     
   23   12   25 1     
   24   12   26 1     
   25   13   16 ar    
   26   13   27 1     
   27   14   16 ar    
   28   14   28 1     
   29   15   17 2     
   30   16   29 1     
@<TRIPOS>SUBSTRUCTURE
      1 RES1           1
@<TRIPOS>SET
DONOR_HYDROGENS      STATIC     ATOMS    <user>   **** ""
2 22 23
ATOM$RED        STATIC     ATOMS    COLORGROUP SYSTEM
2 22 23
@<TRIPOS>COMMENT
> <Gold.Version>
2022.3.0

> <Gold.Id.Protein>
unknown|4v3u_clean|pdb

> <Gold.Protein.RotatedTorsions>
[  566  526  525  524 ] final -164.99 input   59.98 | X-H torsion
[  717  667  668  669 ] final -146.17 input  100.61 | X-H torsion
[ 26064 26019 26018 26016 ] final  116.08 input   60.01 | X-H torsion
[ 27169 27085 27084 27080 ] final  -97.74 input   60.01 | X-H torsion
[  799  758  759  760 ] final   91.80 input  102.90 | X-H torsion
[ 18483 18438 18437 18435 ] final   41.92 input   59.97 | X-H torsion
[ 18287 18264 18263 18260 ] final  -77.96 input   59.98 | X-H torsion
[ 10108 10080 10079 10076 ] final  -39.34 input   60.03 | X-H torsion
[ 16975 16930 16929 16927 ] final -136.91 input   60.03 | X-H torsion
[ 11433 11400 11399 11396 ] final  166.41 input   59.99 | X-H torsion
[ 27163 27087 27086 27084 ] final   87.64 input   60.02 | X-H torsion
[ 27201  670  669  668 ] final   27.82 input    0.00 | X-H torsion

> <Gold.Protein.ActiveResidues>
 LYS309  TRP311  GLU312  MET341  HIS342  TRP414  ALA417  ARG419  CYS420  VAL421 
 GLY422  ARG423  SER462  ALA463  SER482  GLN483  LEU484  ILE485  ARG486  ALA502 
 TRP566  TYR567  LEU569  PRO570  ALA571  VAL572  SER573  ASN574  MET575  PHE589 
 SER590  GLY591  TRP592  TYR593  MET594  GLU597  ILE598  ARG601  ASP602  ASP605 
 ARG608  TRP683  HIS697  GLU699  TYR711  HEM750  H4B760 

> <Gold.Protein.RotatedAtoms>
  216.0474   10.6243   67.8979 H   0  0  0  0  0  0  0  0  0  0  0  0  # atno 566  bound_to 526 
  216.7552   10.5250   66.4021 H   0  0  0  0  0  0  0  0  0  0  0  0  # atno 567  bound_to 526 
  216.0632   11.9472   66.9000 H   0  0  0  0  0  0  0  0  0  0  0  0  # atno 568  bound_to 526 
  210.2471    9.8920   65.1463 H   0  0  0  0  0  0  0  0  0  0  0  0  # atno 717  bound_to 667 
  208.0070    9.4699   67.4956 H   0  0  0  0  0  0  0  0  0  0  0  0  # atno 799  bound_to 758 
  205.7220   37.9895   69.6870 H   0  0  0  0  0  0  0  0  0  0  0  0  # atno 10108 bound_to 10080
  214.4093   22.1674   74.6080 H   0  0  0  0  0  0  0  0  0  0  0  0  # atno 11433 bound_to 11400
  208.7088   25.8033   77.0485 H   0  0  0  0  0  0  0  0  0  0  0  0  # atno 16975 bound_to 16930
  210.7107   36.8376   73.5629 H   0  0  0  0  0  0  0  0  0  0  0  0  # atno 18287 bound_to 18264
  206.3966   26.5865   75.2344 H   0  0  0  0  0  0  0  0  0  0  0  0  # atno 18483 bound_to 18438
  212.0286   23.5971   62.5060 H   0  0  0  0  0  0  0  0  0  0  0  0  # atno 26064 bound_to 26019
  208.1351   15.4915   60.4369 H   0  0  0  0  0  0  0  0  0  0  0  0  # atno 27163 bound_to 27087
  206.5188   14.6589   64.6052 H   0  0  0  0  0  0  0  0  0  0  0  0  # atno 27169 bound_to 27085
  208.6744    9.6996   65.8856 LP  0  0  0  0  0  0  0  0  0  0  0  0  # atno 27200 bound_to 667 
  210.4599   11.8775   69.3927 LP  0  0  0  0  0  0  0  0  0  0  0  0  # atno 27201 bound_to 670 
  209.8638   10.5011   70.2588 LP  0  0  0  0  0  0  0  0  0  0  0  0  # atno 27202 bound_to 670 
  212.0284   23.0240   64.0292 LP  0  0  0  0  0  0  0  0  0  0  0  0  # atno 27208 bound_to 26019
  212.1049   21.9923   62.7658 LP  0  0  0  0  0  0  0  0  0  0  0  0  # atno 27209 bound_to 26019
  205.9038   13.8045   63.3644 LP  0  0  0  0  0  0  0  0  0  0  0  0  # atno 27212 bound_to 27085
  205.0670   15.0598   63.9893 LP  0  0  0  0  0  0  0  0  0  0  0  0  # atno 27213 bound_to 27085
  209.0528   10.5266   68.4185 LP  0  0  0  0  0  0  0  0  0  0  0  0  # atno 27214 bound_to 758 
  205.4442   25.7568   76.2602 LP  0  0  0  0  0  0  0  0  0  0  0  0  # atno 27251 bound_to 18438
  206.1846   27.1256   76.7550 LP  0  0  0  0  0  0  0  0  0  0  0  0  # atno 27252 bound_to 18438
  209.5884   36.7112   74.7346 LP  0  0  0  0  0  0  0  0  0  0  0  0  # atno 27253 bound_to 18264
  209.1321   36.9553   73.1858 LP  0  0  0  0  0  0  0  0  0  0  0  0  # atno 27254 bound_to 18264
  205.5117   38.5132   68.1606 LP  0  0  0  0  0  0  0  0  0  0  0  0  # atno 27255 bound_to 10080
  204.7991   39.2992   69.4020 LP  0  0  0  0  0  0  0  0  0  0  0  0  # atno 27256 bound_to 10080
  207.2241   25.1410   76.9779 LP  0  0  0  0  0  0  0  0  0  0  0  0  # atno 27261 bound_to 16930
  208.3515   24.5199   77.9829 LP  0  0  0  0  0  0  0  0  0  0  0  0  # atno 27262 bound_to 16930
  214.4480   23.6620   75.2502 LP  0  0  0  0  0  0  0  0  0  0  0  0  # atno 27269 bound_to 11400
  215.6838   22.6265   75.5095 LP  0  0  0  0  0  0  0  0  0  0  0  0  # atno 27270 bound_to 11400

> <Gold.Score>
     Fitness  S(hb_ext) S(vdw_ext)  S(hb_int)    S(int)      intcor
     35.75       6.05      22.55       0.00      -1.31      -0.76

> <Gold.Goldscore.Fitness>
35.7460

> <Gold.Goldscore.Internal.Vdw>
-1.6662

> <Gold.Goldscore.Internal.Torsion>
-0.4100

> <Gold.Goldscore.External.Vdw>
22.5534

> <Gold.Goldscore.Internal.HBond>
0.0000

> <Gold.Goldscore.External.HBond>
6.0464

> <Gold.Goldscore.Internal.Correction>
-0.7650

> <Gold.Goldscore.Hbonds>
donor molecule, donor type, donor heavy atom, donor atom, acceptor molecule, acceptor atom, score
      L1  H     8    22       P1 26790  0.96
      L1  H    10    23       P1 11398  0.15

> <Gold.Goldscore.Internal.Vdw.Weighted>
-1.6662

> <Gold.Goldscore.Internal.Torsion.Weighted>
-0.4100

> <Gold.Goldscore.External.Vdw.Weighted>
31.0109

> <Gold.Goldscore.Internal.HBond.Weighted>
0.0000

> <Gold.Goldscore.External.HBond.Weighted>
6.0464

> <Gold.Goldscore.Internal.Correction.Weighted>
-0.7650

> <Gold.Rescore>
     Score     S(PLP)   S(hbond)     S(cho)   S(metal)  DE(clash)   DE(tors)     intcor
     17.46     -16.89       0.96       0.00       0.00       1.41       0.45       ----

> <Gold.PLP.Fitness>
17.4562

> <Gold.PLP.PLP>
-16.8874

> <Gold.PLP.part.hbond>
-1.8396

> <Gold.PLP.part.metal>
0.0000

> <Gold.PLP.part.buried>
4.7522

> <Gold.PLP.part.nonpolar>
-30.3217

> <Gold.PLP.part.repulsive>
9.1235

> <Gold.PLP.ligand.clash>
1.4065

> <Gold.PLP.ligand.torsion>
0.4524

> <Gold.PLP.Chemscore.Hbond>
0.9600

> <Gold.PLP.Chemscore.CHOScore>
0.0000

> <Gold.PLP.Chemscore.Metal>
0.0000

> <Gold.Chemscore.Hbonds>
donor molecule, donor type, donor heavy atom, donor atom, acceptor molecule, acceptor atom, score
      L1  H     8    22       P1 26790  0.65

> <Gold.PLP.Chemscore.Internal.Correction>
   9.000000E+99

