#       Name:                CT1002167954
#       Creating user name   hitesit
#       Creation time:       Sun Apr 16 20:18:37 2023


#       File generated by GOLD software.
#

@<TRIPOS>MOLECULE
CT1002167954|ligand_prepared|mol2|1|dock7
    29    30     1
SMALL
NO_CHARGES


@<TRIPOS>ATOM
      1 C1         207.6355  20.4240  70.7681 C.3            1 RES1               0.0000
      2 C2         208.5981  21.6040  71.0125 C.ar           1 RES1               0.0000
      3 C3         206.2692  20.8729  71.2780 C.2            1 RES1               0.0000
      4 C4         207.6786  20.1415  69.2704 C.2            1 RES1               0.0000
      5 C5         208.0352  19.1276  71.5105 C.3            1 RES1               0.0000
      6 C6         208.1888  22.9130  70.7765 C.ar           1 RES1               0.0000
      7 C7         209.8952  21.3999  71.4756 C.ar           1 RES1               0.0000
      8 N8         205.3196  21.1841  70.3500 N.am           1 RES1               0.0000
      9 O9         206.0411  20.9901  72.4757 O.2            1 RES1               0.0000
     10 N10        206.5388  20.3621  68.5424 N.am           1 RES1               0.0000
     11 O11        208.6941  19.7458  68.7114 O.2            1 RES1               0.0000
     12 C12        206.9771  18.0370  71.4528 C.3            1 RES1               0.0000
     13 C13        209.0441  23.9796  70.9982 C.ar           1 RES1               0.0000
     14 C14        210.7490  22.4680  71.6965 C.ar           1 RES1               0.0000
     15 C15        205.3704  20.8998  69.0090 C.2            1 RES1               0.0000
     16 C16        210.3245  23.7579  71.4587 C.ar           1 RES1               0.0000
     17 O17        204.4065  21.1189  68.2809 O.2            1 RES1               0.0000
     18 H18        208.9640  18.7419  71.0725 H              1 RES1               0.0000
     19 H19        208.2354  19.3700  72.5615 H              1 RES1               0.0000
     20 H20        207.1856  23.1068  70.4117 H              1 RES1               0.0000
     21 H21        210.2512  20.3936  71.6685 H              1 RES1               0.0000
     22 H22        204.4954  21.6736  70.6839 H              1 RES1               0.0000
     23 H23        206.5638  20.1011  67.5618 H              1 RES1               0.0000
     24 H24        207.3079  17.1499  71.9889 H              1 RES1               0.0000
     25 H25        206.0470  18.3777  71.9029 H              1 RES1               0.0000
     26 H26        206.7713  17.7534  70.4227 H              1 RES1               0.0000
     27 H27        208.7055  24.9928  70.8083 H              1 RES1               0.0000
     28 H28        211.7561  22.2888  72.0583 H              1 RES1               0.0000
     29 H29        210.9942  24.5937  71.6327 H              1 RES1               0.0000
@<TRIPOS>BOND
    1    1    2 1     
    2    1    3 1     
    3    1    4 1     
    4    1    5 1     
    5    2    6 ar    
    6    2    7 ar    
    7    3    8 1     
    8    3    9 2     
    9    4   10 1     
   10    4   11 2     
   11    5   12 1     
   12    5   18 1     
   13    5   19 1     
   14    6   13 ar    
   15    6   20 1     
   16    7   14 ar    
   17    7   21 1     
   18    8   15 1     
   19    8   22 1     
   20   10   15 1     
   21   10   23 1     
   22   12   24 1     
   23   12   25 1     
   24   12   26 1     
   25   13   16 ar    
   26   13   27 1     
   27   14   16 ar    
   28   14   28 1     
   29   15   17 2     
   30   16   29 1     
@<TRIPOS>SUBSTRUCTURE
      1 RES1           1
@<TRIPOS>SET
DONOR_HYDROGENS      STATIC     ATOMS    <user>   **** ""
2 22 23
ATOM$RED        STATIC     ATOMS    COLORGROUP SYSTEM
2 22 23
@<TRIPOS>COMMENT
> <Gold.Version>
2022.3.0

> <Gold.Id.Protein>
unknown|4v3u_clean|pdb

> <Gold.Protein.RotatedTorsions>
[  566  526  525  524 ] final  136.31 input   59.98 | X-H torsion
[  717  667  668  669 ] final  -67.51 input  100.61 | X-H torsion
[ 26064 26019 26018 26016 ] final  130.75 input   60.01 | X-H torsion
[ 27169 27085 27084 27080 ] final -109.92 input   60.01 | X-H torsion
[  799  758  759  760 ] final   84.91 input  102.90 | X-H torsion
[ 18483 18438 18437 18435 ] final  -25.63 input   59.97 | X-H torsion
[ 18287 18264 18263 18260 ] final  -95.13 input   59.98 | X-H torsion
[ 10108 10080 10079 10076 ] final -158.11 input   60.03 | X-H torsion
[ 16975 16930 16929 16927 ] final  157.56 input   60.03 | X-H torsion
[ 11433 11400 11399 11396 ] final  142.52 input   59.99 | X-H torsion
[ 27163 27087 27086 27084 ] final  147.74 input   60.02 | X-H torsion
[ 27201  670  669  668 ] final   22.75 input    0.00 | X-H torsion

> <Gold.Protein.ActiveResidues>
 LYS309  TRP311  GLU312  MET341  HIS342  TRP414  ALA417  ARG419  CYS420  VAL421 
 GLY422  ARG423  SER462  ALA463  SER482  GLN483  LEU484  ILE485  ARG486  ALA502 
 TRP566  TYR567  LEU569  PRO570  ALA571  VAL572  SER573  ASN574  MET575  PHE589 
 SER590  GLY591  TRP592  TYR593  MET594  GLU597  ILE598  ARG601  ASP602  ASP605 
 ARG608  TRP683  HIS697  GLU699  TYR711  HEM750  H4B760 

> <Gold.Protein.RotatedAtoms>
  215.8220   11.5217   67.7436 H   0  0  0  0  0  0  0  0  0  0  0  0  # atno 566  bound_to 526 
  216.5232   10.1159   67.2139 H   0  0  0  0  0  0  0  0  0  0  0  0  # atno 567  bound_to 526 
  216.5205   11.4593   66.2421 H   0  0  0  0  0  0  0  0  0  0  0  0  # atno 568  bound_to 526 
  209.8967    9.1206   65.8822 H   0  0  0  0  0  0  0  0  0  0  0  0  # atno 717  bound_to 667 
  208.0867    9.3989   67.4987 H   0  0  0  0  0  0  0  0  0  0  0  0  # atno 799  bound_to 758 
  205.5235   38.4988   68.1710 H   0  0  0  0  0  0  0  0  0  0  0  0  # atno 10108 bound_to 10080
  214.1599   22.4635   74.5916 H   0  0  0  0  0  0  0  0  0  0  0  0  # atno 11433 bound_to 11400
  207.7615   25.7489   76.6931 H   0  0  0  0  0  0  0  0  0  0  0  0  # atno 16975 bound_to 16930
  210.7479   36.7961   73.8368 H   0  0  0  0  0  0  0  0  0  0  0  0  # atno 18287 bound_to 18264
  205.7644   25.8021   75.4953 H   0  0  0  0  0  0  0  0  0  0  0  0  # atno 18483 bound_to 18438
  212.0406   23.4236   62.3418 H   0  0  0  0  0  0  0  0  0  0  0  0  # atno 26064 bound_to 26019
  207.5459   15.1914   59.7723 H   0  0  0  0  0  0  0  0  0  0  0  0  # atno 27163 bound_to 27087
  206.6046   14.5037   64.5157 H   0  0  0  0  0  0  0  0  0  0  0  0  # atno 27169 bound_to 27085
  209.0160   10.4516   65.1682 LP  0  0  0  0  0  0  0  0  0  0  0  0  # atno 27200 bound_to 667 
  210.5228   11.8365   69.3775 LP  0  0  0  0  0  0  0  0  0  0  0  0  # atno 27201 bound_to 670 
  209.8009   10.5422   70.2740 LP  0  0  0  0  0  0  0  0  0  0  0  0  # atno 27202 bound_to 670 
  212.0177   23.2545   63.9603 LP  0  0  0  0  0  0  0  0  0  0  0  0  # atno 27208 bound_to 26019
  212.1035   21.9365   63.0000 LP  0  0  0  0  0  0  0  0  0  0  0  0  # atno 27209 bound_to 26019
  205.7248   13.8692   63.3027 LP  0  0  0  0  0  0  0  0  0  0  0  0  # atno 27212 bound_to 27085
  205.1595   15.1514   64.1412 LP  0  0  0  0  0  0  0  0  0  0  0  0  # atno 27213 bound_to 27085
  208.9756   10.5954   68.4155 LP  0  0  0  0  0  0  0  0  0  0  0  0  # atno 27214 bound_to 758 
  205.6784   26.4975   76.9640 LP  0  0  0  0  0  0  0  0  0  0  0  0  # atno 27251 bound_to 18438
  206.5872   27.1750   75.7885 LP  0  0  0  0  0  0  0  0  0  0  0  0  # atno 27252 bound_to 18438
  209.3283   36.7363   74.6302 LP  0  0  0  0  0  0  0  0  0  0  0  0  # atno 27253 bound_to 18264
  209.3547   36.9720   73.0145 LP  0  0  0  0  0  0  0  0  0  0  0  0  # atno 27254 bound_to 18264
  204.7966   39.3056   69.3831 LP  0  0  0  0  0  0  0  0  0  0  0  0  # atno 27255 bound_to 10080
  205.7140   37.9939   69.7062 LP  0  0  0  0  0  0  0  0  0  0  0  0  # atno 27256 bound_to 10080
  207.5447   24.4736   77.6802 LP  0  0  0  0  0  0  0  0  0  0  0  0  # atno 27261 bound_to 16930
  208.9850   25.2420   77.6385 LP  0  0  0  0  0  0  0  0  0  0  0  0  # atno 27262 bound_to 16930
  214.7811   23.6982   75.4503 LP  0  0  0  0  0  0  0  0  0  0  0  0  # atno 27269 bound_to 11400
  215.6019   22.2920   75.3258 LP  0  0  0  0  0  0  0  0  0  0  0  0  # atno 27270 bound_to 11400

> <Gold.Score>
     Fitness  S(hb_ext) S(vdw_ext)  S(hb_int)    S(int)      intcor
     32.83       6.28      19.45       0.00      -0.19      -0.76

> <Gold.Goldscore.Fitness>
32.8313

> <Gold.Goldscore.Internal.Vdw>
-0.4448

> <Gold.Goldscore.Internal.Torsion>
-0.5068

> <Gold.Goldscore.External.Vdw>
19.4489

> <Gold.Goldscore.Internal.HBond>
0.0000

> <Gold.Goldscore.External.HBond>
6.2821

> <Gold.Goldscore.Internal.Correction>
-0.7585

> <Gold.Goldscore.Hbonds>
donor molecule, donor type, donor heavy atom, donor atom, acceptor molecule, acceptor atom, score
      P1  H 19320 19377       L1     9  0.05
      L1  H    10    23       P1 27078  1.00

> <Gold.Goldscore.Internal.Vdw.Weighted>
-0.4448

> <Gold.Goldscore.Internal.Torsion.Weighted>
-0.5068

> <Gold.Goldscore.External.Vdw.Weighted>
26.7423

> <Gold.Goldscore.Internal.HBond.Weighted>
0.0000

> <Gold.Goldscore.External.HBond.Weighted>
6.2821

> <Gold.Goldscore.Internal.Correction.Weighted>
-0.7585

> <Gold.Rescore>
     Score     S(PLP)   S(hbond)     S(cho)   S(metal)  DE(clash)   DE(tors)     intcor
     22.93     -20.43       1.19       0.00       0.00       0.00       0.54       ----

> <Gold.PLP.Fitness>
22.9305

> <Gold.PLP.PLP>
-20.4286

> <Gold.PLP.part.hbond>
-3.0930

> <Gold.PLP.part.metal>
0.0000

> <Gold.PLP.part.buried>
-6.0229

> <Gold.PLP.part.nonpolar>
-12.9316

> <Gold.PLP.part.repulsive>
0.6049

> <Gold.PLP.ligand.clash>
0.0000

> <Gold.PLP.ligand.torsion>
0.5404

> <Gold.PLP.Chemscore.Hbond>
1.1943

> <Gold.PLP.Chemscore.CHOScore>
0.0000

> <Gold.PLP.Chemscore.Metal>
0.0000

> <Gold.Chemscore.Hbonds>
donor molecule, donor type, donor heavy atom, donor atom, acceptor molecule, acceptor atom, score
      L1  H    10    23       P1 27078  0.88
      P1  H 18900 18958       L1    17  0.10
      P1  H 19320 19377       L1     9  0.82

> <Gold.PLP.Chemscore.Internal.Correction>
   9.000000E+99

