#       Name:                CT1002167954
#       Creating user name   hitesit
#       Creation time:       Sun Apr 16 20:18:33 2023


#       File generated by GOLD software.
#

@<TRIPOS>MOLECULE
CT1002167954|ligand_prepared|mol2|1|dock2
    29    30     1
SMALL
NO_CHARGES


@<TRIPOS>ATOM
      1 C1         206.9432  23.1245  71.6429 C.3            1 RES1               0.0000
      2 C2         208.0515  23.9269  70.9312 C.ar           1 RES1               0.0000
      3 C3         207.6426  21.9798  72.3700 C.2            1 RES1               0.0000
      4 C4         206.2322  24.1066  72.5673 C.2            1 RES1               0.0000
      5 C5         205.8903  22.5253  70.6817 C.3            1 RES1               0.0000
      6 C6         208.6853  23.4135  69.8036 C.ar           1 RES1               0.0000
      7 C7         208.4485  25.1808  71.3881 C.ar           1 RES1               0.0000
      8 N8         207.7527  22.0666  73.7266 N.am           1 RES1               0.0000
      9 O9         208.1251  21.0345  71.7587 O.2            1 RES1               0.0000
     10 N10        206.3316  23.9033  73.9188 N.am           1 RES1               0.0000
     11 O11        205.6005  25.0642  72.1380 O.2            1 RES1               0.0000
     12 C12        204.7429  21.8227  71.3901 C.3            1 RES1               0.0000
     13 C13        209.6778  24.1288  69.1544 C.ar           1 RES1               0.0000
     14 C14        209.4415  25.8944  70.7376 C.ar           1 RES1               0.0000
     15 C15        207.0851  22.9455  74.5411 C.2            1 RES1               0.0000
     16 C16        210.0563  25.3698  69.6206 C.ar           1 RES1               0.0000
     17 O17        207.1673  22.8599  75.7630 O.2            1 RES1               0.0000
     18 H18        205.4810  23.3309  70.0598 H              1 RES1               0.0000
     19 H19        206.3870  21.8079  70.0168 H              1 RES1               0.0000
     20 H20        208.4025  22.4374  69.4236 H              1 RES1               0.0000
     21 H21        207.9795  25.6128  72.2656 H              1 RES1               0.0000
     22 H22        208.3906  21.4181  74.1771 H              1 RES1               0.0000
     23 H23        205.7939  24.5232  74.5163 H              1 RES1               0.0000
     24 H24        204.0332  21.4208  70.6699 H              1 RES1               0.0000
     25 H25        205.1114  20.9993  71.9983 H              1 RES1               0.0000
     26 H26        204.2108  22.5133  72.0411 H              1 RES1               0.0000
     27 H27        210.1595  23.7109  68.2766 H              1 RES1               0.0000
     28 H28        209.7366  26.8705  71.1083 H              1 RES1               0.0000
     29 H29        210.8336  25.9302  69.1117 H              1 RES1               0.0000
@<TRIPOS>BOND
    1    1    2 1     
    2    1    3 1     
    3    1    4 1     
    4    1    5 1     
    5    2    6 ar    
    6    2    7 ar    
    7    3    8 1     
    8    3    9 2     
    9    4   10 1     
   10    4   11 2     
   11    5   12 1     
   12    5   18 1     
   13    5   19 1     
   14    6   13 ar    
   15    6   20 1     
   16    7   14 ar    
   17    7   21 1     
   18    8   15 1     
   19    8   22 1     
   20   10   15 1     
   21   10   23 1     
   22   12   24 1     
   23   12   25 1     
   24   12   26 1     
   25   13   16 ar    
   26   13   27 1     
   27   14   16 ar    
   28   14   28 1     
   29   15   17 2     
   30   16   29 1     
@<TRIPOS>SUBSTRUCTURE
      1 RES1           1
@<TRIPOS>SET
DONOR_HYDROGENS      STATIC     ATOMS    <user>   **** ""
2 22 23
ATOM$RED        STATIC     ATOMS    COLORGROUP SYSTEM
2 22 23
@<TRIPOS>COMMENT
> <Gold.Version>
2022.3.0

> <Gold.Id.Protein>
unknown|4v3u_clean|pdb

> <Gold.Protein.RotatedTorsions>
[  566  526  525  524 ] final  105.24 input   59.98 | X-H torsion
[  717  667  668  669 ] final   95.45 input  100.61 | X-H torsion
[ 26064 26019 26018 26016 ] final    6.53 input   60.01 | X-H torsion
[ 27169 27085 27084 27080 ] final  -65.74 input   60.01 | X-H torsion
[  799  758  759  760 ] final    1.92 input  102.90 | X-H torsion
[ 18483 18438 18437 18435 ] final   86.19 input   59.97 | X-H torsion
[ 18287 18264 18263 18260 ] final   -1.18 input   59.98 | X-H torsion
[ 10108 10080 10079 10076 ] final  -71.84 input   60.03 | X-H torsion
[ 16975 16930 16929 16927 ] final  171.50 input   60.03 | X-H torsion
[ 11433 11400 11399 11396 ] final -170.33 input   59.99 | X-H torsion
[ 27163 27087 27086 27084 ] final   50.32 input   60.02 | X-H torsion
[ 27201  670  669  668 ] final -110.69 input    0.00 | X-H torsion

> <Gold.Protein.ActiveResidues>
 LYS309  TRP311  GLU312  MET341  HIS342  TRP414  ALA417  ARG419  CYS420  VAL421 
 GLY422  ARG423  SER462  ALA463  SER482  GLN483  LEU484  ILE485  ARG486  ALA502 
 TRP566  TYR567  LEU569  PRO570  ALA571  VAL572  SER573  ASN574  MET575  PHE589 
 SER590  GLY591  TRP592  TYR593  MET594  GLU597  ILE598  ARG601  ASP602  ASP605 
 ARG608  TRP683  HIS697  GLU699  TYR711  HEM750  H4B760 

> <Gold.Protein.RotatedAtoms>
  215.8883   11.8515   67.3567 H   0  0  0  0  0  0  0  0  0  0  0  0  # atno 566  bound_to 526 
  216.2813   10.2662   67.6404 H   0  0  0  0  0  0  0  0  0  0  0  0  # atno 567  bound_to 526 
  216.6963   10.9794   66.2023 H   0  0  0  0  0  0  0  0  0  0  0  0  # atno 568  bound_to 526 
  208.8151   10.3755   65.3149 H   0  0  0  0  0  0  0  0  0  0  0  0  # atno 717  bound_to 667 
  209.1665    9.3780   67.9684 H   0  0  0  0  0  0  0  0  0  0  0  0  # atno 799  bound_to 758 
  205.8827   37.8429   69.2102 H   0  0  0  0  0  0  0  0  0  0  0  0  # atno 10108 bound_to 10080
  214.7245   21.9858   74.7082 H   0  0  0  0  0  0  0  0  0  0  0  0  # atno 11433 bound_to 11400
  207.9702   25.8376   76.7063 H   0  0  0  0  0  0  0  0  0  0  0  0  # atno 16975 bound_to 16930
  209.7629   36.9702   72.9020 H   0  0  0  0  0  0  0  0  0  0  0  0  # atno 18287 bound_to 18264
  206.5826   27.1070   75.6727 H   0  0  0  0  0  0  0  0  0  0  0  0  # atno 18483 bound_to 18438
  212.0229   23.1880   63.9801 H   0  0  0  0  0  0  0  0  0  0  0  0  # atno 26064 bound_to 26019
  208.1093   15.9644   60.8038 H   0  0  0  0  0  0  0  0  0  0  0  0  # atno 27163 bound_to 27087
  206.1603   15.0174   64.7011 H   0  0  0  0  0  0  0  0  0  0  0  0  # atno 27169 bound_to 27085
  210.0703    9.2283   65.7213 LP  0  0  0  0  0  0  0  0  0  0  0  0  # atno 27200 bound_to 667 
  210.4188   10.3863   70.0237 LP  0  0  0  0  0  0  0  0  0  0  0  0  # atno 27201 bound_to 670 
  209.9049   11.9923   69.6278 LP  0  0  0  0  0  0  0  0  0  0  0  0  # atno 27202 bound_to 670 
  212.1042   21.9464   62.9312 LP  0  0  0  0  0  0  0  0  0  0  0  0  # atno 27208 bound_to 26019
  212.0348   23.4818   62.3794 LP  0  0  0  0  0  0  0  0  0  0  0  0  # atno 27209 bound_to 26019
  206.3380   13.7885   63.6494 LP  0  0  0  0  0  0  0  0  0  0  0  0  # atno 27212 bound_to 27085
  204.9937   14.7147   63.6078 LP  0  0  0  0  0  0  0  0  0  0  0  0  # atno 27213 bound_to 27085
  207.9292   10.6156   67.9604 LP  0  0  0  0  0  0  0  0  0  0  0  0  # atno 27214 bound_to 758 
  205.6920   25.7474   75.5944 LP  0  0  0  0  0  0  0  0  0  0  0  0  # atno 27251 bound_to 18438
  205.7494   26.6107   76.9794 LP  0  0  0  0  0  0  0  0  0  0  0  0  # atno 27252 bound_to 18438
  210.6521   36.7427   74.2458 LP  0  0  0  0  0  0  0  0  0  0  0  0  # atno 27253 bound_to 18264
  209.0225   36.7904   74.3399 LP  0  0  0  0  0  0  0  0  0  0  0  0  # atno 27254 bound_to 18264
  205.1989   38.9346   68.2157 LP  0  0  0  0  0  0  0  0  0  0  0  0  # atno 27255 bound_to 10080
  204.9501   39.0254   69.8270 LP  0  0  0  0  0  0  0  0  0  0  0  0  # atno 27256 bound_to 10080
  207.3906   24.5646   77.5377 LP  0  0  0  0  0  0  0  0  0  0  0  0  # atno 27261 bound_to 16930
  208.9289   25.0617   77.7678 LP  0  0  0  0  0  0  0  0  0  0  0  0  # atno 27262 bound_to 16930
  214.1889   23.4874   75.0340 LP  0  0  0  0  0  0  0  0  0  0  0  0  # atno 27269 bound_to 11400
  215.6256   22.9838   75.6247 LP  0  0  0  0  0  0  0  0  0  0  0  0  # atno 27270 bound_to 11400

> <Gold.Score>
     Fitness  S(hb_ext) S(vdw_ext)  S(hb_int)    S(int)      intcor
     36.54       5.87      23.39       0.00      -1.49      -0.78

> <Gold.Goldscore.Fitness>
36.5426

> <Gold.Goldscore.Internal.Vdw>
-1.8770

> <Gold.Goldscore.Internal.Torsion>
-0.3942

> <Gold.Goldscore.External.Vdw>
23.3897

> <Gold.Goldscore.Internal.HBond>
0.0000

> <Gold.Goldscore.External.HBond>
5.8691

> <Gold.Goldscore.Internal.Correction>
-0.7838

> <Gold.Goldscore.Hbonds>
donor molecule, donor type, donor heavy atom, donor atom, acceptor molecule, acceptor atom, score
      P1  H 11446 11493       L1    17  0.03
      P1  H 19321 19379       L1    17  0.94
      L1  H    10    23       P1 18438  0.09

> <Gold.Goldscore.Internal.Vdw.Weighted>
-1.8770

> <Gold.Goldscore.Internal.Torsion.Weighted>
-0.3942

> <Gold.Goldscore.External.Vdw.Weighted>
32.1609

> <Gold.Goldscore.Internal.HBond.Weighted>
0.0000

> <Gold.Goldscore.External.HBond.Weighted>
5.8691

> <Gold.Goldscore.Internal.Correction.Weighted>
-0.7838

> <Gold.Rescore>
     Score     S(PLP)   S(hbond)     S(cho)   S(metal)  DE(clash)   DE(tors)     intcor
     27.20     -25.38       1.13       0.00       0.00       1.27       0.15       ----

> <Gold.PLP.Fitness>
27.2047

> <Gold.PLP.PLP>
-25.3847

> <Gold.PLP.part.hbond>
-5.2577

> <Gold.PLP.part.metal>
0.0000

> <Gold.PLP.part.buried>
3.9320

> <Gold.PLP.part.nonpolar>
-28.7083

> <Gold.PLP.part.repulsive>
4.2603

> <Gold.PLP.ligand.clash>
1.2666

> <Gold.PLP.ligand.torsion>
0.1468

> <Gold.PLP.Chemscore.Hbond>
1.1267

> <Gold.PLP.Chemscore.CHOScore>
0.0000

> <Gold.PLP.Chemscore.Metal>
0.0000

> <Gold.Chemscore.Hbonds>
donor molecule, donor type, donor heavy atom, donor atom, acceptor molecule, acceptor atom, score
      P1  H 19321 19379       L1    17  0.89

> <Gold.PLP.Chemscore.Internal.Correction>
   9.000000E+99

