#       Name:                CT1002167954
#       Creating user name   hitesit
#       Creation time:       Sun Apr 16 20:18:35 2023


#       File generated by GOLD software.
#

@<TRIPOS>MOLECULE
CT1002167954|ligand_prepared|mol2|1|dock5
    29    30     1
SMALL
NO_CHARGES


@<TRIPOS>ATOM
      1 C1         208.0640  26.3540  70.8767 C.3            1 RES1               0.0000
      2 C2         207.4193  27.5976  70.2312 C.ar           1 RES1               0.0000
      3 C3         208.7686  26.8430  72.1387 C.2            1 RES1               0.0000
      4 C4         206.9275  25.3722  71.1395 C.2            1 RES1               0.0000
      5 C5         209.1044  25.6502  69.9747 C.3            1 RES1               0.0000
      6 C6         206.3895  28.2769  70.8753 C.ar           1 RES1               0.0000
      7 C7         207.8447  28.0781  68.9956 C.ar           1 RES1               0.0000
      8 N8         208.1935  26.5457  73.3390 N.am           1 RES1               0.0000
      9 O9         209.7922  27.5132  72.0802 O.2            1 RES1               0.0000
     10 N10        206.6240  25.0751  72.4424 N.am           1 RES1               0.0000
     11 O11        206.2812  24.8659  70.2306 O.2            1 RES1               0.0000
     12 C12        209.7304  24.4173  70.6074 C.3            1 RES1               0.0000
     13 C13        205.8080  29.3978  70.3062 C.ar           1 RES1               0.0000
     14 C14        207.2617  29.1991  68.4281 C.ar           1 RES1               0.0000
     15 C15        207.1853  25.6409  73.5546 C.2            1 RES1               0.0000
     16 C16        206.2439  29.8598  69.0826 C.ar           1 RES1               0.0000
     17 O17        206.8211  25.3619  74.6934 O.2            1 RES1               0.0000
     18 H18        208.6174  25.3570  69.0365 H              1 RES1               0.0000
     19 H19        209.9005  26.3644  69.7303 H              1 RES1               0.0000
     20 H20        206.0316  27.9266  71.8377 H              1 RES1               0.0000
     21 H21        208.6432  27.5737  68.4621 H              1 RES1               0.0000
     22 H22        208.5455  27.0421  74.1514 H              1 RES1               0.0000
     23 H23        205.9141  24.3664  72.5974 H              1 RES1               0.0000
     24 H24        210.4526  23.9621  69.9329 H              1 RES1               0.0000
     25 H25        210.2451  24.6765  71.5302 H              1 RES1               0.0000
     26 H26        208.9697  23.6751  70.8406 H              1 RES1               0.0000
     27 H27        205.0065  29.9134  70.8247 H              1 RES1               0.0000
     28 H28        207.6074  29.5588  67.4647 H              1 RES1               0.0000
     29 H29        205.7885  30.7381  68.6372 H              1 RES1               0.0000
@<TRIPOS>BOND
    1    1    2 1     
    2    1    3 1     
    3    1    4 1     
    4    1    5 1     
    5    2    6 ar    
    6    2    7 ar    
    7    3    8 1     
    8    3    9 2     
    9    4   10 1     
   10    4   11 2     
   11    5   12 1     
   12    5   18 1     
   13    5   19 1     
   14    6   13 ar    
   15    6   20 1     
   16    7   14 ar    
   17    7   21 1     
   18    8   15 1     
   19    8   22 1     
   20   10   15 1     
   21   10   23 1     
   22   12   24 1     
   23   12   25 1     
   24   12   26 1     
   25   13   16 ar    
   26   13   27 1     
   27   14   16 ar    
   28   14   28 1     
   29   15   17 2     
   30   16   29 1     
@<TRIPOS>SUBSTRUCTURE
      1 RES1           1
@<TRIPOS>SET
DONOR_HYDROGENS      STATIC     ATOMS    <user>   **** ""
2 22 23
ATOM$RED        STATIC     ATOMS    COLORGROUP SYSTEM
2 22 23
@<TRIPOS>COMMENT
> <Gold.Version>
2022.3.0

> <Gold.Id.Protein>
unknown|4v3u_clean|pdb

> <Gold.Protein.RotatedTorsions>
[  566  526  525  524 ] final   96.60 input   59.98 | X-H torsion
[  717  667  668  669 ] final  -38.53 input  100.61 | X-H torsion
[ 26064 26019 26018 26016 ] final  133.89 input   60.01 | X-H torsion
[ 27169 27085 27084 27080 ] final   15.22 input   60.01 | X-H torsion
[  799  758  759  760 ] final  119.49 input  102.90 | X-H torsion
[ 18483 18438 18437 18435 ] final -158.74 input   59.97 | X-H torsion
[ 18287 18264 18263 18260 ] final -127.69 input   59.98 | X-H torsion
[ 10108 10080 10079 10076 ] final  -93.29 input   60.03 | X-H torsion
[ 16975 16930 16929 16927 ] final  136.16 input   60.03 | X-H torsion
[ 11433 11400 11399 11396 ] final   12.44 input   59.99 | X-H torsion
[ 27163 27087 27086 27084 ] final  -93.97 input   60.02 | X-H torsion
[ 27201  670  669  668 ] final   89.49 input    0.00 | X-H torsion

> <Gold.Protein.ActiveResidues>
 LYS309  TRP311  GLU312  MET341  HIS342  TRP414  ALA417  ARG419  CYS420  VAL421 
 GLY422  ARG423  SER462  ALA463  SER482  GLN483  LEU484  ILE485  ARG486  ALA502 
 TRP566  TYR567  LEU569  PRO570  ALA571  VAL572  SER573  ASN574  MET575  PHE589 
 SER590  GLY591  TRP592  TYR593  MET594  GLU597  ILE598  ARG601  ASP602  ASP605 
 ARG608  TRP683  HIS697  GLU699  TYR711  HEM750  H4B760 

> <Gold.Protein.RotatedAtoms>
  215.9288   11.9040   67.2287 H   0  0  0  0  0  0  0  0  0  0  0  0  # atno 566  bound_to 526 
  216.2113   10.3506   67.7340 H   0  0  0  0  0  0  0  0  0  0  0  0  # atno 567  bound_to 526 
  216.7258   10.8425   66.2366 H   0  0  0  0  0  0  0  0  0  0  0  0  # atno 568  bound_to 526 
  209.4913    9.0926   66.0587 H   0  0  0  0  0  0  0  0  0  0  0  0  # atno 717  bound_to 667 
  207.7734    9.8208   67.5513 H   0  0  0  0  0  0  0  0  0  0  0  0  # atno 799  bound_to 758 
  205.8977   37.8763   68.8637 H   0  0  0  0  0  0  0  0  0  0  0  0  # atno 10108 bound_to 10080
  214.9292   23.6626   75.5146 H   0  0  0  0  0  0  0  0  0  0  0  0  # atno 11433 bound_to 11400
  207.4832   25.5474   76.7462 H   0  0  0  0  0  0  0  0  0  0  0  0  # atno 16975 bound_to 16930
  210.5927   36.7291   74.3339 H   0  0  0  0  0  0  0  0  0  0  0  0  # atno 18287 bound_to 18264
  205.7947   26.6776   76.9728 H   0  0  0  0  0  0  0  0  0  0  0  0  # atno 18483 bound_to 18438
  212.0433   23.3813   62.3128 H   0  0  0  0  0  0  0  0  0  0  0  0  # atno 26064 bound_to 26019
  206.5526   16.4203   60.0659 H   0  0  0  0  0  0  0  0  0  0  0  0  # atno 27163 bound_to 27087
  205.1226   15.1133   64.0754 H   0  0  0  0  0  0  0  0  0  0  0  0  # atno 27169 bound_to 27085
  209.4112   10.4789   64.9962 LP  0  0  0  0  0  0  0  0  0  0  0  0  # atno 27200 bound_to 667 
  209.6653   11.8979   69.7882 LP  0  0  0  0  0  0  0  0  0  0  0  0  # atno 27201 bound_to 670 
  210.6584   10.4808   69.8633 LP  0  0  0  0  0  0  0  0  0  0  0  0  # atno 27202 bound_to 670 
  212.0157   23.3011   63.9380 LP  0  0  0  0  0  0  0  0  0  0  0  0  # atno 27208 bound_to 26019
  212.1028   21.9324   63.0515 LP  0  0  0  0  0  0  0  0  0  0  0  0  # atno 27209 bound_to 26019
  206.5767   14.5684   64.5622 LP  0  0  0  0  0  0  0  0  0  0  0  0  # atno 27212 bound_to 27085
  205.8001   13.8382   63.3250 LP  0  0  0  0  0  0  0  0  0  0  0  0  # atno 27213 bound_to 27085
  209.2792   10.1866   68.3645 LP  0  0  0  0  0  0  0  0  0  0  0  0  # atno 27214 bound_to 758 
  206.5834   27.0652   75.6033 LP  0  0  0  0  0  0  0  0  0  0  0  0  # atno 27251 bound_to 18438
  205.6517   25.7254   75.6610 LP  0  0  0  0  0  0  0  0  0  0  0  0  # atno 27252 bound_to 18438
  208.9694   36.8058   74.2483 LP  0  0  0  0  0  0  0  0  0  0  0  0  # atno 27253 bound_to 18264
  209.8698   36.9700   72.8959 LP  0  0  0  0  0  0  0  0  0  0  0  0  # atno 27254 bound_to 18264
  205.0117   39.1623   68.4059 LP  0  0  0  0  0  0  0  0  0  0  0  0  # atno 27255 bound_to 10080
  205.1222   38.7640   69.9857 LP  0  0  0  0  0  0  0  0  0  0  0  0  # atno 27256 bound_to 10080
  207.8408   24.4133   77.8569 LP  0  0  0  0  0  0  0  0  0  0  0  0  # atno 27261 bound_to 16930
  208.9691   25.5053   77.4083 LP  0  0  0  0  0  0  0  0  0  0  0  0  # atno 27262 bound_to 16930
  215.5268   22.1750   75.2357 LP  0  0  0  0  0  0  0  0  0  0  0  0  # atno 27269 bound_to 11400
  214.0815   22.6078   74.6109 LP  0  0  0  0  0  0  0  0  0  0  0  0  # atno 27270 bound_to 11400

> <Gold.Score>
     Fitness  S(hb_ext) S(vdw_ext)  S(hb_int)    S(int)      intcor
     42.44       1.02      30.23       0.00      -0.14      -0.76

> <Gold.Goldscore.Fitness>
42.4374

> <Gold.Goldscore.Internal.Vdw>
-0.5293

> <Gold.Goldscore.Internal.Torsion>
-0.3677

> <Gold.Goldscore.External.Vdw>
30.2257

> <Gold.Goldscore.Internal.HBond>
0.0000

> <Gold.Goldscore.External.HBond>
1.0156

> <Gold.Goldscore.Internal.Correction>
-0.7585

> <Gold.Goldscore.Hbonds>
donor molecule, donor type, donor heavy atom, donor atom, acceptor molecule, acceptor atom, score
      P1  H 16930 16975       L1    17  0.48
      L1  H     8    22       P1 11447  0.02

> <Gold.Goldscore.Internal.Vdw.Weighted>
-0.5293

> <Gold.Goldscore.Internal.Torsion.Weighted>
-0.3677

> <Gold.Goldscore.External.Vdw.Weighted>
41.5603

> <Gold.Goldscore.Internal.HBond.Weighted>
0.0000

> <Gold.Goldscore.External.HBond.Weighted>
1.0156

> <Gold.Goldscore.Internal.Correction.Weighted>
-0.7585

> <Gold.Rescore>
     Score     S(PLP)   S(hbond)     S(cho)   S(metal)  DE(clash)   DE(tors)     intcor
     36.72     -34.37       0.80       0.00       0.00       0.00       0.02       ----

> <Gold.PLP.Fitness>
36.7224

> <Gold.PLP.PLP>
-34.3741

> <Gold.PLP.part.hbond>
-3.4130

> <Gold.PLP.part.metal>
0.0000

> <Gold.PLP.part.buried>
2.6826

> <Gold.PLP.part.nonpolar>
-37.0636

> <Gold.PLP.part.repulsive>
3.1946

> <Gold.PLP.ligand.clash>
0.0000

> <Gold.PLP.ligand.torsion>
0.0202

> <Gold.PLP.Chemscore.Hbond>
0.7963

> <Gold.PLP.Chemscore.CHOScore>
0.0000

> <Gold.PLP.Chemscore.Metal>
0.0000

> <Gold.Chemscore.Hbonds>
donor molecule, donor type, donor heavy atom, donor atom, acceptor molecule, acceptor atom, score
      L1  H     8    22       P1 11447  0.53
      P1  H 16930 16975       L1    17  0.84

> <Gold.PLP.Chemscore.Internal.Correction>
   9.000000E+99

