#       Name:                CT1002167954
#       Creating user name   hitesit
#       Creation time:       Sun Apr 16 02:22:06 2023


#       File generated by GOLD software.
#

@<TRIPOS>MOLECULE
CT1002167954|ligand_prepared|mol2|1|dock5
    29    30     1
SMALL
NO_CHARGES


@<TRIPOS>ATOM
      1 C1          19.3301  -0.2526  -5.6706 C.3            1 RES1               0.0000
      2 C2          19.7725  -1.7158  -5.4650 C.ar           1 RES1               0.0000
      3 C3          20.4559   0.4313  -6.4407 C.2            1 RES1               0.0000
      4 C4          18.0058  -0.3093  -6.4242 C.2            1 RES1               0.0000
      5 C5          19.0966   0.5207  -4.3519 C.3            1 RES1               0.0000
      6 C6          20.4349  -2.0991  -4.3026 C.ar           1 RES1               0.0000
      7 C7          19.5236  -2.6922  -6.4259 C.ar           1 RES1               0.0000
      8 N8          20.2415   0.7102  -7.7583 N.am           1 RES1               0.0000
      9 O9          21.5300   0.6862  -5.9100 O.2            1 RES1               0.0000
     10 N10         17.9699   0.1945  -7.6980 N.am           1 RES1               0.0000
     11 O11         16.9974  -0.8007  -5.9325 O.2            1 RES1               0.0000
     12 C12         18.4320   1.8747  -4.5445 C.3            1 RES1               0.0000
     13 C13         20.8313  -3.4116  -4.1065 C.ar           1 RES1               0.0000
     14 C14         19.9211  -4.0042  -6.2278 C.ar           1 RES1               0.0000
     15 C15         19.0353   0.6737  -8.4105 C.2            1 RES1               0.0000
     16 C16         20.5744  -4.3650  -5.0686 C.ar           1 RES1               0.0000
     17 O17         18.9343   1.0590  -9.5717 O.2            1 RES1               0.0000
     18 H18         18.4690  -0.0898  -3.6909 H              1 RES1               0.0000
     19 H19         20.0627   0.6693  -3.8539 H              1 RES1               0.0000
     20 H20         20.6479  -1.3622  -3.5354 H              1 RES1               0.0000
     21 H21         19.0120  -2.4310  -7.3460 H              1 RES1               0.0000
     22 H22         21.0532   0.9698  -8.3098 H              1 RES1               0.0000
     23 H23         17.0652   0.2142  -8.1577 H              1 RES1               0.0000
     24 H24         18.2915   2.3749  -3.5886 H              1 RES1               0.0000
     25 H25         19.0415   2.5171  -5.1768 H              1 RES1               0.0000
     26 H26         17.4573   1.7625  -5.0148 H              1 RES1               0.0000
     27 H27         21.3463  -3.6902  -3.1931 H              1 RES1               0.0000
     28 H28         19.7173  -4.7511  -6.9880 H              1 RES1               0.0000
     29 H29         20.8847  -5.3932  -4.9146 H              1 RES1               0.0000
@<TRIPOS>BOND
    1    1    2 1     
    2    1    3 1     
    3    1    4 1     
    4    1    5 1     
    5    2    6 ar    
    6    2    7 ar    
    7    3    8 1     
    8    3    9 2     
    9    4   10 1     
   10    4   11 2     
   11    5   12 1     
   12    5   18 1     
   13    5   19 1     
   14    6   13 ar    
   15    6   20 1     
   16    7   14 ar    
   17    7   21 1     
   18    8   15 1     
   19    8   22 1     
   20   10   15 1     
   21   10   23 1     
   22   12   24 1     
   23   12   25 1     
   24   12   26 1     
   25   13   16 ar    
   26   13   27 1     
   27   14   16 ar    
   28   14   28 1     
   29   15   17 2     
   30   16   29 1     
@<TRIPOS>SUBSTRUCTURE
      1 RES1           1
@<TRIPOS>SET
DONOR_HYDROGENS      STATIC     ATOMS    <user>   **** ""
2 22 23
ATOM$RED        STATIC     ATOMS    COLORGROUP SYSTEM
2 22 23
@<TRIPOS>COMMENT
> <Gold.Version>
2022.3.0

> <Gold.Id.Protein>
unknown|4g3y_cavity_clean|pdb

> <Gold.Protein.RotatedTorsions>
[ 1460 1451 1450 1449 ] final -119.04 input   60.03 | X-H torsion
[ 2171 2166 2165 2162 ] final -133.11 input   60.01 | X-H torsion
[  286  273  274  275 ] final   31.96 input   33.26 | X-H torsion
[ 8865  276  275  274 ] final  -80.86 input   -0.00 | X-H torsion

> <Gold.Protein.ActiveResidues>
 GLN25   LEU26   GLN27   TRP28   ASP45   ASN46   GLN47   LYS90   SER133  ALA134 
 GLU135  ILE136  PRO139 

> <Gold.Protein.RotatedAtoms>
   24.1889    6.2891   -1.5305 H   0  0  0  0  0  0  0  0  0  0  0  0  # atno 286  bound_to 273 
   22.6986    0.8039  -12.5034 H   0  0  0  0  0  0  0  0  0  0  0  0  # atno 1460 bound_to 1451
   22.6113    2.4588  -12.4986 H   0  0  0  0  0  0  0  0  0  0  0  0  # atno 1461 bound_to 1451
   21.3602    1.5610  -11.8841 H   0  0  0  0  0  0  0  0  0  0  0  0  # atno 1462 bound_to 1451
   19.4502   -0.1746  -15.2479 H   0  0  0  0  0  0  0  0  0  0  0  0  # atno 2171 bound_to 2166
   18.4357   -0.3019  -13.9819 LP  0  0  0  0  0  0  0  0  0  0  0  0  # atno 8838 bound_to 2166
   17.8643    0.1292  -15.4497 LP  0  0  0  0  0  0  0  0  0  0  0  0  # atno 8839 bound_to 2166
   24.7840    7.0273   -2.9990 LP  0  0  0  0  0  0  0  0  0  0  0  0  # atno 8864 bound_to 273 
   22.0178    5.8372   -0.2899 LP  0  0  0  0  0  0  0  0  0  0  0  0  # atno 8865 bound_to 276 
   22.2648    7.5363   -0.0624 LP  0  0  0  0  0  0  0  0  0  0  0  0  # atno 8866 bound_to 276 

> <Gold.Score>
     Fitness  S(hb_ext) S(vdw_ext)  S(hb_int)    S(int)      intcor
     32.31       0.07      23.90       0.00      -0.62      -0.77

> <Gold.Goldscore.Fitness>
32.3143

> <Gold.Goldscore.Internal.Vdw>
-0.8688

> <Gold.Goldscore.Internal.Torsion>
-0.5230

> <Gold.Goldscore.External.Vdw>
23.9016

> <Gold.Goldscore.Internal.HBond>
0.0000

> <Gold.Goldscore.External.HBond>
0.0726

> <Gold.Goldscore.Internal.Correction>
-0.7686

> <Gold.Goldscore.Hbonds>
donor molecule, donor type, donor heavy atom, donor atom, acceptor molecule, acceptor atom, score
      P1  H   280   292       L1     9  0.04

> <Gold.Goldscore.Internal.Vdw.Weighted>
-0.8688

> <Gold.Goldscore.Internal.Torsion.Weighted>
-0.5230

> <Gold.Goldscore.External.Vdw.Weighted>
32.8648

> <Gold.Goldscore.Internal.HBond.Weighted>
0.0000

> <Gold.Goldscore.External.HBond.Weighted>
0.0726

> <Gold.Goldscore.Internal.Correction.Weighted>
-0.7686

> <Gold.Rescore>
     Score     S(PLP)   S(hbond)     S(cho)   S(metal)  DE(clash)   DE(tors)     intcor
     20.45     -22.11       0.21       0.00       0.00       0.00       1.15       ----

> <Gold.PLP.Fitness>
20.4452

> <Gold.PLP.PLP>
-22.1136

> <Gold.PLP.part.hbond>
-3.7244

> <Gold.PLP.part.metal>
0.0000

> <Gold.PLP.part.buried>
0.3433

> <Gold.PLP.part.nonpolar>
-19.8923

> <Gold.PLP.part.repulsive>
0.6510

> <Gold.PLP.ligand.clash>
0.0000

> <Gold.PLP.ligand.torsion>
1.1536

> <Gold.PLP.Chemscore.Hbond>
0.2129

> <Gold.PLP.Chemscore.CHOScore>
0.0000

> <Gold.PLP.Chemscore.Metal>
0.0000

> <Gold.Chemscore.Hbonds>
donor molecule, donor type, donor heavy atom, donor atom, acceptor molecule, acceptor atom, score
      P1  H   280   292       L1     9  0.78

> <Gold.PLP.Chemscore.Internal.Correction>
   9.000000E+99

