#       Name:                CT1002167954
#       Creating user name   hitesit
#       Creation time:       Sun Apr 16 02:22:05 2023


#       File generated by GOLD software.
#

@<TRIPOS>MOLECULE
CT1002167954|ligand_prepared|mol2|1|dock4
    29    30     1
SMALL
NO_CHARGES


@<TRIPOS>ATOM
      1 C1          19.7435  -4.8330  -7.5821 C.3            1 RES1               0.0000
      2 C2          19.7230  -3.7623  -6.4721 C.ar           1 RES1               0.0000
      3 C3          21.0077  -5.6578  -7.3585 C.2            1 RES1               0.0000
      4 C4          18.4494  -5.6255  -7.4343 C.2            1 RES1               0.0000
      5 C5          19.7851  -4.2486  -9.0133 C.3            1 RES1               0.0000
      6 C6          19.6436  -2.4105  -6.7930 C.ar           1 RES1               0.0000
      7 C7          19.7801  -4.1106  -5.1253 C.ar           1 RES1               0.0000
      8 N8          20.8607  -6.9134  -6.8470 N.am           1 RES1               0.0000
      9 O9          22.1194  -5.1988  -7.5902 O.2            1 RES1               0.0000
     10 N10         18.5418  -6.9446  -7.0745 N.am           1 RES1               0.0000
     11 O11         17.3498  -5.1154  -7.6100 O.2            1 RES1               0.0000
     12 C12         19.8996  -5.3029 -10.1030 C.3            1 RES1               0.0000
     13 C13         19.6190  -1.4420  -5.8032 C.ar           1 RES1               0.0000
     14 C14         19.7557  -3.1404  -4.1370 C.ar           1 RES1               0.0000
     15 C15         19.6872  -7.6163  -6.7443 C.2            1 RES1               0.0000
     16 C16         19.6747  -1.8062  -4.4747 C.ar           1 RES1               0.0000
     17 O17         19.6839  -8.7879  -6.3775 O.2            1 RES1               0.0000
     18 H18         18.8727  -3.6636  -9.1824 H              1 RES1               0.0000
     19 H19         20.6403  -3.5660  -9.0913 H              1 RES1               0.0000
     20 H20         19.6014  -2.1047  -7.8331 H              1 RES1               0.0000
     21 H21         19.8453  -5.1540  -4.8362 H              1 RES1               0.0000
     22 H22         21.7009  -7.3722  -6.5097 H              1 RES1               0.0000
     23 H23         17.6766  -7.4748  -7.0508 H              1 RES1               0.0000
     24 H24         19.9247  -4.8394 -11.0870 H              1 RES1               0.0000
     25 H25         20.8091  -5.8873  -9.9803 H              1 RES1               0.0000
     26 H26         19.0519  -5.9843 -10.0709 H              1 RES1               0.0000
     27 H27         19.5566  -0.3932  -6.0743 H              1 RES1               0.0000
     28 H28         19.8003  -3.4315  -3.0928 H              1 RES1               0.0000
     29 H29         19.6550  -1.0473  -3.6996 H              1 RES1               0.0000
@<TRIPOS>BOND
    1    1    2 1     
    2    1    3 1     
    3    1    4 1     
    4    1    5 1     
    5    2    6 ar    
    6    2    7 ar    
    7    3    8 1     
    8    3    9 2     
    9    4   10 1     
   10    4   11 2     
   11    5   12 1     
   12    5   18 1     
   13    5   19 1     
   14    6   13 ar    
   15    6   20 1     
   16    7   14 ar    
   17    7   21 1     
   18    8   15 1     
   19    8   22 1     
   20   10   15 1     
   21   10   23 1     
   22   12   24 1     
   23   12   25 1     
   24   12   26 1     
   25   13   16 ar    
   26   13   27 1     
   27   14   16 ar    
   28   14   28 1     
   29   15   17 2     
   30   16   29 1     
@<TRIPOS>SUBSTRUCTURE
      1 RES1           1
@<TRIPOS>SET
DONOR_HYDROGENS      STATIC     ATOMS    <user>   **** ""
2 22 23
ATOM$RED        STATIC     ATOMS    COLORGROUP SYSTEM
2 22 23
@<TRIPOS>COMMENT
> <Gold.Version>
2022.3.0

> <Gold.Id.Protein>
unknown|4g3y_cavity_clean|pdb

> <Gold.Protein.RotatedTorsions>
[ 1460 1451 1450 1449 ] final -156.33 input   60.03 | X-H torsion
[ 2171 2166 2165 2162 ] final   53.23 input   60.01 | X-H torsion
[  286  273  274  275 ] final -155.93 input   33.26 | X-H torsion
[ 8865  276  275  274 ] final    2.88 input   -0.00 | X-H torsion

> <Gold.Protein.ActiveResidues>
 GLN25   LEU26   GLN27   TRP28   ASP45   ASN46   GLN47   LYS90   SER133  ALA134 
 GLU135  ILE136  PRO139 

> <Gold.Protein.RotatedAtoms>
   24.7921    6.9237   -3.0643 H   0  0  0  0  0  0  0  0  0  0  0  0  # atno 286  bound_to 273 
   22.1642    0.6542  -12.2460 H   0  0  0  0  0  0  0  0  0  0  0  0  # atno 1460 bound_to 1451
   23.0001    2.0198  -12.6737 H   0  0  0  0  0  0  0  0  0  0  0  0  # atno 1461 bound_to 1451
   21.5061    2.1497  -11.9665 H   0  0  0  0  0  0  0  0  0  0  0  0  # atno 1462 bound_to 1451
   17.7615   -0.0880  -14.4500 H   0  0  0  0  0  0  0  0  0  0  0  0  # atno 2171 bound_to 2166
   18.6329    0.0898  -15.8128 LP  0  0  0  0  0  0  0  0  0  0  0  0  # atno 8838 bound_to 2166
   19.3674   -0.3497  -14.4222 LP  0  0  0  0  0  0  0  0  0  0  0  0  # atno 8839 bound_to 2166
   24.1961    6.4086   -1.5038 LP  0  0  0  0  0  0  0  0  0  0  0  0  # atno 8864 bound_to 273 
   22.9469    6.5086   -0.4393 LP  0  0  0  0  0  0  0  0  0  0  0  0  # atno 8865 bound_to 276 
   21.3357    6.8649    0.0869 LP  0  0  0  0  0  0  0  0  0  0  0  0  # atno 8866 bound_to 276 

> <Gold.Score>
     Fitness  S(hb_ext) S(vdw_ext)  S(hb_int)    S(int)      intcor
     29.92       1.87      20.99       0.00      -0.81      -0.77

> <Gold.Goldscore.Fitness>
29.9180

> <Gold.Goldscore.Internal.Vdw>
-1.1900

> <Gold.Goldscore.Internal.Torsion>
-0.3935

> <Gold.Goldscore.External.Vdw>
20.9919

> <Gold.Goldscore.Internal.HBond>
0.0000

> <Gold.Goldscore.External.HBond>
1.8690

> <Gold.Goldscore.Internal.Correction>
-0.7686

> <Gold.Goldscore.Hbonds>
donor molecule, donor type, donor heavy atom, donor atom, acceptor molecule, acceptor atom, score
      P1  H  2197  2205       L1    11  0.53
      P1  H   245   262       L1    17  0.40

> <Gold.Goldscore.Internal.Vdw.Weighted>
-1.1900

> <Gold.Goldscore.Internal.Torsion.Weighted>
-0.3935

> <Gold.Goldscore.External.Vdw.Weighted>
28.8639

> <Gold.Goldscore.Internal.HBond.Weighted>
0.0000

> <Gold.Goldscore.External.HBond.Weighted>
1.8690

> <Gold.Goldscore.Internal.Correction.Weighted>
-0.7686

> <Gold.Rescore>
     Score     S(PLP)   S(hbond)     S(cho)   S(metal)  DE(clash)   DE(tors)     intcor
     30.06     -24.08       2.00       0.00       0.00       0.00       0.01       ----

> <Gold.PLP.Fitness>
30.0592

> <Gold.PLP.PLP>
-24.0844

> <Gold.PLP.part.hbond>
-2.0000

> <Gold.PLP.part.metal>
0.0000

> <Gold.PLP.part.buried>
-1.8942

> <Gold.PLP.part.nonpolar>
-22.2650

> <Gold.PLP.part.repulsive>
1.4803

> <Gold.PLP.ligand.clash>
0.0000

> <Gold.PLP.ligand.torsion>
0.0126

> <Gold.PLP.Chemscore.Hbond>
2.0000

> <Gold.PLP.Chemscore.CHOScore>
0.0000

> <Gold.PLP.Chemscore.Metal>
0.0000

> <Gold.Chemscore.Hbonds>
donor molecule, donor type, donor heavy atom, donor atom, acceptor molecule, acceptor atom, score
      P1  H  2197  2205       L1    11  1.00
      P1  H   245   262       L1    17  0.88

> <Gold.PLP.Chemscore.Internal.Correction>
   9.000000E+99

