#       Name:                CT1002167954
#       Creating user name   hitesit
#       Creation time:       Sun Apr 16 02:22:09 2023


#       File generated by GOLD software.
#

@<TRIPOS>MOLECULE
CT1002167954|ligand_prepared|mol2|1|dock9
    29    30     1
SMALL
NO_CHARGES


@<TRIPOS>ATOM
      1 C1          19.3788  -5.8589  -8.5233 C.3            1 RES1               0.0000
      2 C2          19.8036  -5.1461  -7.2232 C.ar           1 RES1               0.0000
      3 C3          20.4449  -5.5254  -9.5627 C.2            1 RES1               0.0000
      4 C4          19.2827  -7.3424  -8.1846 C.2            1 RES1               0.0000
      5 C5          18.0043  -5.4026  -9.0656 C.3            1 RES1               0.0000
      6 C6          18.8878  -4.9416  -6.1954 C.ar           1 RES1               0.0000
      7 C7          21.1060  -4.6906  -7.0363 C.ar           1 RES1               0.0000
      8 N8          21.3237  -6.5105  -9.9049 N.am           1 RES1               0.0000
      9 O9          20.5378  -4.4036 -10.0456 O.2            1 RES1               0.0000
     10 N10         20.1689  -8.1971  -8.7861 N.am           1 RES1               0.0000
     11 O11         18.4583  -7.7766  -7.3896 O.2            1 RES1               0.0000
     12 C12         17.7280  -5.8518 -10.4917 C.3            1 RES1               0.0000
     13 C13         19.2612  -4.3074  -5.0221 C.ar           1 RES1               0.0000
     14 C14         21.4772  -4.0564  -5.8621 C.ar           1 RES1               0.0000
     15 C15         21.2049  -7.8443  -9.6074 C.2            1 RES1               0.0000
     16 C16         20.5560  -3.8648  -4.8545 C.ar           1 RES1               0.0000
     17 O17         21.9936  -8.6655 -10.0665 O.2            1 RES1               0.0000
     18 H18         17.2176  -5.7989  -8.4118 H              1 RES1               0.0000
     19 H19         17.9543  -4.3075  -9.0244 H              1 RES1               0.0000
     20 H20         17.8637  -5.2808  -6.3103 H              1 RES1               0.0000
     21 H21         21.8473  -4.8295  -7.8159 H              1 RES1               0.0000
     22 H22         22.1453  -6.2295 -10.4306 H              1 RES1               0.0000
     23 H23         20.0447  -9.1881  -8.6050 H              1 RES1               0.0000
     24 H24         16.7513  -5.5053 -10.8229 H              1 RES1               0.0000
     25 H25         18.4774  -5.4547 -11.1733 H              1 RES1               0.0000
     26 H26         17.7450  -6.9373 -10.5643 H              1 RES1               0.0000
     27 H27         18.5321  -4.1578  -4.2326 H              1 RES1               0.0000
     28 H28         22.4972  -3.7092  -5.7348 H              1 RES1               0.0000
     29 H29         20.8483  -3.3684  -3.9350 H              1 RES1               0.0000
@<TRIPOS>BOND
    1    1    2 1     
    2    1    3 1     
    3    1    4 1     
    4    1    5 1     
    5    2    6 ar    
    6    2    7 ar    
    7    3    8 1     
    8    3    9 2     
    9    4   10 1     
   10    4   11 2     
   11    5   12 1     
   12    5   18 1     
   13    5   19 1     
   14    6   13 ar    
   15    6   20 1     
   16    7   14 ar    
   17    7   21 1     
   18    8   15 1     
   19    8   22 1     
   20   10   15 1     
   21   10   23 1     
   22   12   24 1     
   23   12   25 1     
   24   12   26 1     
   25   13   16 ar    
   26   13   27 1     
   27   14   16 ar    
   28   14   28 1     
   29   15   17 2     
   30   16   29 1     
@<TRIPOS>SUBSTRUCTURE
      1 RES1           1
@<TRIPOS>SET
DONOR_HYDROGENS      STATIC     ATOMS    <user>   **** ""
2 22 23
ATOM$RED        STATIC     ATOMS    COLORGROUP SYSTEM
2 22 23
@<TRIPOS>COMMENT
> <Gold.Version>
2022.3.0

> <Gold.Id.Protein>
unknown|4g3y_cavity_clean|pdb

> <Gold.Protein.RotatedTorsions>
[ 1460 1451 1450 1449 ] final  -14.96 input   60.03 | X-H torsion
[ 2171 2166 2165 2162 ] final   23.46 input   60.01 | X-H torsion
[  286  273  274  275 ] final  -83.23 input   33.26 | X-H torsion
[ 8865  276  275  274 ] final  174.97 input   -0.00 | X-H torsion

> <Gold.Protein.ActiveResidues>
 GLN25   LEU26   GLN27   TRP28   ASP45   ASN46   GLN47   LYS90   SER133  ALA134 
 GLU135  ILE136  PRO139 

> <Gold.Protein.RotatedAtoms>
   24.5334    7.5469   -2.2607 H   0  0  0  0  0  0  0  0  0  0  0  0  # atno 286  bound_to 273 
   22.8077    2.3062  -12.5887 H   0  0  0  0  0  0  0  0  0  0  0  0  # atno 1460 bound_to 1451
   21.3798    1.8252  -11.8988 H   0  0  0  0  0  0  0  0  0  0  0  0  # atno 1461 bound_to 1451
   22.4822    0.6920  -12.3983 H   0  0  0  0  0  0  0  0  0  0  0  0  # atno 1462 bound_to 1451
   17.6611    0.0332  -14.9046 H   0  0  0  0  0  0  0  0  0  0  0  0  # atno 2171 bound_to 2166
   19.0886   -0.0130  -15.6846 LP  0  0  0  0  0  0  0  0  0  0  0  0  # atno 8838 bound_to 2166
   19.0129   -0.3689  -14.0927 LP  0  0  0  0  0  0  0  0  0  0  0  0  # atno 8839 bound_to 2166
   24.4483    5.8011   -2.2871 LP  0  0  0  0  0  0  0  0  0  0  0  0  # atno 8864 bound_to 273 
   21.3726    6.9782    0.0962 LP  0  0  0  0  0  0  0  0  0  0  0  0  # atno 8865 bound_to 276 
   22.9100    6.3953   -0.4485 LP  0  0  0  0  0  0  0  0  0  0  0  0  # atno 8866 bound_to 276 

> <Gold.Score>
     Fitness  S(hb_ext) S(vdw_ext)  S(hb_int)    S(int)      intcor
     28.47       0.30      21.41       0.00      -1.27      -0.76

> <Gold.Goldscore.Fitness>
28.4657

> <Gold.Goldscore.Internal.Vdw>
-1.3732

> <Gold.Goldscore.Internal.Torsion>
-0.6521

> <Gold.Goldscore.External.Vdw>
21.4077

> <Gold.Goldscore.Internal.HBond>
0.0000

> <Gold.Goldscore.External.HBond>
0.2975

> <Gold.Goldscore.Internal.Correction>
-0.7579

> <Gold.Goldscore.Hbonds>
donor molecule, donor type, donor heavy atom, donor atom, acceptor molecule, acceptor atom, score
      P1  H   245   262       L1    11  0.15

> <Gold.Goldscore.Internal.Vdw.Weighted>
-1.3732

> <Gold.Goldscore.Internal.Torsion.Weighted>
-0.6521

> <Gold.Goldscore.External.Vdw.Weighted>
29.4356

> <Gold.Goldscore.Internal.HBond.Weighted>
0.0000

> <Gold.Goldscore.External.HBond.Weighted>
0.2975

> <Gold.Goldscore.Internal.Correction.Weighted>
-0.7579

> <Gold.Rescore>
     Score     S(PLP)   S(hbond)     S(cho)   S(metal)  DE(clash)   DE(tors)     intcor
     29.93     -28.74       1.00       0.00       0.00       1.37       0.22       ----

> <Gold.PLP.Fitness>
29.9322

> <Gold.PLP.PLP>
-28.7433

> <Gold.PLP.part.hbond>
-1.6614

> <Gold.PLP.part.metal>
0.0000

> <Gold.PLP.part.buried>
-4.5945

> <Gold.PLP.part.nonpolar>
-22.5530

> <Gold.PLP.part.repulsive>
0.4577

> <Gold.PLP.ligand.clash>
1.3730

> <Gold.PLP.ligand.torsion>
0.2190

> <Gold.PLP.Chemscore.Hbond>
1.0000

> <Gold.PLP.Chemscore.CHOScore>
0.0000

> <Gold.PLP.Chemscore.Metal>
0.0000

> <Gold.Chemscore.Hbonds>
donor molecule, donor type, donor heavy atom, donor atom, acceptor molecule, acceptor atom, score
      P1  H   245   262       L1    11  0.90

> <Gold.PLP.Chemscore.Internal.Correction>
   9.000000E+99

