#       Name:                CT1002167954
#       Creating user name   hitesit
#       Creation time:       Sun Apr 16 02:22:08 2023


#       File generated by GOLD software.
#

@<TRIPOS>MOLECULE
CT1002167954|ligand_prepared|mol2|1|dock8
    29    30     1
SMALL
NO_CHARGES


@<TRIPOS>ATOM
      1 C1          19.5277  -0.4954  -5.8200 C.3            1 RES1               0.0000
      2 C2          19.4711  -2.0263  -5.6413 C.ar           1 RES1               0.0000
      3 C3          20.9915  -0.1476  -6.0743 C.2            1 RES1               0.0000
      4 C4          18.5990  -0.1672  -6.9838 C.2            1 RES1               0.0000
      5 C5          19.0424   0.2964  -4.5835 C.3            1 RES1               0.0000
      6 C6          19.4966  -2.5928  -4.3704 C.ar           1 RES1               0.0000
      7 C7          19.3908  -2.8833  -6.7357 C.ar           1 RES1               0.0000
      8 N8          21.3476   0.1964  -7.3451 N.am           1 RES1               0.0000
      9 O9          21.8280  -0.2124  -5.1820 O.2            1 RES1               0.0000
     10 N10         19.1574   0.3416  -8.1271 N.am           1 RES1               0.0000
     11 O11         17.3908  -0.3601  -6.9270 O.2            1 RES1               0.0000
     12 C12         18.7144   1.7518  -4.8773 C.3            1 RES1               0.0000
     13 C13         19.4407  -3.9661  -4.1995 C.ar           1 RES1               0.0000
     14 C14         19.3352  -4.2564  -6.5626 C.ar           1 RES1               0.0000
     15 C15         20.4932   0.5095  -8.3715 C.2            1 RES1               0.0000
     16 C16         19.3596  -4.7987  -5.2953 C.ar           1 RES1               0.0000
     17 O17         20.9219   0.9217  -9.4455 O.2            1 RES1               0.0000
     18 H18         18.1472  -0.1928  -4.1800 H              1 RES1               0.0000
     19 H19         19.8214   0.2588  -3.8121 H              1 RES1               0.0000
     20 H20         19.5627  -1.9535  -3.4963 H              1 RES1               0.0000
     21 H21         19.3713  -2.4790  -7.7421 H              1 RES1               0.0000
     22 H22         22.3411   0.2231  -7.5513 H              1 RES1               0.0000
     23 H23         18.5180   0.6213  -8.8642 H              1 RES1               0.0000
     24 H24         18.3790   2.2611  -3.9763 H              1 RES1               0.0000
     25 H25         19.5894   2.2754  -5.2568 H              1 RES1               0.0000
     26 H26         17.9251   1.8264  -5.6225 H              1 RES1               0.0000
     27 H27         19.4616  -4.3880  -3.2001 H              1 RES1               0.0000
     28 H28         19.2721  -4.9080  -7.4279 H              1 RES1               0.0000
     29 H29         19.3154  -5.8745  -5.1612 H              1 RES1               0.0000
@<TRIPOS>BOND
    1    1    2 1     
    2    1    3 1     
    3    1    4 1     
    4    1    5 1     
    5    2    6 ar    
    6    2    7 ar    
    7    3    8 1     
    8    3    9 2     
    9    4   10 1     
   10    4   11 2     
   11    5   12 1     
   12    5   18 1     
   13    5   19 1     
   14    6   13 ar    
   15    6   20 1     
   16    7   14 ar    
   17    7   21 1     
   18    8   15 1     
   19    8   22 1     
   20   10   15 1     
   21   10   23 1     
   22   12   24 1     
   23   12   25 1     
   24   12   26 1     
   25   13   16 ar    
   26   13   27 1     
   27   14   16 ar    
   28   14   28 1     
   29   15   17 2     
   30   16   29 1     
@<TRIPOS>SUBSTRUCTURE
      1 RES1           1
@<TRIPOS>SET
DONOR_HYDROGENS      STATIC     ATOMS    <user>   **** ""
2 22 23
ATOM$RED        STATIC     ATOMS    COLORGROUP SYSTEM
2 22 23
@<TRIPOS>COMMENT
> <Gold.Version>
2022.3.0

> <Gold.Id.Protein>
unknown|4g3y_cavity_clean|pdb

> <Gold.Protein.RotatedTorsions>
[ 1460 1451 1450 1449 ] final  110.90 input   60.03 | X-H torsion
[ 2171 2166 2165 2162 ] final   15.75 input   60.01 | X-H torsion
[  286  273  274  275 ] final  136.90 input   33.26 | X-H torsion
[ 8865  276  275  274 ] final -111.17 input   -0.00 | X-H torsion

> <Gold.Protein.ActiveResidues>
 GLN25   LEU26   GLN27   TRP28   ASP45   ASN46   GLN47   LYS90   SER133  ALA134 
 GLU135  ILE136  PRO139 

> <Gold.Protein.RotatedAtoms>
   24.6468    5.9860   -2.8226 H   0  0  0  0  0  0  0  0  0  0  0  0  # atno 286  bound_to 273 
   21.3652    1.7283  -11.8899 H   0  0  0  0  0  0  0  0  0  0  0  0  # atno 1460 bound_to 1451
   22.5651    0.7252  -12.4380 H   0  0  0  0  0  0  0  0  0  0  0  0  # atno 1461 bound_to 1451
   22.7400    2.3696  -12.5582 H   0  0  0  0  0  0  0  0  0  0  0  0  # atno 1462 bound_to 1451
   17.6753    0.0592  -15.0269 H   0  0  0  0  0  0  0  0  0  0  0  0  # atno 2171 bound_to 2166
   19.1892   -0.0453  -15.6146 LP  0  0  0  0  0  0  0  0  0  0  0  0  # atno 8838 bound_to 2166
   18.8980   -0.3628  -14.0395 LP  0  0  0  0  0  0  0  0  0  0  0  0  # atno 8839 bound_to 2166
   24.3377    7.3227   -1.7395 LP  0  0  0  0  0  0  0  0  0  0  0  0  # atno 8864 bound_to 273 
   21.6188    5.9967   -0.1471 LP  0  0  0  0  0  0  0  0  0  0  0  0  # atno 8865 bound_to 276 
   22.6638    7.3768   -0.2053 LP  0  0  0  0  0  0  0  0  0  0  0  0  # atno 8866 bound_to 276 

> <Gold.Score>
     Fitness  S(hb_ext) S(vdw_ext)  S(hb_int)    S(int)      intcor
     30.16       0.15      22.44       0.00      -0.84      -0.76

> <Gold.Goldscore.Fitness>
30.1625

> <Gold.Goldscore.Internal.Vdw>
-0.8088

> <Gold.Goldscore.Internal.Torsion>
-0.7841

> <Gold.Goldscore.External.Vdw>
22.4353

> <Gold.Goldscore.Internal.HBond>
0.0000

> <Gold.Goldscore.External.HBond>
0.1491

> <Gold.Goldscore.Internal.Correction>
-0.7579

> <Gold.Goldscore.Hbonds>
donor molecule, donor type, donor heavy atom, donor atom, acceptor molecule, acceptor atom, score
      P1  H   280   292       L1     9  0.07

> <Gold.Goldscore.Internal.Vdw.Weighted>
-0.8088

> <Gold.Goldscore.Internal.Torsion.Weighted>
-0.7841

> <Gold.Goldscore.External.Vdw.Weighted>
30.8485

> <Gold.Goldscore.Internal.HBond.Weighted>
0.0000

> <Gold.Goldscore.External.HBond.Weighted>
0.1491

> <Gold.Goldscore.Internal.Correction.Weighted>
-0.7579

> <Gold.Rescore>
     Score     S(PLP)   S(hbond)     S(cho)   S(metal)  DE(clash)   DE(tors)     intcor
     18.84     -19.12       0.30       0.00       0.00       0.00       0.59       ----

> <Gold.PLP.Fitness>
18.8430

> <Gold.PLP.PLP>
-19.1200

> <Gold.PLP.part.hbond>
-3.5109

> <Gold.PLP.part.metal>
0.0000

> <Gold.PLP.part.buried>
2.5829

> <Gold.PLP.part.nonpolar>
-20.1947

> <Gold.PLP.part.repulsive>
0.8059

> <Gold.PLP.ligand.clash>
0.0000

> <Gold.PLP.ligand.torsion>
0.5928

> <Gold.PLP.Chemscore.Hbond>
0.3029

> <Gold.PLP.Chemscore.CHOScore>
0.0000

> <Gold.PLP.Chemscore.Metal>
0.0000

> <Gold.Chemscore.Hbonds>
donor molecule, donor type, donor heavy atom, donor atom, acceptor molecule, acceptor atom, score
      P1  H   280   292       L1     9  0.48

> <Gold.PLP.Chemscore.Internal.Correction>
   9.000000E+99

