#       Name:                CT1002167954
#       Creating user name   hitesit
#       Creation time:       Sun Apr 16 20:18:31 2023


#       File generated by GOLD software.
#

@<TRIPOS>MOLECULE
CT1002167954|ligand_prepared|mol2|1|dock5
    29    30     1
SMALL
NO_CHARGES


@<TRIPOS>ATOM
      1 C1         208.5748  26.0693  70.6913 C.3            1 RES1               0.0000
      2 C2         207.5755  27.1005  71.2541 C.ar           1 RES1               0.0000
      3 C3         207.7770  25.1664  69.7550 C.2            1 RES1               0.0000
      4 C4         209.6706  26.8714  69.9981 C.2            1 RES1               0.0000
      5 C5         209.2400  25.1884  71.7744 C.3            1 RES1               0.0000
      6 C6         207.9664  28.0007  72.2408 C.ar           1 RES1               0.0000
      7 C7         206.2625  27.1655  70.7954 C.ar           1 RES1               0.0000
      8 N8         207.9615  25.3271  68.4133 N.am           1 RES1               0.0000
      9 O9         206.9691  24.3531  70.1863 O.2            1 RES1               0.0000
     10 N10        209.7940  26.7487  68.6389 N.am           1 RES1               0.0000
     11 O11        210.4175  27.6214  70.6145 O.2            1 RES1               0.0000
     12 C12        210.3744  24.3228  71.2491 C.3            1 RES1               0.0000
     13 C13        207.0779  28.9340  72.7485 C.ar           1 RES1               0.0000
     14 C14        205.3754  28.0994  71.3047 C.ar           1 RES1               0.0000
     15 C15        208.9694  26.0365  67.8112 C.2            1 RES1               0.0000
     16 C16        205.7821  28.9843  72.2806 C.ar           1 RES1               0.0000
     17 O17        209.1120  26.0185  66.5920 O.2            1 RES1               0.0000
     18 H18        209.6298  25.8382  72.5676 H              1 RES1               0.0000
     19 H19        208.4764  24.5381  72.2187 H              1 RES1               0.0000
     20 H20        208.9814  27.9745  72.6230 H              1 RES1               0.0000
     21 H21        205.9202  26.4786  70.0288 H              1 RES1               0.0000
     22 H22        207.2877  24.8782  67.8011 H              1 RES1               0.0000
     23 H23        210.5728  27.2330  68.2038 H              1 RES1               0.0000
     24 H24        210.8060  23.7252  72.0493 H              1 RES1               0.0000
     25 H25        210.0170  23.6461  70.4757 H              1 RES1               0.0000
     26 H26        211.1636  24.9385  70.8225 H              1 RES1               0.0000
     27 H27        207.4025  29.6273  73.5174 H              1 RES1               0.0000
     28 H28        204.3564  28.1350  70.9339 H              1 RES1               0.0000
     29 H29        205.0863  29.7158  72.6782 H              1 RES1               0.0000
@<TRIPOS>BOND
    1    1    2 1     
    2    1    3 1     
    3    1    4 1     
    4    1    5 1     
    5    2    6 ar    
    6    2    7 ar    
    7    3    8 1     
    8    3    9 2     
    9    4   10 1     
   10    4   11 2     
   11    5   12 1     
   12    5   18 1     
   13    5   19 1     
   14    6   13 ar    
   15    6   20 1     
   16    7   14 ar    
   17    7   21 1     
   18    8   15 1     
   19    8   22 1     
   20   10   15 1     
   21   10   23 1     
   22   12   24 1     
   23   12   25 1     
   24   12   26 1     
   25   13   16 ar    
   26   13   27 1     
   27   14   16 ar    
   28   14   28 1     
   29   15   17 2     
   30   16   29 1     
@<TRIPOS>SUBSTRUCTURE
      1 RES1           1
@<TRIPOS>SET
DONOR_HYDROGENS      STATIC     ATOMS    <user>   **** ""
2 22 23
ATOM$RED        STATIC     ATOMS    COLORGROUP SYSTEM
2 22 23
@<TRIPOS>COMMENT
> <Gold.Version>
2022.3.0

> <Gold.Id.Protein>
unknown|4d1n_clean|pdb

> <Gold.Protein.RotatedTorsions>
[ 16977 16932 16931 16929 ] final  110.63 input   60.00 | X-H torsion
[ 18485 18440 18439 18437 ] final   -7.51 input   60.00 | X-H torsion
[ 10110 10082 10081 10078 ] final  100.20 input   59.99 | X-H torsion
[ 18289 18266 18265 18262 ] final  -19.79 input   60.03 | X-H torsion
[ 18650 18615 18613 18610 ] final -153.13 input   59.98 | X-H torsion
[ 11435 11402 11401 11398 ] final   99.02 input   60.03 | X-H torsion

> <Gold.Protein.ActiveResidues>
 TRP414  CYS420  VAL421  GLY422  LEU460  SER462  SER482  GLN483  ILE485  ARG486 
 TYR487  ASP500  ASN503  TRP566  TYR567  LEU569  PRO570  ALA571  VAL572  SER573 
 ASN574  PHE589  SER590  GLY591  TRP592  TYR593  MET594  GLY595  THR596  GLU597 
 ILE598  GLY599  VAL600  ARG601  ASP602  TYR603  ARG608  ILE653  VAL654  TRP683 
 PRO687  HEM750  H4B760 

> <Gold.Protein.RotatedAtoms>
  205.1259   45.6084   69.2608 H   0  0  0  0  0  0  0  0  0  0  0  0  # atno 10110 bound_to 10082
  214.2641   29.1760   74.6870 H   0  0  0  0  0  0  0  0  0  0  0  0  # atno 11435 bound_to 11402
  209.5557   31.2563   77.6729 H   0  0  0  0  0  0  0  0  0  0  0  0  # atno 16977 bound_to 16932
  210.6909   42.7798   73.0634 H   0  0  0  0  0  0  0  0  0  0  0  0  # atno 18289 bound_to 18266
  206.1481   31.9805   75.5723 H   0  0  0  0  0  0  0  0  0  0  0  0  # atno 18485 bound_to 18440
  197.3180   30.2080   68.2653 H   0  0  0  0  0  0  0  0  0  0  0  0  # atno 18650 bound_to 18615
  208.5331   32.0458   76.6835 LP  0  0  0  0  0  0  0  0  0  0  0  0  # atno 27195 bound_to 16932
  208.0510   30.6820   77.4413 LP  0  0  0  0  0  0  0  0  0  0  0  0  # atno 27196 bound_to 16932
  205.7700   32.4308   77.0898 LP  0  0  0  0  0  0  0  0  0  0  0  0  # atno 27197 bound_to 18440
  206.7505   33.3656   76.1780 LP  0  0  0  0  0  0  0  0  0  0  0  0  # atno 27198 bound_to 18440
  205.6093   44.4439   70.2897 LP  0  0  0  0  0  0  0  0  0  0  0  0  # atno 27253 bound_to 10082
  205.7952   44.2436   68.6798 LP  0  0  0  0  0  0  0  0  0  0  0  0  # atno 27254 bound_to 10082
  210.9460   42.3483   74.6116 LP  0  0  0  0  0  0  0  0  0  0  0  0  # atno 27255 bound_to 18266
  209.4735   42.8730   74.1393 LP  0  0  0  0  0  0  0  0  0  0  0  0  # atno 27256 bound_to 18266

> <Gold.Score>
     Fitness  S(hb_ext) S(vdw_ext)  S(hb_int)    S(int)      intcor
     29.10       6.00      18.86       0.00      -2.83      -0.76

> <Gold.Goldscore.Fitness>
29.1008

> <Gold.Goldscore.Internal.Vdw>
-3.0970

> <Gold.Goldscore.Internal.Torsion>
-0.4878

> <Gold.Goldscore.External.Vdw>
18.8560

> <Gold.Goldscore.Internal.HBond>
0.0000

> <Gold.Goldscore.External.HBond>
6.0000

> <Gold.Goldscore.Internal.Correction>
-0.7585

> <Gold.Goldscore.Hbonds>
donor molecule, donor type, donor heavy atom, donor atom, acceptor molecule, acceptor atom, score
      L1  H     8    22       P1 27071  1.00

> <Gold.Goldscore.Internal.Vdw.Weighted>
-3.0970

> <Gold.Goldscore.Internal.Torsion.Weighted>
-0.4878

> <Gold.Goldscore.External.Vdw.Weighted>
25.9271

> <Gold.Goldscore.Internal.HBond.Weighted>
0.0000

> <Gold.Goldscore.External.HBond.Weighted>
6.0000

> <Gold.Goldscore.Internal.Correction.Weighted>
-0.7585

> <Gold.Rescore>
     Score     S(PLP)   S(hbond)     S(cho)   S(metal)  DE(clash)   DE(tors)     intcor
     22.98     -21.89       1.00       0.00       0.00       0.05       0.93       ----

> <Gold.PLP.Fitness>
22.9771

> <Gold.PLP.PLP>
-21.8923

> <Gold.PLP.part.hbond>
-2.3328

> <Gold.PLP.part.metal>
0.0000

> <Gold.PLP.part.buried>
-2.1862

> <Gold.PLP.part.nonpolar>
-18.2008

> <Gold.PLP.part.repulsive>
0.3145

> <Gold.PLP.ligand.clash>
0.0493

> <Gold.PLP.ligand.torsion>
0.9329

> <Gold.PLP.Chemscore.Hbond>
1.0000

> <Gold.PLP.Chemscore.CHOScore>
0.0000

> <Gold.PLP.Chemscore.Metal>
0.0000

> <Gold.Chemscore.Hbonds>
donor molecule, donor type, donor heavy atom, donor atom, acceptor molecule, acceptor atom, score
      L1  H     8    22       P1 27071  0.45

> <Gold.PLP.Chemscore.Internal.Correction>
   9.000000E+99

