#       Name:                CT1002167954
#       Creating user name   hitesit
#       Creation time:       Sun Apr 16 20:18:31 2023


#       File generated by GOLD software.
#

@<TRIPOS>MOLECULE
CT1002167954|ligand_prepared|mol2|1|dock6
    29    30     1
SMALL
NO_CHARGES


@<TRIPOS>ATOM
      1 C1         207.1052  35.5646  69.8292 C.3            1 RES1               0.0000
      2 C2         207.9632  34.2830  69.8396 C.ar           1 RES1               0.0000
      3 C3         207.9430  36.6466  70.5042 C.2            1 RES1               0.0000
      4 C4         206.7821  35.8498  68.3667 C.2            1 RES1               0.0000
      5 C5         205.7691  35.4282  70.5959 C.3            1 RES1               0.0000
      6 C6         208.1878  33.5902  71.0255 C.ar           1 RES1               0.0000
      7 C7         208.5335  33.7807  68.6730 C.ar           1 RES1               0.0000
      8 N8         208.4901  37.6101  69.7091 N.am           1 RES1               0.0000
      9 O9         208.1533  36.6322  71.7108 O.2            1 RES1               0.0000
     10 N10        207.3026  36.9856  67.8039 N.am           1 RES1               0.0000
     11 O11        206.0952  35.0928  67.6921 O.2            1 RES1               0.0000
     12 C12        204.8521  36.6323  70.4488 C.3            1 RES1               0.0000
     13 C13        208.9523  32.4354  71.0440 C.ar           1 RES1               0.0000
     14 C14        209.2980  32.6259  68.6938 C.ar           1 RES1               0.0000
     15 C15        208.1672  37.8628  68.4000 C.2            1 RES1               0.0000
     16 C16        209.5075  31.9523  69.8783 C.ar           1 RES1               0.0000
     17 O17        208.6356  38.8326  67.8109 O.2            1 RES1               0.0000
     18 H18        205.2428  34.5371  70.2323 H              1 RES1               0.0000
     19 H19        205.9866  35.2781  71.6606 H              1 RES1               0.0000
     20 H20        207.7610  33.9566  71.9532 H              1 RES1               0.0000
     21 H21        208.3830  34.2947  67.7297 H              1 RES1               0.0000
     22 H22        209.2054  38.1970  70.1263 H              1 RES1               0.0000
     23 H23        207.0193  37.1968  66.8523 H              1 RES1               0.0000
     24 H24        203.9294  36.4847  71.0060 H              1 RES1               0.0000
     25 H25        205.3343  37.5325  70.8241 H              1 RES1               0.0000
     26 H26        204.5949  36.7959  69.4043 H              1 RES1               0.0000
     27 H27        209.1153  31.9098  71.9791 H              1 RES1               0.0000
     28 H28        209.7335  32.2496  67.7740 H              1 RES1               0.0000
     29 H29        210.1060  31.0474  69.8930 H              1 RES1               0.0000
@<TRIPOS>BOND
    1    1    2 1     
    2    1    3 1     
    3    1    4 1     
    4    1    5 1     
    5    2    6 ar    
    6    2    7 ar    
    7    3    8 1     
    8    3    9 2     
    9    4   10 1     
   10    4   11 2     
   11    5   12 1     
   12    5   18 1     
   13    5   19 1     
   14    6   13 ar    
   15    6   20 1     
   16    7   14 ar    
   17    7   21 1     
   18    8   15 1     
   19    8   22 1     
   20   10   15 1     
   21   10   23 1     
   22   12   24 1     
   23   12   25 1     
   24   12   26 1     
   25   13   16 ar    
   26   13   27 1     
   27   14   16 ar    
   28   14   28 1     
   29   15   17 2     
   30   16   29 1     
@<TRIPOS>SUBSTRUCTURE
      1 RES1           1
@<TRIPOS>SET
DONOR_HYDROGENS      STATIC     ATOMS    <user>   **** ""
2 22 23
ATOM$RED        STATIC     ATOMS    COLORGROUP SYSTEM
2 22 23
@<TRIPOS>COMMENT
> <Gold.Version>
2022.3.0

> <Gold.Id.Protein>
unknown|4d1n_clean|pdb

> <Gold.Protein.RotatedTorsions>
[ 16977 16932 16931 16929 ] final -167.71 input   60.00 | X-H torsion
[ 18485 18440 18439 18437 ] final   42.58 input   60.00 | X-H torsion
[ 10110 10082 10081 10078 ] final   29.50 input   59.99 | X-H torsion
[ 18289 18266 18265 18262 ] final   -8.54 input   60.03 | X-H torsion
[ 18650 18615 18613 18610 ] final  -12.57 input   59.98 | X-H torsion
[ 11435 11402 11401 11398 ] final -136.03 input   60.03 | X-H torsion

> <Gold.Protein.ActiveResidues>
 TRP414  CYS420  VAL421  GLY422  LEU460  SER462  SER482  GLN483  ILE485  ARG486 
 TYR487  ASP500  ASN503  TRP566  TYR567  LEU569  PRO570  ALA571  VAL572  SER573 
 ASN574  PHE589  SER590  GLY591  TRP592  TYR593  MET594  GLY595  THR596  GLU597 
 ILE598  GLY599  VAL600  ARG601  ASP602  TYR603  ARG608  ILE653  VAL654  TRP683 
 PRO687  HEM750  H4B760 

> <Gold.Protein.RotatedAtoms>
  205.2830   45.1542   70.2319 H   0  0  0  0  0  0  0  0  0  0  0  0  # atno 10110 bound_to 10082
  215.4375   28.0327   74.9561 H   0  0  0  0  0  0  0  0  0  0  0  0  # atno 11435 bound_to 11402
  208.5634   30.5445   77.7562 H   0  0  0  0  0  0  0  0  0  0  0  0  # atno 16977 bound_to 16932
  210.5200   42.8363   73.0273 H   0  0  0  0  0  0  0  0  0  0  0  0  # atno 18289 bound_to 18266
  206.6057   32.6106   75.4242 H   0  0  0  0  0  0  0  0  0  0  0  0  # atno 18485 bound_to 18440
  198.2552   30.8504   69.6131 H   0  0  0  0  0  0  0  0  0  0  0  0  # atno 18650 bound_to 18615
  209.5524   31.7590   77.3152 LP  0  0  0  0  0  0  0  0  0  0  0  0  # atno 27195 bound_to 16932
  208.0313   31.6858   76.7257 LP  0  0  0  0  0  0  0  0  0  0  0  0  # atno 27196 bound_to 16932
  205.6660   31.8724   76.5290 LP  0  0  0  0  0  0  0  0  0  0  0  0  # atno 27197 bound_to 18440
  206.3937   33.2895   76.8879 LP  0  0  0  0  0  0  0  0  0  0  0  0  # atno 27198 bound_to 18440
  205.9093   43.9138   69.3847 LP  0  0  0  0  0  0  0  0  0  0  0  0  # atno 27253 bound_to 10082
  205.3371   45.2309   68.6072 LP  0  0  0  0  0  0  0  0  0  0  0  0  # atno 27254 bound_to 10082
  211.0723   42.3443   74.4769 LP  0  0  0  0  0  0  0  0  0  0  0  0  # atno 27255 bound_to 18266
  209.5191   42.8201   74.3104 LP  0  0  0  0  0  0  0  0  0  0  0  0  # atno 27256 bound_to 18266

> <Gold.Score>
     Fitness  S(hb_ext) S(vdw_ext)  S(hb_int)    S(int)      intcor
     34.66       0.45      26.01       0.00      -1.55      -0.76

> <Gold.Goldscore.Fitness>
34.6647

> <Gold.Goldscore.Internal.Vdw>
-1.8672

> <Gold.Goldscore.Internal.Torsion>
-0.4377

> <Gold.Goldscore.External.Vdw>
26.0076

> <Gold.Goldscore.Internal.HBond>
0.0000

> <Gold.Goldscore.External.HBond>
0.4507

> <Gold.Goldscore.Internal.Correction>
-0.7585

> <Gold.Goldscore.Hbonds>
donor molecule, donor type, donor heavy atom, donor atom, acceptor molecule, acceptor atom, score
      P1  H 18305 18321       L1     9  0.05
      P1  M 26799 27259       L1    11  0.03
      L1  H     8    22       P1 18184  0.05

> <Gold.Goldscore.Internal.Vdw.Weighted>
-1.8672

> <Gold.Goldscore.Internal.Torsion.Weighted>
-0.4377

> <Gold.Goldscore.External.Vdw.Weighted>
35.7604

> <Gold.Goldscore.Internal.HBond.Weighted>
0.0000

> <Gold.Goldscore.External.HBond.Weighted>
0.4507

> <Gold.Goldscore.Internal.Correction.Weighted>
-0.7585

> <Gold.Rescore>
     Score     S(PLP)   S(hbond)     S(cho)   S(metal)  DE(clash)   DE(tors)     intcor
     28.13     -22.36       0.45       0.00       1.00       1.37       0.10       ----

> <Gold.PLP.Fitness>
28.1266

> <Gold.PLP.PLP>
-22.3634

> <Gold.PLP.part.hbond>
-2.0774

> <Gold.PLP.part.metal>
-0.7921

> <Gold.PLP.part.buried>
31.8457

> <Gold.PLP.part.nonpolar>
-58.6409

> <Gold.PLP.part.repulsive>
5.7086

> <Gold.PLP.ligand.clash>
1.3725

> <Gold.PLP.ligand.torsion>
0.1041

> <Gold.PLP.Chemscore.Hbond>
0.4480

> <Gold.PLP.Chemscore.CHOScore>
0.0000

> <Gold.PLP.Chemscore.Metal>
1.0000

> <Gold.Chemscore.Hbonds>
donor molecule, donor type, donor heavy atom, donor atom, acceptor molecule, acceptor atom, score
      P1  M 26799 26799       L1    11  0.16

> <Gold.PLP.Chemscore.Internal.Correction>
   9.000000E+99

