#       Name:                CT1002167954
#       Creating user name   hitesit
#       Creation time:       Sun Apr 16 20:18:33 2023


#       File generated by GOLD software.
#

@<TRIPOS>MOLECULE
CT1002167954|ligand_prepared|mol2|1|dock8
    29    30     1
SMALL
NO_CHARGES


@<TRIPOS>ATOM
      1 C1         206.9351  30.0650  71.6050 C.3            1 RES1               0.0000
      2 C2         206.2774  29.1030  70.5946 C.ar           1 RES1               0.0000
      3 C3         206.0442  30.0601  72.8437 C.2            1 RES1               0.0000
      4 C4         208.3423  29.5310  71.8487 C.2            1 RES1               0.0000
      5 C5         207.0579  31.5194  71.0940 C.3            1 RES1               0.0000
      6 C6         205.0641  29.4264  69.9948 C.ar           1 RES1               0.0000
      7 C7         206.8723  27.8919  70.2510 C.ar           1 RES1               0.0000
      8 N8         206.4978  29.3969  73.9457 N.am           1 RES1               0.0000
      9 O9         204.9429  30.5963  72.8408 O.2            1 RES1               0.0000
     10 N10        208.6440  29.0642  73.1012 N.am           1 RES1               0.0000
     11 O11        209.1875  29.4949  70.9629 O.2            1 RES1               0.0000
     12 C12        207.9313  32.4050  71.9688 C.3            1 RES1               0.0000
     13 C13        204.4683  28.5716  69.0823 C.ar           1 RES1               0.0000
     14 C14        206.2748  27.0384  69.3384 C.ar           1 RES1               0.0000
     15 C15        207.7762  28.9445  74.1524 C.2            1 RES1               0.0000
     16 C16        205.0734  27.3774  68.7531 C.ar           1 RES1               0.0000
     17 O17        208.1083  28.4641  75.2322 O.2            1 RES1               0.0000
     18 H18        207.4755  31.5033  70.0797 H              1 RES1               0.0000
     19 H19        206.0546  31.9594  71.0366 H              1 RES1               0.0000
     20 H20        204.5718  30.3608  70.2433 H              1 RES1               0.0000
     21 H21        207.8170  27.6041  70.6997 H              1 RES1               0.0000
     22 H22        205.8242  29.2210  74.6843 H              1 RES1               0.0000
     23 H23        209.6044  28.7796  73.2652 H              1 RES1               0.0000
     24 H24        207.9836  33.4141  71.5655 H              1 RES1               0.0000
     25 H25        207.5312  32.4640  72.9789 H              1 RES1               0.0000
     26 H26        208.9436  32.0106  72.0277 H              1 RES1               0.0000
     27 H27        203.5222  28.8424  68.6255 H              1 RES1               0.0000
     28 H28        206.7542  26.0993  69.0828 H              1 RES1               0.0000
     29 H29        204.6067  26.7081  68.0380 H              1 RES1               0.0000
@<TRIPOS>BOND
    1    1    2 1     
    2    1    3 1     
    3    1    4 1     
    4    1    5 1     
    5    2    6 ar    
    6    2    7 ar    
    7    3    8 1     
    8    3    9 2     
    9    4   10 1     
   10    4   11 2     
   11    5   12 1     
   12    5   18 1     
   13    5   19 1     
   14    6   13 ar    
   15    6   20 1     
   16    7   14 ar    
   17    7   21 1     
   18    8   15 1     
   19    8   22 1     
   20   10   15 1     
   21   10   23 1     
   22   12   24 1     
   23   12   25 1     
   24   12   26 1     
   25   13   16 ar    
   26   13   27 1     
   27   14   16 ar    
   28   14   28 1     
   29   15   17 2     
   30   16   29 1     
@<TRIPOS>SUBSTRUCTURE
      1 RES1           1
@<TRIPOS>SET
DONOR_HYDROGENS      STATIC     ATOMS    <user>   **** ""
2 22 23
ATOM$RED        STATIC     ATOMS    COLORGROUP SYSTEM
2 22 23
@<TRIPOS>COMMENT
> <Gold.Version>
2022.3.0

> <Gold.Id.Protein>
unknown|4d1n_clean|pdb

> <Gold.Protein.RotatedTorsions>
[ 16977 16932 16931 16929 ] final -132.47 input   60.00 | X-H torsion
[ 18485 18440 18439 18437 ] final    7.48 input   60.00 | X-H torsion
[ 10110 10082 10081 10078 ] final  116.66 input   59.99 | X-H torsion
[ 18289 18266 18265 18262 ] final -151.44 input   60.03 | X-H torsion
[ 18650 18615 18613 18610 ] final -111.75 input   59.98 | X-H torsion
[ 11435 11402 11401 11398 ] final -119.36 input   60.03 | X-H torsion

> <Gold.Protein.ActiveResidues>
 TRP414  CYS420  VAL421  GLY422  LEU460  SER462  SER482  GLN483  ILE485  ARG486 
 TYR487  ASP500  ASN503  TRP566  TYR567  LEU569  PRO570  ALA571  VAL572  SER573 
 ASN574  PHE589  SER590  GLY591  TRP592  TYR593  MET594  GLY595  THR596  GLU597 
 ILE598  GLY599  VAL600  ARG601  ASP602  TYR603  ARG608  ILE653  VAL654  TRP683 
 PRO687  HEM750  H4B760 

> <Gold.Protein.RotatedAtoms>
  205.1719   45.5414   69.0053 H   0  0  0  0  0  0  0  0  0  0  0  0  # atno 10110 bound_to 10082
  215.6293   28.1378   75.1169 H   0  0  0  0  0  0  0  0  0  0  0  0  # atno 11435 bound_to 11402
  208.0881   30.6639   77.4718 H   0  0  0  0  0  0  0  0  0  0  0  0  # atno 16977 bound_to 16932
  210.7883   42.3651   74.7178 H   0  0  0  0  0  0  0  0  0  0  0  0  # atno 18289 bound_to 18266
  206.2959   32.1398   75.4611 H   0  0  0  0  0  0  0  0  0  0  0  0  # atno 18485 bound_to 18440
  197.1743   30.6880   68.6975 H   0  0  0  0  0  0  0  0  0  0  0  0  # atno 18650 bound_to 18615
  209.5762   31.2976   77.6503 LP  0  0  0  0  0  0  0  0  0  0  0  0  # atno 27195 bound_to 16932
  208.4864   32.0269   76.6771 LP  0  0  0  0  0  0  0  0  0  0  0  0  # atno 27196 bound_to 16932
  205.6956   32.2287   76.9712 LP  0  0  0  0  0  0  0  0  0  0  0  0  # atno 27197 bound_to 18440
  206.6760   33.4072   76.4086 LP  0  0  0  0  0  0  0  0  0  0  0  0  # atno 27198 bound_to 18440
  205.4948   44.6813   70.3485 LP  0  0  0  0  0  0  0  0  0  0  0  0  # atno 27253 bound_to 10082
  205.8634   44.0737   68.8783 LP  0  0  0  0  0  0  0  0  0  0  0  0  # atno 27254 bound_to 10082
  209.4625   42.9194   73.9540 LP  0  0  0  0  0  0  0  0  0  0  0  0  # atno 27255 bound_to 18266
  210.8587   42.7194   73.1311 LP  0  0  0  0  0  0  0  0  0  0  0  0  # atno 27256 bound_to 18266

> <Gold.Score>
     Fitness  S(hb_ext) S(vdw_ext)  S(hb_int)    S(int)      intcor
     36.08       7.25      22.52       0.00      -2.13      -0.76

> <Gold.Goldscore.Fitness>
36.0829

> <Gold.Goldscore.Internal.Vdw>
-2.3426

> <Gold.Goldscore.Internal.Torsion>
-0.5475

> <Gold.Goldscore.External.Vdw>
22.5212

> <Gold.Goldscore.Internal.HBond>
0.0000

> <Gold.Goldscore.External.HBond>
7.2478

> <Gold.Goldscore.Internal.Correction>
-0.7585

> <Gold.Goldscore.Hbonds>
donor molecule, donor type, donor heavy atom, donor atom, acceptor molecule, acceptor atom, score
      P1  H 11671 11743       L1    17  0.43
      P1  H 19323 19381       L1    17  0.24
      L1  H     8    22       P1 18996  0.54

> <Gold.Goldscore.Internal.Vdw.Weighted>
-2.3426

> <Gold.Goldscore.Internal.Torsion.Weighted>
-0.5475

> <Gold.Goldscore.External.Vdw.Weighted>
30.9666

> <Gold.Goldscore.Internal.HBond.Weighted>
0.0000

> <Gold.Goldscore.External.HBond.Weighted>
7.2478

> <Gold.Goldscore.Internal.Correction.Weighted>
-0.7585

> <Gold.Rescore>
     Score     S(PLP)   S(hbond)     S(cho)   S(metal)  DE(clash)   DE(tors)     intcor
     19.48     -15.02       2.05       0.00       0.00       1.43       0.13       ----

> <Gold.PLP.Fitness>
19.4828

> <Gold.PLP.PLP>
-15.0193

> <Gold.PLP.part.hbond>
-5.5319

> <Gold.PLP.part.metal>
0.0000

> <Gold.PLP.part.buried>
6.9773

> <Gold.PLP.part.nonpolar>
-26.9032

> <Gold.PLP.part.repulsive>
7.9416

> <Gold.PLP.ligand.clash>
1.4278

> <Gold.PLP.ligand.torsion>
0.1315

> <Gold.PLP.Chemscore.Hbond>
2.0515

> <Gold.PLP.Chemscore.CHOScore>
0.0000

> <Gold.PLP.Chemscore.Metal>
0.0000

> <Gold.Chemscore.Hbonds>
donor molecule, donor type, donor heavy atom, donor atom, acceptor molecule, acceptor atom, score
      L1  H     8    22       P1 18996  0.75
      P1  H 11671 11743       L1    17  0.88
      P1  H 19323 19381       L1    17  1.00

> <Gold.PLP.Chemscore.Internal.Correction>
   9.000000E+99

