#       Name:                CT1002167954
#       Creating user name   hitesit
#       Creation time:       Sun Apr 16 20:15:38 2023


#       File generated by GOLD software.
#

@<TRIPOS>MOLECULE
CT1002167954|ligand_prepared|mol2|1|dock3
    29    30     1
SMALL
NO_CHARGES


@<TRIPOS>ATOM
      1 C1          25.7121   9.3100  -2.3481 C.3            1 RES1               0.0000
      2 C2          26.8451   9.7368  -3.3036 C.ar           1 RES1               0.0000
      3 C3          26.3586   8.4276  -1.2842 C.2            1 RES1               0.0000
      4 C4          25.1056  10.5983  -1.8032 C.2            1 RES1               0.0000
      5 C5          24.5850   8.5047  -3.0356 C.3            1 RES1               0.0000
      6 C6          28.1744   9.6828  -2.8953 C.ar           1 RES1               0.0000
      7 C7          26.5772  10.1833  -4.5949 C.ar           1 RES1               0.0000
      8 N8          26.5257   8.9585  -0.0392 N.am           1 RES1               0.0000
      9 O9          26.7517   7.2971  -1.5442 O.2            1 RES1               0.0000
     10 N10         25.2420  10.8562  -0.4643 N.am           1 RES1               0.0000
     11 O11         24.5252  11.4005  -2.5243 O.2            1 RES1               0.0000
     12 C12         23.4416   8.1329  -2.1048 C.3            1 RES1               0.0000
     13 C13         29.1991  10.0588  -3.7480 C.ar           1 RES1               0.0000
     14 C14         27.6033  10.5590  -5.4460 C.ar           1 RES1               0.0000
     15 C15         25.9511  10.1096   0.4368 C.2            1 RES1               0.0000
     16 C16         28.9143  10.4967  -5.0239 C.ar           1 RES1               0.0000
     17 O17         26.0736  10.4355   1.6141 O.2            1 RES1               0.0000
     18 H18         24.1847   9.0972  -3.8675 H              1 RES1               0.0000
     19 H19         25.0127   7.5852  -3.4541 H              1 RES1               0.0000
     20 H20         28.4176   9.3432  -1.8941 H              1 RES1               0.0000
     21 H21         25.5532  10.2416  -4.9481 H              1 RES1               0.0000
     22 H22         27.1342   8.4530   0.5968 H              1 RES1               0.0000
     23 H23         24.7711  11.6810  -0.1062 H              1 RES1               0.0000
     24 H24         22.6784   7.5693  -2.6373 H              1 RES1               0.0000
     25 H25         23.7996   7.5218  -1.2788 H              1 RES1               0.0000
     26 H26         22.9765   9.0248  -1.6898 H              1 RES1               0.0000
     27 H27         30.2291  10.0092  -3.4106 H              1 RES1               0.0000
     28 H28         27.3746  10.9036  -6.4490 H              1 RES1               0.0000
     29 H29         29.7172  10.7908  -5.6918 H              1 RES1               0.0000
@<TRIPOS>BOND
    1    1    2 1     
    2    1    3 1     
    3    1    4 1     
    4    1    5 1     
    5    2    6 ar    
    6    2    7 ar    
    7    3    8 1     
    8    3    9 2     
    9    4   10 1     
   10    4   11 2     
   11    5   12 1     
   12    5   18 1     
   13    5   19 1     
   14    6   13 ar    
   15    6   20 1     
   16    7   14 ar    
   17    7   21 1     
   18    8   15 1     
   19    8   22 1     
   20   10   15 1     
   21   10   23 1     
   22   12   24 1     
   23   12   25 1     
   24   12   26 1     
   25   13   16 ar    
   26   13   27 1     
   27   14   16 ar    
   28   14   28 1     
   29   15   17 2     
   30   16   29 1     
@<TRIPOS>SUBSTRUCTURE
      1 RES1           1
@<TRIPOS>SET
DONOR_HYDROGENS      STATIC     ATOMS    <user>   **** ""
2 22 23
ATOM$RED        STATIC     ATOMS    COLORGROUP SYSTEM
2 22 23
@<TRIPOS>COMMENT
> <Gold.Version>
2022.3.0

> <Gold.Id.Protein>
unknown|3oog_clean|pdb

> <Gold.Protein.RotatedTorsions>
[ 2749 2742 2740 2737 ] final  -60.88 input   59.98 | X-H torsion
[ 1741 1732 1731 1729 ] final  -40.57 input   60.02 | X-H torsion
[ 2430 2423 2422 2420 ] final  133.94 input   60.03 | X-H torsion
[ 4996 4987 4986 4984 ] final  168.52 input   60.02 | X-H torsion

> <Gold.Protein.ActiveResidues>
 LEU49   GLY50   THR51   ARG56   VAL57   MET58   LEU59   HIS68   TYR69   ALA70  
 MET71   LYS72   LEU74   GLU91   LEU95   VAL104  LYS105  LEU106  MET118  VAL119 
 MET120  GLU121  TYR122  VAL123  PRO124  GLY125  GLY126  GLU127  TYR164  GLU170 
 ASN171  LEU172  LEU173  ILE174  ASP175  GLN181  VAL182  THR183  ASP184  PHE185 
 GLY186  THR324  PHE327  TYR330 

> <Gold.Protein.RotatedAtoms>
   34.0889   11.3680  -10.4284 H   0  0  0  0  0  0  0  0  0  0  0  0  # atno 1741 bound_to 1732
   26.6456    1.8316    2.2746 H   0  0  0  0  0  0  0  0  0  0  0  0  # atno 2430 bound_to 2423
   28.4881    5.4112   -0.8672 H   0  0  0  0  0  0  0  0  0  0  0  0  # atno 2749 bound_to 2742
   21.8190   10.3329   -8.7984 H   0  0  0  0  0  0  0  0  0  0  0  0  # atno 4996 bound_to 4987
   28.3041    6.9797   -1.2607 LP  0  0  0  0  0  0  0  0  0  0  0  0  # atno 5321 bound_to 2742
   27.5100    6.3589    0.0241 LP  0  0  0  0  0  0  0  0  0  0  0  0  # atno 5322 bound_to 2742
   35.4300   12.0356  -11.0640 LP  0  0  0  0  0  0  0  0  0  0  0  0  # atno 5347 bound_to 1732
   34.1613   12.9781  -10.6533 LP  0  0  0  0  0  0  0  0  0  0  0  0  # atno 5348 bound_to 1732

> <Gold.Score>
     Fitness  S(hb_ext) S(vdw_ext)  S(hb_int)    S(int)      intcor
     34.49       6.00      22.40       0.00      -2.31      -0.77

> <Gold.Goldscore.Fitness>
34.4922

> <Gold.Goldscore.Internal.Vdw>
-2.7024

> <Gold.Goldscore.Internal.Torsion>
-0.3740

> <Gold.Goldscore.External.Vdw>
22.3998

> <Gold.Goldscore.Internal.HBond>
0.0000

> <Gold.Goldscore.External.HBond>
5.9995

> <Gold.Goldscore.Internal.Correction>
-0.7693

> <Gold.Goldscore.Hbonds>
donor molecule, donor type, donor heavy atom, donor atom, acceptor molecule, acceptor atom, score
      P1  H   856   868       L1    17  1.00

> <Gold.Goldscore.Internal.Vdw.Weighted>
-2.7024

> <Gold.Goldscore.Internal.Torsion.Weighted>
-0.3740

> <Gold.Goldscore.External.Vdw.Weighted>
30.7998

> <Gold.Goldscore.Internal.HBond.Weighted>
0.0000

> <Gold.Goldscore.External.HBond.Weighted>
5.9995

> <Gold.Goldscore.Internal.Correction.Weighted>
-0.7693

> <Gold.Rescore>
     Score     S(PLP)   S(hbond)     S(cho)   S(metal)  DE(clash)   DE(tors)     intcor
     34.85     -34.09       0.94       0.00       0.00       0.00       1.03       ----

> <Gold.PLP.Fitness>
34.8521

> <Gold.PLP.PLP>
-34.0887

> <Gold.PLP.part.hbond>
-1.8205

> <Gold.PLP.part.metal>
0.0000

> <Gold.PLP.part.buried>
-2.9203

> <Gold.PLP.part.nonpolar>
-29.3883

> <Gold.PLP.part.repulsive>
0.4582

> <Gold.PLP.ligand.clash>
0.0000

> <Gold.PLP.ligand.torsion>
1.0343

> <Gold.PLP.Chemscore.Hbond>
0.9440

> <Gold.PLP.Chemscore.CHOScore>
0.0000

> <Gold.PLP.Chemscore.Metal>
0.0000

> <Gold.Chemscore.Hbonds>
donor molecule, donor type, donor heavy atom, donor atom, acceptor molecule, acceptor atom, score
      P1  H   856   868       L1    17  0.76

> <Gold.PLP.Chemscore.Internal.Correction>
   9.000000E+99

