#       Name:                CT1002167954
#       Creating user name   hitesit
#       Creation time:       Sun Apr 16 20:15:39 2023


#       File generated by GOLD software.
#

@<TRIPOS>MOLECULE
CT1002167954|ligand_prepared|mol2|1|dock4
    29    30     1
SMALL
NO_CHARGES


@<TRIPOS>ATOM
      1 C1          26.8825   9.5039  -2.8328 C.3            1 RES1               0.0000
      2 C2          28.3617   9.9275  -2.9396 C.ar           1 RES1               0.0000
      3 C3          26.5798   9.3767  -1.3426 C.2            1 RES1               0.0000
      4 C4          26.0763  10.5870  -3.5411 C.2            1 RES1               0.0000
      5 C5          26.5690   8.1519  -3.5148 C.3            1 RES1               0.0000
      6 C6          29.0278   9.8736  -4.1603 C.ar           1 RES1               0.0000
      7 C7          29.0712  10.3762  -1.8288 C.ar           1 RES1               0.0000
      8 N8          25.8192  10.3514  -0.7669 N.am           1 RES1               0.0000
      9 O9          27.0346   8.4564  -0.6745 O.2            1 RES1               0.0000
     10 N10         25.2258  11.3515  -2.7862 N.am           1 RES1               0.0000
     11 O11         26.1823  10.7962  -4.7433 O.2            1 RES1               0.0000
     12 C12         25.1485   7.6621  -3.2810 C.3            1 RES1               0.0000
     13 C13         30.3544  10.2570  -4.2674 C.ar           1 RES1               0.0000
     14 C14         30.3979  10.7589  -1.9381 C.ar           1 RES1               0.0000
     15 C15         25.0836  11.3032  -1.4262 C.2            1 RES1               0.0000
     16 C16         31.0402  10.7003  -3.1566 C.ar           1 RES1               0.0000
     17 O17         24.3381  12.0611  -0.8122 O.2            1 RES1               0.0000
     18 H18         26.7339   8.2544  -4.5945 H              1 RES1               0.0000
     19 H19         27.2694   7.3959  -3.1389 H              1 RES1               0.0000
     20 H20         28.5052   9.5251  -5.0449 H              1 RES1               0.0000
     21 H21         28.5867  10.4296  -0.8599 H              1 RES1               0.0000
     22 H22         25.7952  10.3747   0.2475 H              1 RES1               0.0000
     23 H23         24.6448  12.0184  -3.2843 H              1 RES1               0.0000
     24 H24         24.9816   6.7103  -3.7809 H              1 RES1               0.0000
     25 H25         24.9578   7.5249  -2.2187 H              1 RES1               0.0000
     26 H26         24.4254   8.3783  -3.6656 H              1 RES1               0.0000
     27 H27         30.8557  10.2077  -5.2284 H              1 RES1               0.0000
     28 H28         30.9339  11.1066  -1.0611 H              1 RES1               0.0000
     29 H29         32.0793  11.0010  -3.2408 H              1 RES1               0.0000
@<TRIPOS>BOND
    1    1    2 1     
    2    1    3 1     
    3    1    4 1     
    4    1    5 1     
    5    2    6 ar    
    6    2    7 ar    
    7    3    8 1     
    8    3    9 2     
    9    4   10 1     
   10    4   11 2     
   11    5   12 1     
   12    5   18 1     
   13    5   19 1     
   14    6   13 ar    
   15    6   20 1     
   16    7   14 ar    
   17    7   21 1     
   18    8   15 1     
   19    8   22 1     
   20   10   15 1     
   21   10   23 1     
   22   12   24 1     
   23   12   25 1     
   24   12   26 1     
   25   13   16 ar    
   26   13   27 1     
   27   14   16 ar    
   28   14   28 1     
   29   15   17 2     
   30   16   29 1     
@<TRIPOS>SUBSTRUCTURE
      1 RES1           1
@<TRIPOS>SET
DONOR_HYDROGENS      STATIC     ATOMS    <user>   **** ""
2 22 23
ATOM$RED        STATIC     ATOMS    COLORGROUP SYSTEM
2 22 23
@<TRIPOS>COMMENT
> <Gold.Version>
2022.3.0

> <Gold.Id.Protein>
unknown|3oog_clean|pdb

> <Gold.Protein.RotatedTorsions>
[ 2749 2742 2740 2737 ] final  126.25 input   59.98 | X-H torsion
[ 1741 1732 1731 1729 ] final -114.81 input   60.02 | X-H torsion
[ 2430 2423 2422 2420 ] final  157.28 input   60.03 | X-H torsion
[ 4996 4987 4986 4984 ] final   72.37 input   60.02 | X-H torsion

> <Gold.Protein.ActiveResidues>
 LEU49   GLY50   THR51   ARG56   VAL57   MET58   LEU59   HIS68   TYR69   ALA70  
 MET71   LYS72   LEU74   GLU91   LEU95   VAL104  LYS105  LEU106  MET118  VAL119 
 MET120  GLU121  TYR122  VAL123  PRO124  GLY125  GLY126  GLU127  TYR164  GLU170 
 ASN171  LEU172  LEU173  ILE174  ASP175  GLN181  VAL182  THR183  ASP184  PHE185 
 GLY186  THR324  PHE327  TYR330 

> <Gold.Protein.RotatedAtoms>
   35.1317   11.3998  -10.8624 H   0  0  0  0  0  0  0  0  0  0  0  0  # atno 1741 bound_to 1732
   26.2695    1.8008    2.2407 H   0  0  0  0  0  0  0  0  0  0  0  0  # atno 2430 bound_to 2423
   27.7767    7.1232   -0.6273 H   0  0  0  0  0  0  0  0  0  0  0  0  # atno 2749 bound_to 2742
   23.1873   10.4299   -8.5574 H   0  0  0  0  0  0  0  0  0  0  0  0  # atno 4996 bound_to 4987
   27.8295    5.5900   -0.0837 LP  0  0  0  0  0  0  0  0  0  0  0  0  # atno 5321 bound_to 2742
   28.7008    6.0249   -1.3945 LP  0  0  0  0  0  0  0  0  0  0  0  0  # atno 5322 bound_to 2742
   34.8379   12.9987  -10.9349 LP  0  0  0  0  0  0  0  0  0  0  0  0  # atno 5347 bound_to 1732
   33.7032   11.9830  -10.3454 LP  0  0  0  0  0  0  0  0  0  0  0  0  # atno 5348 bound_to 1732

> <Gold.Score>
     Fitness  S(hb_ext) S(vdw_ext)  S(hb_int)    S(int)      intcor
     33.77       2.00      24.10       0.00      -1.37      -0.77

> <Gold.Goldscore.Fitness>
33.7674

> <Gold.Goldscore.Internal.Vdw>
-1.7042

> <Gold.Goldscore.Internal.Torsion>
-0.4335

> <Gold.Goldscore.External.Vdw>
24.0988

> <Gold.Goldscore.Internal.HBond>
0.0000

> <Gold.Goldscore.External.HBond>
2.0000

> <Gold.Goldscore.Internal.Correction>
-0.7693

> <Gold.Goldscore.Hbonds>
donor molecule, donor type, donor heavy atom, donor atom, acceptor molecule, acceptor atom, score
      P1  H  2742  2749       L1     9  1.00

> <Gold.Goldscore.Internal.Vdw.Weighted>
-1.7042

> <Gold.Goldscore.Internal.Torsion.Weighted>
-0.4335

> <Gold.Goldscore.External.Vdw.Weighted>
33.1358

> <Gold.Goldscore.Internal.HBond.Weighted>
0.0000

> <Gold.Goldscore.External.HBond.Weighted>
2.0000

> <Gold.Goldscore.Internal.Correction.Weighted>
-0.7693

> <Gold.Rescore>
     Score     S(PLP)   S(hbond)     S(cho)   S(metal)  DE(clash)   DE(tors)     intcor
     33.79     -32.38       1.00       0.00       0.00       1.31       0.14       ----

> <Gold.PLP.Fitness>
33.7950

> <Gold.PLP.PLP>
-32.3773

> <Gold.PLP.part.hbond>
-1.0000

> <Gold.PLP.part.metal>
0.0000

> <Gold.PLP.part.buried>
-2.3659

> <Gold.PLP.part.nonpolar>
-29.0974

> <Gold.PLP.part.repulsive>
0.3932

> <Gold.PLP.ligand.clash>
1.3122

> <Gold.PLP.ligand.torsion>
0.1350

> <Gold.PLP.Chemscore.Hbond>
1.0000

> <Gold.PLP.Chemscore.CHOScore>
0.0000

> <Gold.PLP.Chemscore.Metal>
0.0000

> <Gold.Chemscore.Hbonds>
donor molecule, donor type, donor heavy atom, donor atom, acceptor molecule, acceptor atom, score
      P1  H  2742  2749       L1     9  0.81

> <Gold.PLP.Chemscore.Internal.Correction>
   9.000000E+99

