#       Name:                CT1002167954
#       Creating user name   hitesit
#       Creation time:       Sun Apr 16 20:15:41 2023


#       File generated by GOLD software.
#

@<TRIPOS>MOLECULE
CT1002167954|ligand_prepared|mol2|1|dock6
    29    30     1
SMALL
NO_CHARGES


@<TRIPOS>ATOM
      1 C1          26.4586   9.3006  -3.4586 C.3            1 RES1               0.0000
      2 C2          25.6880   9.8628  -2.2467 C.ar           1 RES1               0.0000
      3 C3          27.9036   9.1218  -3.0021 C.2            1 RES1               0.0000
      4 C4          25.7616   7.9996  -3.8413 C.2            1 RES1               0.0000
      5 C5          26.4453  10.2310  -4.6938 C.3            1 RES1               0.0000
      6 C6          24.7156  10.8434  -2.4182 C.ar           1 RES1               0.0000
      7 C7          25.9361   9.4095  -0.9538 C.ar           1 RES1               0.0000
      8 N8          28.3410   7.8506  -2.7727 N.am           1 RES1               0.0000
      9 O9          28.6362  10.0840  -2.8082 O.2            1 RES1               0.0000
     10 N10         26.4591   6.8296  -3.6923 N.am           1 RES1               0.0000
     11 O11         24.6089   7.9758  -4.2548 O.2            1 RES1               0.0000
     12 C12         27.4490   9.8397  -5.7670 C.3            1 RES1               0.0000
     13 C13         24.0144  11.3506  -1.3368 C.ar           1 RES1               0.0000
     14 C14         25.2339   9.9182   0.1263 C.ar           1 RES1               0.0000
     15 C15         27.7064   6.6933  -3.1464 C.2            1 RES1               0.0000
     16 C16         24.2727  10.8881  -0.0640 C.ar           1 RES1               0.0000
     17 O17         28.2461   5.6011  -2.9956 O.2            1 RES1               0.0000
     18 H18         25.4394  10.2227  -5.1313 H              1 RES1               0.0000
     19 H19         26.6601  11.2557  -4.3664 H              1 RES1               0.0000
     20 H20         24.5003  11.2214  -3.4121 H              1 RES1               0.0000
     21 H21         26.6885   8.6478  -0.7801 H              1 RES1               0.0000
     22 H22         29.2214   7.7512  -2.2774 H              1 RES1               0.0000
     23 H23         26.0067   5.9816  -4.0188 H              1 RES1               0.0000
     24 H24         27.3982  10.5246  -6.6108 H              1 RES1               0.0000
     25 H25         28.4631   9.8618  -5.3732 H              1 RES1               0.0000
     26 H26         27.2496   8.8349  -6.1336 H              1 RES1               0.0000
     27 H27         23.2599  12.1147  -1.4917 H              1 RES1               0.0000
     28 H28         25.4409   9.5518   1.1264 H              1 RES1               0.0000
     29 H29         23.7230  11.2853   0.7830 H              1 RES1               0.0000
@<TRIPOS>BOND
    1    1    2 1     
    2    1    3 1     
    3    1    4 1     
    4    1    5 1     
    5    2    6 ar    
    6    2    7 ar    
    7    3    8 1     
    8    3    9 2     
    9    4   10 1     
   10    4   11 2     
   11    5   12 1     
   12    5   18 1     
   13    5   19 1     
   14    6   13 ar    
   15    6   20 1     
   16    7   14 ar    
   17    7   21 1     
   18    8   15 1     
   19    8   22 1     
   20   10   15 1     
   21   10   23 1     
   22   12   24 1     
   23   12   25 1     
   24   12   26 1     
   25   13   16 ar    
   26   13   27 1     
   27   14   16 ar    
   28   14   28 1     
   29   15   17 2     
   30   16   29 1     
@<TRIPOS>SUBSTRUCTURE
      1 RES1           1
@<TRIPOS>SET
DONOR_HYDROGENS      STATIC     ATOMS    <user>   **** ""
2 22 23
ATOM$RED        STATIC     ATOMS    COLORGROUP SYSTEM
2 22 23
@<TRIPOS>COMMENT
> <Gold.Version>
2022.3.0

> <Gold.Id.Protein>
unknown|3oog_clean|pdb

> <Gold.Protein.RotatedTorsions>
[ 2749 2742 2740 2737 ] final   24.40 input   59.98 | X-H torsion
[ 1741 1732 1731 1729 ] final -153.96 input   60.02 | X-H torsion
[ 2430 2423 2422 2420 ] final  169.85 input   60.03 | X-H torsion
[ 4996 4987 4986 4984 ] final   83.52 input   60.02 | X-H torsion

> <Gold.Protein.ActiveResidues>
 LEU49   GLY50   THR51   ARG56   VAL57   MET58   LEU59   HIS68   TYR69   ALA70  
 MET71   LYS72   LEU74   GLU91   LEU95   VAL104  LYS105  LEU106  MET118  VAL119 
 MET120  GLU121  TYR122  VAL123  PRO124  GLY125  GLY126  GLU127  TYR164  GLU170 
 ASN171  LEU172  LEU173  ILE174  ASP175  GLN181  VAL182  THR183  ASP184  PHE185 
 GLY186  THR324  PHE327  TYR330 

> <Gold.Protein.RotatedAtoms>
   35.4140   11.9304  -11.0423 H   0  0  0  0  0  0  0  0  0  0  0  0  # atno 1741 bound_to 1732
   26.0684    1.8380    2.2567 H   0  0  0  0  0  0  0  0  0  0  0  0  # atno 2430 bound_to 2423
   27.6805    5.8245    0.0198 H   0  0  0  0  0  0  0  0  0  0  0  0  # atno 2749 bound_to 2742
   23.0329   10.4492   -8.4633 H   0  0  0  0  0  0  0  0  0  0  0  0  # atno 4996 bound_to 4987
   28.6812    5.7594   -1.2622 LP  0  0  0  0  0  0  0  0  0  0  0  0  # atno 5321 bound_to 2742
   27.9460    7.1630   -0.8673 LP  0  0  0  0  0  0  0  0  0  0  0  0  # atno 5322 bound_to 2742
   34.2534   13.0172  -10.6960 LP  0  0  0  0  0  0  0  0  0  0  0  0  # atno 5347 bound_to 1732
   34.0035   11.4302  -10.4032 LP  0  0  0  0  0  0  0  0  0  0  0  0  # atno 5348 bound_to 1732

> <Gold.Score>
     Fitness  S(hb_ext) S(vdw_ext)  S(hb_int)    S(int)      intcor
     33.76       2.00      23.60       0.00      -0.69      -0.77

> <Gold.Goldscore.Fitness>
33.7578

> <Gold.Goldscore.Internal.Vdw>
-0.8156

> <Gold.Goldscore.Internal.Torsion>
-0.6405

> <Gold.Goldscore.External.Vdw>
23.5960

> <Gold.Goldscore.Internal.HBond>
0.0000

> <Gold.Goldscore.External.HBond>
2.0000

> <Gold.Goldscore.Internal.Correction>
-0.7693

> <Gold.Goldscore.Hbonds>
donor molecule, donor type, donor heavy atom, donor atom, acceptor molecule, acceptor atom, score
      L1  H    10    23       P1  2527  1.00

> <Gold.Goldscore.Internal.Vdw.Weighted>
-0.8156

> <Gold.Goldscore.Internal.Torsion.Weighted>
-0.6405

> <Gold.Goldscore.External.Vdw.Weighted>
32.4445

> <Gold.Goldscore.Internal.HBond.Weighted>
0.0000

> <Gold.Goldscore.External.HBond.Weighted>
2.0000

> <Gold.Goldscore.Internal.Correction.Weighted>
-0.7693

> <Gold.Rescore>
     Score     S(PLP)   S(hbond)     S(cho)   S(metal)  DE(clash)   DE(tors)     intcor
     30.54     -30.15       1.00       0.00       0.00       0.00       1.31       ----

> <Gold.PLP.Fitness>
30.5396

> <Gold.PLP.PLP>
-30.1474

> <Gold.PLP.part.hbond>
-2.7240

> <Gold.PLP.part.metal>
0.0000

> <Gold.PLP.part.buried>
-1.5185

> <Gold.PLP.part.nonpolar>
-26.1386

> <Gold.PLP.part.repulsive>
0.3703

> <Gold.PLP.ligand.clash>
0.0000

> <Gold.PLP.ligand.torsion>
1.3114

> <Gold.PLP.Chemscore.Hbond>
1.0050

> <Gold.PLP.Chemscore.CHOScore>
0.0000

> <Gold.PLP.Chemscore.Metal>
0.0000

> <Gold.Chemscore.Hbonds>
donor molecule, donor type, donor heavy atom, donor atom, acceptor molecule, acceptor atom, score
      L1  H    10    23       P1  2527  0.65

> <Gold.PLP.Chemscore.Internal.Correction>
   9.000000E+99

