#       Name:                CT1002167954
#       Creating user name   hitesit
#       Creation time:       Sun Apr 16 20:15:40 2023


#       File generated by GOLD software.
#

@<TRIPOS>MOLECULE
CT1002167954|ligand_prepared|mol2|1|dock5
    29    30     1
SMALL
NO_CHARGES


@<TRIPOS>ATOM
      1 C1          25.8534   9.3800  -2.4564 C.3            1 RES1               0.0000
      2 C2          27.0095   9.7947  -3.3892 C.ar           1 RES1               0.0000
      3 C3          26.3954   8.2587  -1.5747 C.2            1 RES1               0.0000
      4 C4          25.4524  10.6355  -1.6898 C.2            1 RES1               0.0000
      5 C5          24.6045   8.8571  -3.2037 C.3            1 RES1               0.0000
      6 C6          28.3289   9.7399  -2.9499 C.ar           1 RES1               0.0000
      7 C7          26.7730  10.2308  -4.6901 C.ar           1 RES1               0.0000
      8 N8          26.6703   8.5558  -0.2724 N.am           1 RES1               0.0000
      9 O9          26.6155   7.1412  -2.0253 O.2            1 RES1               0.0000
     10 N10         25.6603  10.6548  -0.3355 N.am           1 RES1               0.0000
     11 O11         24.9735  11.6145  -2.2488 O.2            1 RES1               0.0000
     12 C12         23.5770   8.2001  -2.2956 C.3            1 RES1               0.0000
     13 C13         29.3743  10.1050  -3.7819 C.ar           1 RES1               0.0000
     14 C14         27.8199  10.5957  -5.5204 C.ar           1 RES1               0.0000
     15 C15         26.2794   9.6838   0.4034 C.2            1 RES1               0.0000
     16 C16         29.1206  10.5327  -5.0677 C.ar           1 RES1               0.0000
     17 O17         26.4790   9.7973   1.6094 O.2            1 RES1               0.0000
     18 H18         24.1287   9.6961  -3.7263 H              1 RES1               0.0000
     19 H19         24.9243   8.1293  -3.9595 H              1 RES1               0.0000
     20 H20         28.5478   9.4082  -1.9404 H              1 RES1               0.0000
     21 H21         25.7577  10.2895  -5.0673 H              1 RES1               0.0000
     22 H22         27.2171   7.8765   0.2471 H              1 RES1               0.0000
     23 H23         25.3222  11.4684   0.1685 H              1 RES1               0.0000
     24 H24         22.7214   7.8513  -2.8701 H              1 RES1               0.0000
     25 H25         24.0091   7.3458  -1.7787 H              1 RES1               0.0000
     26 H26         23.2183   8.9034  -1.5468 H              1 RES1               0.0000
     27 H27         30.3960  10.0549  -3.4203 H              1 RES1               0.0000
     28 H28         27.6155  10.9323  -6.5314 H              1 RES1               0.0000
     29 H29         29.9396  10.8183  -5.7194 H              1 RES1               0.0000
@<TRIPOS>BOND
    1    1    2 1     
    2    1    3 1     
    3    1    4 1     
    4    1    5 1     
    5    2    6 ar    
    6    2    7 ar    
    7    3    8 1     
    8    3    9 2     
    9    4   10 1     
   10    4   11 2     
   11    5   12 1     
   12    5   18 1     
   13    5   19 1     
   14    6   13 ar    
   15    6   20 1     
   16    7   14 ar    
   17    7   21 1     
   18    8   15 1     
   19    8   22 1     
   20   10   15 1     
   21   10   23 1     
   22   12   24 1     
   23   12   25 1     
   24   12   26 1     
   25   13   16 ar    
   26   13   27 1     
   27   14   16 ar    
   28   14   28 1     
   29   15   17 2     
   30   16   29 1     
@<TRIPOS>SUBSTRUCTURE
      1 RES1           1
@<TRIPOS>SET
DONOR_HYDROGENS      STATIC     ATOMS    <user>   **** ""
2 22 23
ATOM$RED        STATIC     ATOMS    COLORGROUP SYSTEM
2 22 23
@<TRIPOS>COMMENT
> <Gold.Version>
2022.3.0

> <Gold.Id.Protein>
unknown|3oog_clean|pdb

> <Gold.Protein.RotatedTorsions>
[ 2749 2742 2740 2737 ] final -104.33 input   59.98 | X-H torsion
[ 1741 1732 1731 1729 ] final   -9.85 input   60.02 | X-H torsion
[ 2430 2423 2422 2420 ] final  173.80 input   60.03 | X-H torsion
[ 4996 4987 4986 4984 ] final  105.19 input   60.02 | X-H torsion

> <Gold.Protein.ActiveResidues>
 LEU49   GLY50   THR51   ARG56   VAL57   MET58   LEU59   HIS68   TYR69   ALA70  
 MET71   LYS72   LEU74   GLU91   LEU95   VAL104  LYS105  LEU106  MET118  VAL119 
 MET120  GLU121  TYR122  VAL123  PRO124  GLY125  GLY126  GLU127  TYR164  GLU170 
 ASN171  LEU172  LEU173  ILE174  ASP175  GLN181  VAL182  THR183  ASP184  PHE185 
 GLY186  THR324  PHE327  TYR330 

> <Gold.Protein.RotatedAtoms>
   33.7833   11.7504  -10.3481 H   0  0  0  0  0  0  0  0  0  0  0  0  # atno 1741 bound_to 1732
   26.0077    1.8573    2.2666 H   0  0  0  0  0  0  0  0  0  0  0  0  # atno 2430 bound_to 2423
   28.6957    5.8854   -1.3283 H   0  0  0  0  0  0  0  0  0  0  0  0  # atno 2749 bound_to 2742
   22.6938   10.4632   -8.3702 H   0  0  0  0  0  0  0  0  0  0  0  0  # atno 4996 bound_to 4987
   27.8597    7.1578   -0.7528 LP  0  0  0  0  0  0  0  0  0  0  0  0  # atno 5321 bound_to 2742
   27.7454    5.7032   -0.0195 LP  0  0  0  0  0  0  0  0  0  0  0  0  # atno 5322 bound_to 2742
   35.2851   11.5717  -10.9488 LP  0  0  0  0  0  0  0  0  0  0  0  0  # atno 5347 bound_to 1732
   34.6138   13.0570  -10.8494 LP  0  0  0  0  0  0  0  0  0  0  0  0  # atno 5348 bound_to 1732

> <Gold.Score>
     Fitness  S(hb_ext) S(vdw_ext)  S(hb_int)    S(int)      intcor
     37.88       6.00      23.50       0.00      -0.44      -0.77

> <Gold.Goldscore.Fitness>
37.8773

> <Gold.Goldscore.Internal.Vdw>
-0.6355

> <Gold.Goldscore.Internal.Torsion>
-0.5691

> <Gold.Goldscore.External.Vdw>
23.5000

> <Gold.Goldscore.Internal.HBond>
0.0000

> <Gold.Goldscore.External.HBond>
6.0000

> <Gold.Goldscore.Internal.Correction>
-0.7693

> <Gold.Goldscore.Hbonds>
donor molecule, donor type, donor heavy atom, donor atom, acceptor molecule, acceptor atom, score
      P1  H   856   868       L1    17  1.00

> <Gold.Goldscore.Internal.Vdw.Weighted>
-0.6355

> <Gold.Goldscore.Internal.Torsion.Weighted>
-0.5691

> <Gold.Goldscore.External.Vdw.Weighted>
32.3125

> <Gold.Goldscore.Internal.HBond.Weighted>
0.0000

> <Gold.Goldscore.External.HBond.Weighted>
6.0000

> <Gold.Goldscore.Internal.Correction.Weighted>
-0.7693

> <Gold.Rescore>
     Score     S(PLP)   S(hbond)     S(cho)   S(metal)  DE(clash)   DE(tors)     intcor
     35.35     -35.20       0.90       0.00       0.00       0.04       1.25       ----

> <Gold.PLP.Fitness>
35.3482

> <Gold.PLP.PLP>
-35.1960

> <Gold.PLP.part.hbond>
-1.8049

> <Gold.PLP.part.metal>
0.0000

> <Gold.PLP.part.buried>
-3.4036

> <Gold.PLP.part.nonpolar>
-30.1667

> <Gold.PLP.part.repulsive>
0.4645

> <Gold.PLP.ligand.clash>
0.0423

> <Gold.PLP.ligand.torsion>
1.2468

> <Gold.PLP.Chemscore.Hbond>
0.8960

> <Gold.PLP.Chemscore.CHOScore>
0.0000

> <Gold.PLP.Chemscore.Metal>
0.0000

> <Gold.Chemscore.Hbonds>
donor molecule, donor type, donor heavy atom, donor atom, acceptor molecule, acceptor atom, score
      L1  H     8    22       P1  2742  0.34
      P1  H   856   868       L1    17  1.00

> <Gold.PLP.Chemscore.Internal.Correction>
   9.000000E+99

