#       Name:                CT1002167954
#       Creating user name   hitesit
#       Creation time:       Sun Apr 16 20:30:38 2023


#       File generated by GOLD software.
#

@<TRIPOS>MOLECULE
CT1002167954|ligand_prepared|mol2|1|dock9
    29    30     1
SMALL
NO_CHARGES


@<TRIPOS>ATOM
      1 C1         140.7725 128.1372 150.2815 C.3            1 RES1               0.0000
      2 C2         140.1266 129.4496 149.7924 C.ar           1 RES1               0.0000
      3 C3         139.6319 127.2643 150.7966 C.2            1 RES1               0.0000
      4 C4         141.5109 127.5524 149.0825 C.2            1 RES1               0.0000
      5 C5         141.7961 128.3326 151.4241 C.3            1 RES1               0.0000
      6 C6         138.9417 129.4273 149.0628 C.ar           1 RES1               0.0000
      7 C7         140.7014 130.6881 150.0647 C.ar           1 RES1               0.0000
      8 N8         139.2530 126.2023 150.0294 N.am           1 RES1               0.0000
      9 O9         139.0476 127.5268 151.8405 O.2            1 RES1               0.0000
     10 N10        141.0602 126.3653 148.5674 N.am           1 RES1               0.0000
     11 O11        142.4687 128.1173 148.5689 O.2            1 RES1               0.0000
     12 C12        142.2355 127.0342 152.0823 C.3            1 RES1               0.0000
     13 C13        138.3512 130.6007 148.6240 C.ar           1 RES1               0.0000
     14 C14        140.1093 131.8604 149.6247 C.ar           1 RES1               0.0000
     15 C15        139.9459 125.6793 148.9673 C.2            1 RES1               0.0000
     16 C16        138.9342 131.8180 148.9049 C.ar           1 RES1               0.0000
     17 O17        139.5735 124.6460 148.4188 O.2            1 RES1               0.0000
     18 H18        142.6807 128.8419 151.0225 H              1 RES1               0.0000
     19 H19        141.3526 128.9831 152.1880 H              1 RES1               0.0000
     20 H20        138.4695 128.4786 148.8300 H              1 RES1               0.0000
     21 H21        141.6264 130.7456 150.6284 H              1 RES1               0.0000
     22 H22        138.3731 125.7558 150.2674 H              1 RES1               0.0000
     23 H23        141.6059 125.9550 147.8163 H              1 RES1               0.0000
     24 H24        142.9532 127.2280 152.8767 H              1 RES1               0.0000
     25 H25        141.3837 126.5134 152.5149 H              1 RES1               0.0000
     26 H26        142.7040 126.3730 151.3562 H              1 RES1               0.0000
     27 H27        137.4271 130.5618 148.0567 H              1 RES1               0.0000
     28 H28        140.5720 132.8162 149.8475 H              1 RES1               0.0000
     29 H29        138.4712 132.7371 148.5613 H              1 RES1               0.0000
@<TRIPOS>BOND
    1    1    2 1     
    2    1    3 1     
    3    1    4 1     
    4    1    5 1     
    5    2    6 ar    
    6    2    7 ar    
    7    3    8 1     
    8    3    9 2     
    9    4   10 1     
   10    4   11 2     
   11    5   12 1     
   12    5   18 1     
   13    5   19 1     
   14    6   13 ar    
   15    6   20 1     
   16    7   14 ar    
   17    7   21 1     
   18    8   15 1     
   19    8   22 1     
   20   10   15 1     
   21   10   23 1     
   22   12   24 1     
   23   12   25 1     
   24   12   26 1     
   25   13   16 ar    
   26   13   27 1     
   27   14   16 ar    
   28   14   28 1     
   29   15   17 2     
   30   16   29 1     
@<TRIPOS>SUBSTRUCTURE
      1 RES1           1
@<TRIPOS>SET
DONOR_HYDROGENS      STATIC     ATOMS    <user>   **** ""
2 22 23
ATOM$RED        STATIC     ATOMS    COLORGROUP SYSTEM
2 22 23
@<TRIPOS>COMMENT
> <Gold.Version>
2022.3.0

> <Gold.Id.Protein>
unknown|7rmh_cavity_clean|pdb

> <Gold.Protein.RotatedTorsions>
[ 4334 4326 4327 4328 ] final   24.85 input   45.76 | X-H torsion
[ 1444 1430 1431 1432 ] final -164.63 input   54.63 | X-H torsion
[ 4376 4367 4366 4364 ] final  -19.46 input   59.97 | X-H torsion
[  415  400  401  402 ] final   25.10 input   82.00 | X-H torsion
[  331  328  327  326 ] final  104.30 input   59.97 | X-H torsion
[  388  379  378  376 ] final  170.21 input   59.98 | X-H torsion
[  529  513  514  515 ] final   26.08 input  105.58 | X-H torsion
[  474  463  461  458 ] final   50.47 input   59.98 | X-H torsion
[  476  464  465  466 ] final -137.55 input  115.28 | X-H torsion
[  482  470  468  465 ] final -163.31 input   59.99 | X-H torsion
[ 4698 4679 4680 4681 ] final -172.51 input   46.48 | X-H torsion
[ 3627 3618 3617 3615 ] final  110.63 input   60.02 | X-H torsion
[ 1139 1124 1125 1126 ] final   -1.64 input   64.50 | X-H torsion
[ 3038 3033 3034 3035 ] final  -31.94 input   60.01 | X-H torsion
[ 1489 1482 1480 1477 ] final   53.68 input   59.97 | X-H torsion
[ 3081 3072 3071 3069 ] final   12.08 input   59.99 | X-H torsion
[ 3113 3104 3103 3101 ] final   49.49 input   60.00 | X-H torsion
[ 5109 5102 5100 5097 ] final    9.50 input   60.01 | X-H torsion
[ 2099 2094 2093 2090 ] final -162.91 input   60.02 | X-H torsion
[ 4286 4281 4282 4283 ] final   68.28 input  108.09 | X-H torsion
[ 2038 2027 2028 2029 ] final   76.36 input  103.58 | X-H torsion
[  246  231  232  233 ] final  135.72 input  105.30 | X-H torsion
[  279  266  267  268 ] final  119.77 input  114.84 | X-H torsion
[ 2069 2062 2060 2057 ] final   10.92 input   60.00 | X-H torsion
[ 14711 4329 4328 4327 ] final -101.56 input    0.00 | X-H torsion
[ 14722 1433 1432 1431 ] final -130.24 input   -0.00 | X-H torsion
[ 14743  403  402  401 ] final  132.69 input   -0.00 | X-H torsion
[ 14770  516  515  514 ] final  -55.95 input    0.00 | X-H torsion
[ 14779  467  466  465 ] final  111.17 input    0.00 | X-H torsion
[ 14790 4682 4681 4680 ] final  134.34 input   -0.00 | X-H torsion
[ 14818 1127 1126 1125 ] final  -78.93 input   -0.00 | X-H torsion
[ 14891 4284 4283 4282 ] final    6.89 input    0.00 | X-H torsion
[ 14902 2030 2029 2028 ] final  162.32 input    0.00 | X-H torsion
[ 14907  234  233  232 ] final -129.84 input   -0.00 | X-H torsion
[ 14920  269  268  267 ] final   64.77 input    0.00 | X-H torsion

> <Gold.Protein.ActiveResidues>
 GLU27   LEU30   GLN31   ASP33   LYS34   GLN35   VAL36   TYR37   ARG38   THR40  
 HIS41   ARG42   ILE207  GLU209  HIS220  PHE222  CYS237  PHE238  ASN239  ASP240 
 VAL241  THR242  ARG280  TRP281  ARG283  THR284  ILE285  SER286  ARG356  HIS357 
 TYR358  TYR360  ASP381  ILE382  ILE383  GLN384  ARG385  MET386  HIS387  LEU388 
 ARG389  GLN390  TYR391  GLU392  LEU393  LEU394  ALA56   LYS57   ILE58   TYR59  
 ALA60   MET61   LEU79   ILE80   ILE81   TRP82   ILE93   VAL100  MET101  THR102 
 CYS103  CYS121  ASP312  ASN313  TRP332  ASP333  SER334  PHE335 

> <Gold.Protein.RotatedAtoms>
  122.9091  155.3499  186.6392 H   0  0  0  0  0  0  0  0  0  0  0  0  # atno 246  bound_to 231 
  110.6274  140.5474  101.2331 H   0  0  0  0  0  0  0  0  0  0  0  0  # atno 279  bound_to 266 
  149.9839  144.4611  147.1215 H   0  0  0  0  0  0  0  0  0  0  0  0  # atno 331  bound_to 328 
  148.8787  144.9954  146.0086 H   0  0  0  0  0  0  0  0  0  0  0  0  # atno 332  bound_to 328 
  149.4765  143.4537  145.9082 H   0  0  0  0  0  0  0  0  0  0  0  0  # atno 333  bound_to 328 
  149.8354  138.2139  153.4826 H   0  0  0  0  0  0  0  0  0  0  0  0  # atno 388  bound_to 379 
  137.5461  115.9639  183.4079 H   0  0  0  0  0  0  0  0  0  0  0  0  # atno 415  bound_to 400 
  157.0653  130.6505  150.1667 H   0  0  0  0  0  0  0  0  0  0  0  0  # atno 474  bound_to 463 
  117.8933  143.3059  113.4270 H   0  0  0  0  0  0  0  0  0  0  0  0  # atno 476  bound_to 464 
  114.5410  145.3115  113.8284 H   0  0  0  0  0  0  0  0  0  0  0  0  # atno 482  bound_to 470 
  121.9981  164.3598  165.6478 H   0  0  0  0  0  0  0  0  0  0  0  0  # atno 529  bound_to 513 
  138.3902  144.8322  189.3086 H   0  0  0  0  0  0  0  0  0  0  0  0  # atno 1139 bound_to 1124
  139.9260  160.5300  185.9310 H   0  0  0  0  0  0  0  0  0  0  0  0  # atno 1444 bound_to 1430
  149.1971  129.8535  151.8243 H   0  0  0  0  0  0  0  0  0  0  0  0  # atno 1489 bound_to 1482
  132.6269  163.7099  174.7567 H   0  0  0  0  0  0  0  0  0  0  0  0  # atno 2038 bound_to 2027
  138.3224  129.0935  152.9501 H   0  0  0  0  0  0  0  0  0  0  0  0  # atno 2069 bound_to 2062
  142.8060  123.5592  151.8090 H   0  0  0  0  0  0  0  0  0  0  0  0  # atno 2099 bound_to 2094
  134.4565  124.2007  150.2906 H   0  0  0  0  0  0  0  0  0  0  0  0  # atno 3038 bound_to 3033
  133.4265  124.2347  151.5893 H   0  0  0  0  0  0  0  0  0  0  0  0  # atno 3039 bound_to 3033
  134.0846  120.2394  147.4948 H   0  0  0  0  0  0  0  0  0  0  0  0  # atno 3081 bound_to 3072
  142.3597  120.9328  148.6961 H   0  0  0  0  0  0  0  0  0  0  0  0  # atno 3113 bound_to 3104
  144.4149  133.5518  136.3367 H   0  0  0  0  0  0  0  0  0  0  0  0  # atno 3627 bound_to 3618
  120.8223  120.6066  172.3604 H   0  0  0  0  0  0  0  0  0  0  0  0  # atno 4286 bound_to 4281
  124.5466  115.7911  171.5891 H   0  0  0  0  0  0  0  0  0  0  0  0  # atno 4334 bound_to 4326
  144.5280  139.4146  165.9942 H   0  0  0  0  0  0  0  0  0  0  0  0  # atno 4376 bound_to 4367
  122.9285  123.4520  185.6020 H   0  0  0  0  0  0  0  0  0  0  0  0  # atno 4698 bound_to 4679
  150.8046  148.2711  170.2503 H   0  0  0  0  0  0  0  0  0  0  0  0  # atno 5109 bound_to 5102
  124.0502  117.2643  172.3988 LP  0  0  0  0  0  0  0  0  0  0  0  0  # atno 14710 bound_to 4326
  125.7224  113.0048  172.8521 LP  0  0  0  0  0  0  0  0  0  0  0  0  # atno 14711 bound_to 4329
  125.8330  114.0969  171.5123 LP  0  0  0  0  0  0  0  0  0  0  0  0  # atno 14712 bound_to 4329
  138.7452  159.8540  184.8309 LP  0  0  0  0  0  0  0  0  0  0  0  0  # atno 14721 bound_to 1430
  136.6217  156.7642  187.4097 LP  0  0  0  0  0  0  0  0  0  0  0  0  # atno 14722 bound_to 1433
  136.1594  158.3514  187.9266 LP  0  0  0  0  0  0  0  0  0  0  0  0  # atno 14723 bound_to 1433
  144.7267  140.2381  167.3837 LP  0  0  0  0  0  0  0  0  0  0  0  0  # atno 14738 bound_to 4367
  145.8830  139.2053  166.8709 LP  0  0  0  0  0  0  0  0  0  0  0  0  # atno 14739 bound_to 4367
  135.9582  116.0136  184.1398 LP  0  0  0  0  0  0  0  0  0  0  0  0  # atno 14742 bound_to 400 
  140.2541  116.5771  184.7791 LP  0  0  0  0  0  0  0  0  0  0  0  0  # atno 14743 bound_to 403 
  139.5282  115.4761  183.6562 LP  0  0  0  0  0  0  0  0  0  0  0  0  # atno 14744 bound_to 403 
  150.9609  138.2808  154.6564 LP  0  0  0  0  0  0  0  0  0  0  0  0  # atno 14765 bound_to 379 
  150.6541  136.8691  153.8951 LP  0  0  0  0  0  0  0  0  0  0  0  0  # atno 14766 bound_to 379 
  120.9947  163.0385  166.1964 LP  0  0  0  0  0  0  0  0  0  0  0  0  # atno 14769 bound_to 513 
  123.3891  164.7037  163.3148 LP  0  0  0  0  0  0  0  0  0  0  0  0  # atno 14770 bound_to 516 
  124.6195  164.6801  164.5336 LP  0  0  0  0  0  0  0  0  0  0  0  0  # atno 14771 bound_to 516 
  156.1289  131.4586  151.2241 LP  0  0  0  0  0  0  0  0  0  0  0  0  # atno 14776 bound_to 463 
  157.7340  131.7520  151.1604 LP  0  0  0  0  0  0  0  0  0  0  0  0  # atno 14777 bound_to 463 
  117.0059  141.9165  114.0103 LP  0  0  0  0  0  0  0  0  0  0  0  0  # atno 14778 bound_to 464 
  116.8121  143.4149  118.4022 LP  0  0  0  0  0  0  0  0  0  0  0  0  # atno 14779 bound_to 467 
  118.3951  143.5460  117.7117 LP  0  0  0  0  0  0  0  0  0  0  0  0  # atno 14780 bound_to 467 
  115.2506  144.0032  113.1703 LP  0  0  0  0  0  0  0  0  0  0  0  0  # atno 14781 bound_to 470 
  116.1561  145.2813  113.6319 LP  0  0  0  0  0  0  0  0  0  0  0  0  # atno 14782 bound_to 470 
  123.1367  122.4511  187.0224 LP  0  0  0  0  0  0  0  0  0  0  0  0  # atno 14789 bound_to 4679
  124.2978  119.8162  187.8516 LP  0  0  0  0  0  0  0  0  0  0  0  0  # atno 14790 bound_to 4682
  125.5151  120.6286  186.9252 LP  0  0  0  0  0  0  0  0  0  0  0  0  # atno 14791 bound_to 4682
  144.1826  134.1716  137.8229 LP  0  0  0  0  0  0  0  0  0  0  0  0  # atno 14805 bound_to 3618
  143.8835  135.0808  136.4998 LP  0  0  0  0  0  0  0  0  0  0  0  0  # atno 14806 bound_to 3618
  138.2826  146.4197  190.0427 LP  0  0  0  0  0  0  0  0  0  0  0  0  # atno 14817 bound_to 1124
  136.8729  144.5305  186.4823 LP  0  0  0  0  0  0  0  0  0  0  0  0  # atno 14818 bound_to 1127
  137.4851  143.3237  187.5635 LP  0  0  0  0  0  0  0  0  0  0  0  0  # atno 14819 bound_to 1127
  133.1330  125.1786  150.2743 LP  0  0  0  0  0  0  0  0  0  0  0  0  # atno 14820 bound_to 3033
  148.2213  129.5143  150.5664 LP  0  0  0  0  0  0  0  0  0  0  0  0  # atno 14846 bound_to 1482
  149.7614  128.9716  150.5780 LP  0  0  0  0  0  0  0  0  0  0  0  0  # atno 14847 bound_to 1482
  133.8682  118.6695  147.8660 LP  0  0  0  0  0  0  0  0  0  0  0  0  # atno 14850 bound_to 3072
  134.8799  119.0933  146.6563 LP  0  0  0  0  0  0  0  0  0  0  0  0  # atno 14851 bound_to 3072
  140.9113  120.2902  149.0645 LP  0  0  0  0  0  0  0  0  0  0  0  0  # atno 14856 bound_to 3104
  141.7603  119.7212  147.7910 LP  0  0  0  0  0  0  0  0  0  0  0  0  # atno 14857 bound_to 3104
  151.9791  147.8658  171.3010 LP  0  0  0  0  0  0  0  0  0  0  0  0  # atno 14868 bound_to 5102
  150.4120  147.6203  171.6890 LP  0  0  0  0  0  0  0  0  0  0  0  0  # atno 14869 bound_to 5102
  143.8267  123.1883  153.0209 LP  0  0  0  0  0  0  0  0  0  0  0  0  # atno 14886 bound_to 2094
  143.0793  124.6400  152.9945 LP  0  0  0  0  0  0  0  0  0  0  0  0  # atno 14887 bound_to 2094
  119.7100  119.6665  173.3242 LP  0  0  0  0  0  0  0  0  0  0  0  0  # atno 14890 bound_to 4281
  120.1456  116.5819  170.3911 LP  0  0  0  0  0  0  0  0  0  0  0  0  # atno 14891 bound_to 4284
  121.8645  116.3844  170.4696 LP  0  0  0  0  0  0  0  0  0  0  0  0  # atno 14892 bound_to 4284
  132.3378  163.1871  176.3993 LP  0  0  0  0  0  0  0  0  0  0  0  0  # atno 14901 bound_to 2027
  128.9683  160.6546  173.8853 LP  0  0  0  0  0  0  0  0  0  0  0  0  # atno 14902 bound_to 2030
  128.7562  161.4461  175.4113 LP  0  0  0  0  0  0  0  0  0  0  0  0  # atno 14903 bound_to 2030
  121.3078  156.0417  186.7281 LP  0  0  0  0  0  0  0  0  0  0  0  0  # atno 14906 bound_to 231 
  120.5954  159.1352  184.1408 LP  0  0  0  0  0  0  0  0  0  0  0  0  # atno 14907 bound_to 234 
  122.3061  159.3132  183.9360 LP  0  0  0  0  0  0  0  0  0  0  0  0  # atno 14908 bound_to 234 
  110.2402  140.5269  102.9361 LP  0  0  0  0  0  0  0  0  0  0  0  0  # atno 14919 bound_to 266 
  114.5591  140.1005  104.1022 LP  0  0  0  0  0  0  0  0  0  0  0  0  # atno 14920 bound_to 269 
  113.4750  140.7850  105.2667 LP  0  0  0  0  0  0  0  0  0  0  0  0  # atno 14921 bound_to 269 
  138.9828  130.5714  153.1140 LP  0  0  0  0  0  0  0  0  0  0  0  0  # atno 14924 bound_to 2062
  137.4220  130.4171  152.6592 LP  0  0  0  0  0  0  0  0  0  0  0  0  # atno 14925 bound_to 2062

> <Gold.Score>
     Fitness  S(hb_ext) S(vdw_ext)  S(hb_int)    S(int)      intcor
     33.29       2.28      22.68       0.00      -0.18      -0.76

> <Gold.Goldscore.Fitness>
33.2899

> <Gold.Goldscore.Internal.Vdw>
-0.3788

> <Gold.Goldscore.Internal.Torsion>
-0.5578

> <Gold.Goldscore.External.Vdw>
22.6792

> <Gold.Goldscore.Internal.HBond>
0.0000

> <Gold.Goldscore.External.HBond>
2.2840

> <Gold.Goldscore.Internal.Correction>
-0.7585

> <Gold.Goldscore.Hbonds>
donor molecule, donor type, donor heavy atom, donor atom, acceptor molecule, acceptor atom, score
      P1  H  2062  2069       L1     9  0.51
      L1  H     8    22       P1  3036  0.23
      L1  H    10    23       P1  3437  0.40

> <Gold.Goldscore.Internal.Vdw.Weighted>
-0.3788

> <Gold.Goldscore.Internal.Torsion.Weighted>
-0.5578

> <Gold.Goldscore.External.Vdw.Weighted>
31.1839

> <Gold.Goldscore.Internal.HBond.Weighted>
0.0000

> <Gold.Goldscore.External.HBond.Weighted>
2.2840

> <Gold.Goldscore.Internal.Correction.Weighted>
-0.7585

> <Gold.Rescore>
     Score     S(PLP)   S(hbond)     S(cho)   S(metal)  DE(clash)   DE(tors)     intcor
     20.45     -12.18       2.96       0.00       0.00       0.00       0.30       ----

> <Gold.PLP.Fitness>
20.4519

> <Gold.PLP.PLP>
-12.1769

> <Gold.PLP.part.hbond>
-3.0000

> <Gold.PLP.part.metal>
0.0000

> <Gold.PLP.part.buried>
3.6201

> <Gold.PLP.part.nonpolar>
-22.3532

> <Gold.PLP.part.repulsive>
8.7341

> <Gold.PLP.ligand.clash>
0.0000

> <Gold.PLP.ligand.torsion>
0.3025

> <Gold.PLP.Chemscore.Hbond>
2.9600

> <Gold.PLP.Chemscore.CHOScore>
0.0000

> <Gold.PLP.Chemscore.Metal>
0.0000

> <Gold.Chemscore.Hbonds>
donor molecule, donor type, donor heavy atom, donor atom, acceptor molecule, acceptor atom, score
      L1  H     8    22       P1  3036  0.77
      L1  H    10    23       P1  3437  1.00
      P1  H  2062  2069       L1     9  1.00

> <Gold.PLP.Chemscore.Internal.Correction>
   9.000000E+99

