#       Name:                CT1002167954
#       Creating user name   hitesit
#       Creation time:       Sun Apr 16 20:28:52 2023


#       File generated by GOLD software.
#

@<TRIPOS>MOLECULE
CT1002167954|ligand_prepared|mol2|1|dock1
    29    30     1
SMALL
NO_CHARGES


@<TRIPOS>ATOM
      1 C1         142.2850 129.4282 151.4533 C.3            1 RES1               0.0000
      2 C2         141.1491 128.6477 150.7609 C.ar           1 RES1               0.0000
      3 C3         143.3197 128.3909 151.8795 C.2            1 RES1               0.0000
      4 C4         142.7979 130.4339 150.4286 C.2            1 RES1               0.0000
      5 C5         141.8307 130.2124 152.7064 C.3            1 RES1               0.0000
      6 C6         139.9566 129.2813 150.4246 C.ar           1 RES1               0.0000
      7 C7         141.2799 127.2968 150.4503 C.ar           1 RES1               0.0000
      8 N8         144.4803 128.3260 151.1662 N.am           1 RES1               0.0000
      9 O9         143.1041 127.6150 152.8025 O.2            1 RES1               0.0000
     10 N10        144.0784 130.2818 149.9649 N.am           1 RES1               0.0000
     11 O11        142.0991 131.3468 150.0060 O.2            1 RES1               0.0000
     12 C12        142.9344 131.0411 153.3446 C.3            1 RES1               0.0000
     13 C13        138.9329 128.5903 149.7978 C.ar           1 RES1               0.0000
     14 C14        140.2548 126.6075 149.8236 C.ar           1 RES1               0.0000
     15 C15        144.9323 129.2555 150.2643 C.2            1 RES1               0.0000
     16 C16        139.0815 127.2532 149.4965 C.ar           1 RES1               0.0000
     17 O17        146.0496 129.1581 149.7648 O.2            1 RES1               0.0000
     18 H18        141.0059 130.8790 152.4259 H              1 RES1               0.0000
     19 H19        141.4491 129.5009 153.4491 H              1 RES1               0.0000
     20 H20        139.8206 130.3325 150.6561 H              1 RES1               0.0000
     21 H21        142.1937 126.7680 150.6993 H              1 RES1               0.0000
     22 H22        145.0662 127.5110 151.3173 H              1 RES1               0.0000
     23 H23        144.4274 131.0004 149.3387 H              1 RES1               0.0000
     24 H24        142.5624 131.5707 154.2191 H              1 RES1               0.0000
     25 H25        143.7606 130.4066 153.6587 H              1 RES1               0.0000
     26 H26        143.3201 131.7766 152.6416 H              1 RES1               0.0000
     27 H27        138.0109 129.1027 149.5437 H              1 RES1               0.0000
     28 H28        140.3759 125.5551 149.5890 H              1 RES1               0.0000
     29 H29        138.2796 126.7122 149.0051 H              1 RES1               0.0000
@<TRIPOS>BOND
    1    1    2 1     
    2    1    3 1     
    3    1    4 1     
    4    1    5 1     
    5    2    6 ar    
    6    2    7 ar    
    7    3    8 1     
    8    3    9 2     
    9    4   10 1     
   10    4   11 2     
   11    5   12 1     
   12    5   18 1     
   13    5   19 1     
   14    6   13 ar    
   15    6   20 1     
   16    7   14 ar    
   17    7   21 1     
   18    8   15 1     
   19    8   22 1     
   20   10   15 1     
   21   10   23 1     
   22   12   24 1     
   23   12   25 1     
   24   12   26 1     
   25   13   16 ar    
   26   13   27 1     
   27   14   16 ar    
   28   14   28 1     
   29   15   17 2     
   30   16   29 1     
@<TRIPOS>SUBSTRUCTURE
      1 RES1           1
@<TRIPOS>SET
DONOR_HYDROGENS      STATIC     ATOMS    <user>   **** ""
2 22 23
ATOM$RED        STATIC     ATOMS    COLORGROUP SYSTEM
2 22 23
@<TRIPOS>COMMENT
> <Gold.Version>
2022.3.0

> <Gold.Id.Protein>
unknown|7rmh_cavity_clean|pdb

> <Gold.Protein.RotatedTorsions>
[ 4334 4326 4327 4328 ] final  -69.83 input   45.76 | X-H torsion
[ 1444 1430 1431 1432 ] final  -83.65 input   54.63 | X-H torsion
[ 4376 4367 4366 4364 ] final  105.71 input   59.97 | X-H torsion
[  415  400  401  402 ] final  135.90 input   82.00 | X-H torsion
[  331  328  327  326 ] final -167.17 input   59.97 | X-H torsion
[  388  379  378  376 ] final   -8.49 input   59.98 | X-H torsion
[  529  513  514  515 ] final   92.97 input  105.58 | X-H torsion
[  474  463  461  458 ] final  -78.41 input   59.98 | X-H torsion
[  476  464  465  466 ] final  148.51 input  115.28 | X-H torsion
[  482  470  468  465 ] final  -19.20 input   59.99 | X-H torsion
[ 4698 4679 4680 4681 ] final  -94.59 input   46.48 | X-H torsion
[ 3627 3618 3617 3615 ] final -164.22 input   60.02 | X-H torsion
[ 1139 1124 1125 1126 ] final  146.85 input   64.50 | X-H torsion
[ 3038 3033 3034 3035 ] final -124.83 input   60.01 | X-H torsion
[ 1489 1482 1480 1477 ] final  -62.83 input   59.97 | X-H torsion
[ 3081 3072 3071 3069 ] final  110.99 input   59.99 | X-H torsion
[ 3113 3104 3103 3101 ] final   65.88 input   60.00 | X-H torsion
[ 5109 5102 5100 5097 ] final -147.77 input   60.01 | X-H torsion
[ 2099 2094 2093 2090 ] final  -67.74 input   60.02 | X-H torsion
[ 4286 4281 4282 4283 ] final  -44.74 input  108.09 | X-H torsion
[ 2038 2027 2028 2029 ] final -110.01 input  103.58 | X-H torsion
[  246  231  232  233 ] final -116.00 input  105.30 | X-H torsion
[  279  266  267  268 ] final -158.68 input  114.84 | X-H torsion
[ 2069 2062 2060 2057 ] final  -14.31 input   60.00 | X-H torsion
[ 14711 4329 4328 4327 ] final   18.86 input    0.00 | X-H torsion
[ 14722 1433 1432 1431 ] final   80.80 input   -0.00 | X-H torsion
[ 14743  403  402  401 ] final   22.70 input   -0.00 | X-H torsion
[ 14770  516  515  514 ] final   36.92 input    0.00 | X-H torsion
[ 14779  467  466  465 ] final   27.96 input    0.00 | X-H torsion
[ 14790 4682 4681 4680 ] final  -41.96 input   -0.00 | X-H torsion
[ 14818 1127 1126 1125 ] final  169.09 input   -0.00 | X-H torsion
[ 14891 4284 4283 4282 ] final   56.53 input    0.00 | X-H torsion
[ 14902 2030 2029 2028 ] final -169.61 input    0.00 | X-H torsion
[ 14907  234  233  232 ] final  177.56 input   -0.00 | X-H torsion
[ 14920  269  268  267 ] final   66.69 input    0.00 | X-H torsion

> <Gold.Protein.ActiveResidues>
 GLU27   LEU30   GLN31   ASP33   LYS34   GLN35   VAL36   TYR37   ARG38   THR40  
 HIS41   ARG42   ILE207  GLU209  HIS220  PHE222  CYS237  PHE238  ASN239  ASP240 
 VAL241  THR242  ARG280  TRP281  ARG283  THR284  ILE285  SER286  ARG356  HIS357 
 TYR358  TYR360  ASP381  ILE382  ILE383  GLN384  ARG385  MET386  HIS387  LEU388 
 ARG389  GLN390  TYR391  GLU392  LEU393  LEU394  ALA56   LYS57   ILE58   TYR59  
 ALA60   MET61   LEU79   ILE80   ILE81   TRP82   ILE93   VAL100  MET101  THR102 
 CYS103  CYS121  ASP312  ASN313  TRP332  ASP333  SER334  PHE335 

> <Gold.Protein.RotatedAtoms>
  122.0622  156.2179  187.3966 H   0  0  0  0  0  0  0  0  0  0  0  0  # atno 246  bound_to 231 
  110.2155  139.7038  101.9010 H   0  0  0  0  0  0  0  0  0  0  0  0  # atno 279  bound_to 266 
  149.1149  145.1976  146.4244 H   0  0  0  0  0  0  0  0  0  0  0  0  # atno 331  bound_to 328 
  149.1391  143.7397  145.6372 H   0  0  0  0  0  0  0  0  0  0  0  0  # atno 332  bound_to 328 
  150.0849  143.9736  146.9770 H   0  0  0  0  0  0  0  0  0  0  0  0  # atno 333  bound_to 328 
  151.1344  137.3829  154.5455 H   0  0  0  0  0  0  0  0  0  0  0  0  # atno 388  bound_to 379 
  136.2789  115.2583  183.5795 H   0  0  0  0  0  0  0  0  0  0  0  0  # atno 415  bound_to 400 
  156.2035  131.5555  151.3034 H   0  0  0  0  0  0  0  0  0  0  0  0  # atno 474  bound_to 463 
  116.8709  143.0727  113.2374 H   0  0  0  0  0  0  0  0  0  0  0  0  # atno 476  bound_to 464 
  116.2450  144.9344  113.4713 H   0  0  0  0  0  0  0  0  0  0  0  0  # atno 482  bound_to 470 
  121.1133  164.1716  165.2865 H   0  0  0  0  0  0  0  0  0  0  0  0  # atno 529  bound_to 513 
  138.4063  146.5284  189.5940 H   0  0  0  0  0  0  0  0  0  0  0  0  # atno 1139 bound_to 1124
  139.9181  159.5244  185.3661 H   0  0  0  0  0  0  0  0  0  0  0  0  # atno 1444 bound_to 1430
  148.2078  129.5428  150.6147 H   0  0  0  0  0  0  0  0  0  0  0  0  # atno 1489 bound_to 1482
  132.3142  163.2750  176.4393 H   0  0  0  0  0  0  0  0  0  0  0  0  # atno 2038 bound_to 2027
  138.6960  129.2201  153.0573 H   0  0  0  0  0  0  0  0  0  0  0  0  # atno 2069 bound_to 2062
  142.8469  124.6448  152.6641 H   0  0  0  0  0  0  0  0  0  0  0  0  # atno 2099 bound_to 2094
  133.4529  125.1052  149.9731 H   0  0  0  0  0  0  0  0  0  0  0  0  # atno 3038 bound_to 3033
  134.4495  123.9884  150.6859 H   0  0  0  0  0  0  0  0  0  0  0  0  # atno 3039 bound_to 3033
  134.8814  119.4364  146.6309 H   0  0  0  0  0  0  0  0  0  0  0  0  # atno 3081 bound_to 3072
  142.4693  120.8158  148.4830 H   0  0  0  0  0  0  0  0  0  0  0  0  # atno 3113 bound_to 3104
  144.0102  134.7244  136.0833 H   0  0  0  0  0  0  0  0  0  0  0  0  # atno 3627 bound_to 3618
  120.6520  119.4683  173.2761 H   0  0  0  0  0  0  0  0  0  0  0  0  # atno 4286 bound_to 4281
  125.0600  116.9753  171.8430 H   0  0  0  0  0  0  0  0  0  0  0  0  # atno 4334 bound_to 4326
  145.8851  139.2538  166.9405 H   0  0  0  0  0  0  0  0  0  0  0  0  # atno 4376 bound_to 4367
  122.2016  122.7488  186.0793 H   0  0  0  0  0  0  0  0  0  0  0  0  # atno 4698 bound_to 4679
  151.6516  147.6470  171.7545 H   0  0  0  0  0  0  0  0  0  0  0  0  # atno 5109 bound_to 5102
  123.5576  116.1280  172.1552 LP  0  0  0  0  0  0  0  0  0  0  0  0  # atno 14710 bound_to 4326
  125.0779  113.9813  171.9083 LP  0  0  0  0  0  0  0  0  0  0  0  0  # atno 14711 bound_to 4329
  126.4775  113.1204  172.4560 LP  0  0  0  0  0  0  0  0  0  0  0  0  # atno 14712 bound_to 4329
  138.7528  160.8295  185.3789 LP  0  0  0  0  0  0  0  0  0  0  0  0  # atno 14721 bound_to 1430
  135.8575  158.2364  187.5944 LP  0  0  0  0  0  0  0  0  0  0  0  0  # atno 14722 bound_to 1433
  136.9235  156.8793  187.7419 LP  0  0  0  0  0  0  0  0  0  0  0  0  # atno 14723 bound_to 1433
  144.5857  139.3591  165.9663 LP  0  0  0  0  0  0  0  0  0  0  0  0  # atno 14738 bound_to 4367
  144.6573  140.2463  167.3353 LP  0  0  0  0  0  0  0  0  0  0  0  0  # atno 14739 bound_to 4367
  137.1892  116.6991  183.9731 LP  0  0  0  0  0  0  0  0  0  0  0  0  # atno 14742 bound_to 400 
  139.1733  116.3761  183.8823 LP  0  0  0  0  0  0  0  0  0  0  0  0  # atno 14743 bound_to 403 
  140.6091  115.6771  184.5530 LP  0  0  0  0  0  0  0  0  0  0  0  0  # atno 14744 bound_to 403 
  150.0130  137.2792  153.3705 LP  0  0  0  0  0  0  0  0  0  0  0  0  # atno 14765 bound_to 379 
  150.2942  138.7073  154.1109 LP  0  0  0  0  0  0  0  0  0  0  0  0  # atno 14766 bound_to 379 
  121.8596  163.2224  166.5497 LP  0  0  0  0  0  0  0  0  0  0  0  0  # atno 14769 bound_to 513 
  123.4468  164.9019  164.5527 LP  0  0  0  0  0  0  0  0  0  0  0  0  # atno 14770 bound_to 516 
  124.5619  164.4820  163.2956 LP  0  0  0  0  0  0  0  0  0  0  0  0  # atno 14771 bound_to 516 
  157.8085  131.6738  151.0622 LP  0  0  0  0  0  0  0  0  0  0  0  0  # atno 14776 bound_to 463 
  156.9221  130.6256  150.1778 LP  0  0  0  0  0  0  0  0  0  0  0  0  # atno 14777 bound_to 463 
  118.0013  142.1435  114.1950 LP  0  0  0  0  0  0  0  0  0  0  0  0  # atno 14778 bound_to 464 
  117.3158  144.2563  117.8016 LP  0  0  0  0  0  0  0  0  0  0  0  0  # atno 14779 bound_to 467 
  117.8915  142.7046  118.3123 LP  0  0  0  0  0  0  0  0  0  0  0  0  # atno 14780 bound_to 467 
  114.8168  145.5777  113.9125 LP  0  0  0  0  0  0  0  0  0  0  0  0  # atno 14781 bound_to 470 
  114.8738  144.0866  113.2493 LP  0  0  0  0  0  0  0  0  0  0  0  0  # atno 14782 bound_to 470 
  123.8401  123.1316  186.5605 LP  0  0  0  0  0  0  0  0  0  0  0  0  # atno 14789 bound_to 4679
  125.4932  120.6770  186.9421 LP  0  0  0  0  0  0  0  0  0  0  0  0  # atno 14790 bound_to 4682
  124.3198  119.7678  187.8346 LP  0  0  0  0  0  0  0  0  0  0  0  0  # atno 14791 bound_to 4682
  144.4718  133.3763  136.8683 LP  0  0  0  0  0  0  0  0  0  0  0  0  # atno 14805 bound_to 3618
  144.0021  134.6946  137.7098 LP  0  0  0  0  0  0  0  0  0  0  0  0  # atno 14806 bound_to 3618
  138.2671  144.7904  189.7686 LP  0  0  0  0  0  0  0  0  0  0  0  0  # atno 14817 bound_to 1124
  136.7212  143.1931  186.9820 LP  0  0  0  0  0  0  0  0  0  0  0  0  # atno 14818 bound_to 1127
  137.6368  144.6611  187.0638 LP  0  0  0  0  0  0  0  0  0  0  0  0  # atno 14819 bound_to 1127
  133.1131  124.5307  151.4773 LP  0  0  0  0  0  0  0  0  0  0  0  0  # atno 14820 bound_to 3033
  149.7257  128.9604  150.5343 LP  0  0  0  0  0  0  0  0  0  0  0  0  # atno 14846 bound_to 1482
  149.2526  129.8382  151.8275 LP  0  0  0  0  0  0  0  0  0  0  0  0  # atno 14847 bound_to 1482
  133.8846  120.0963  147.7355 LP  0  0  0  0  0  0  0  0  0  0  0  0  # atno 14850 bound_to 3072
  134.0613  118.4749  147.6566 LP  0  0  0  0  0  0  0  0  0  0  0  0  # atno 14851 bound_to 3072
  141.0408  120.4897  149.1898 LP  0  0  0  0  0  0  0  0  0  0  0  0  # atno 14856 bound_to 3104
  141.5203  119.6397  147.8805 LP  0  0  0  0  0  0  0  0  0  0  0  0  # atno 14857 bound_to 3104
  150.1339  147.8251  171.1953 LP  0  0  0  0  0  0  0  0  0  0  0  0  # atno 14868 bound_to 5102
  151.4041  148.2894  170.2800 LP  0  0  0  0  0  0  0  0  0  0  0  0  # atno 14869 bound_to 5102
  143.0261  123.2286  151.8827 LP  0  0  0  0  0  0  0  0  0  0  0  0  # atno 14886 bound_to 2094
  143.8387  123.5066  153.2717 LP  0  0  0  0  0  0  0  0  0  0  0  0  # atno 14887 bound_to 2094
  119.8769  120.7825  172.4264 LP  0  0  0  0  0  0  0  0  0  0  0  0  # atno 14890 bound_to 4281
  120.5005  116.7520  169.7799 LP  0  0  0  0  0  0  0  0  0  0  0  0  # atno 14891 bound_to 4284
  121.5096  116.2143  171.0809 LP  0  0  0  0  0  0  0  0  0  0  0  0  # atno 14892 bound_to 4284
  132.6432  163.6119  174.7560 LP  0  0  0  0  0  0  0  0  0  0  0  0  # atno 14901 bound_to 2027
  129.1754  160.4099  174.1567 LP  0  0  0  0  0  0  0  0  0  0  0  0  # atno 14902 bound_to 2030
  128.5491  161.6909  175.1399 LP  0  0  0  0  0  0  0  0  0  0  0  0  # atno 14903 bound_to 2030
  122.1380  155.1910  185.9857 LP  0  0  0  0  0  0  0  0  0  0  0  0  # atno 14906 bound_to 231 
  120.8738  158.9683  183.4453 LP  0  0  0  0  0  0  0  0  0  0  0  0  # atno 14907 bound_to 234 
  122.0276  159.4802  184.6314 LP  0  0  0  0  0  0  0  0  0  0  0  0  # atno 14908 bound_to 234 
  110.6439  141.3538  102.2815 LP  0  0  0  0  0  0  0  0  0  0  0  0  # atno 14919 bound_to 266 
  114.5733  140.1258  104.1012 LP  0  0  0  0  0  0  0  0  0  0  0  0  # atno 14920 bound_to 269 
  113.4608  140.7597  105.2677 LP  0  0  0  0  0  0  0  0  0  0  0  0  # atno 14921 bound_to 269 
  138.6903  130.8467  153.0230 LP  0  0  0  0  0  0  0  0  0  0  0  0  # atno 14924 bound_to 2062
  137.3380  130.0143  152.6422 LP  0  0  0  0  0  0  0  0  0  0  0  0  # atno 14925 bound_to 2062

> <Gold.Score>
     Fitness  S(hb_ext) S(vdw_ext)  S(hb_int)    S(int)      intcor
     29.65       1.48      21.95       0.00      -2.02      -0.78

> <Gold.Goldscore.Fitness>
29.6498

> <Gold.Goldscore.Internal.Vdw>
-2.4169

> <Gold.Goldscore.Internal.Torsion>
-0.3821

> <Gold.Goldscore.External.Vdw>
21.9493

> <Gold.Goldscore.Internal.HBond>
0.0000

> <Gold.Goldscore.External.HBond>
1.4846

> <Gold.Goldscore.Internal.Correction>
-0.7838

> <Gold.Goldscore.Hbonds>
donor molecule, donor type, donor heavy atom, donor atom, acceptor molecule, acceptor atom, score
      P1  H  1482  1489       L1    17  0.16
      P1  H  2089  2095       L1     9  0.36
      P1  H  2094  2099       L1     9  0.19
      L1  H     8    22       P1  1479  0.04

> <Gold.Goldscore.Internal.Vdw.Weighted>
-2.4169

> <Gold.Goldscore.Internal.Torsion.Weighted>
-0.3821

> <Gold.Goldscore.External.Vdw.Weighted>
30.1803

> <Gold.Goldscore.Internal.HBond.Weighted>
0.0000

> <Gold.Goldscore.External.HBond.Weighted>
1.4846

> <Gold.Goldscore.Internal.Correction.Weighted>
-0.7838

> <Gold.Rescore>
     Score     S(PLP)   S(hbond)     S(cho)   S(metal)  DE(clash)   DE(tors)     intcor
     30.87     -27.92       1.51       0.00       0.00       1.30       0.13       ----

> <Gold.PLP.Fitness>
30.8743

> <Gold.PLP.PLP>
-27.9192

> <Gold.PLP.part.hbond>
-1.8734

> <Gold.PLP.part.metal>
0.0000

> <Gold.PLP.part.buried>
-4.5332

> <Gold.PLP.part.nonpolar>
-24.2076

> <Gold.PLP.part.repulsive>
1.0398

> <Gold.PLP.ligand.clash>
1.2997

> <Gold.PLP.ligand.torsion>
0.1307

> <Gold.PLP.Chemscore.Hbond>
1.5054

> <Gold.PLP.Chemscore.CHOScore>
0.0000

> <Gold.PLP.Chemscore.Metal>
0.0000

> <Gold.Chemscore.Hbonds>
donor molecule, donor type, donor heavy atom, donor atom, acceptor molecule, acceptor atom, score
      L1  H     8    22       P1  1479  0.62
      P1  H  1482  1489       L1    17  0.34

> <Gold.PLP.Chemscore.Internal.Correction>
   9.000000E+99

