#       Name:                CT1002167954
#       Creating user name   hitesit
#       Creation time:       Sun Apr 16 20:18:33 2023


#       File generated by GOLD software.
#

@<TRIPOS>MOLECULE
CT1002167954|ligand_prepared|mol2|1|dock9
    29    30     1
SMALL
NO_CHARGES


@<TRIPOS>ATOM
      1 C1         209.0339  28.6341  70.4000 C.3            1 RES1               0.0000
      2 C2         208.6961  30.1286  70.2232 C.ar           1 RES1               0.0000
      3 C3         208.2679  28.1648  71.6334 C.2            1 RES1               0.0000
      4 C4         208.6123  27.9456  69.1066 C.2            1 RES1               0.0000
      5 C5         210.5389  28.3555  70.6209 C.3            1 RES1               0.0000
      6 C6         209.3205  30.8841  69.2352 C.ar           1 RES1               0.0000
      7 C7         207.7621  30.7639  71.0372 C.ar           1 RES1               0.0000
      8 N8         207.1731  27.3762  71.4351 N.am           1 RES1               0.0000
      9 O9         208.5963  28.5137  72.7606 O.2            1 RES1               0.0000
     10 N10        207.5844  27.0413  69.1660 N.am           1 RES1               0.0000
     11 O11        209.1499  28.1903  68.0336 O.2            1 RES1               0.0000
     12 C12        210.8590  26.8933  70.8883 C.3            1 RES1               0.0000
     13 C13        209.0199  32.2254  69.0652 C.ar           1 RES1               0.0000
     14 C14        207.4632  32.1054  70.8656 C.ar           1 RES1               0.0000
     15 C15        206.8254  26.7482  70.2661 C.2            1 RES1               0.0000
     16 C16        208.0909  32.8368  69.8798 C.ar           1 RES1               0.0000
     17 O17        205.8819  25.9636  70.2282 O.2            1 RES1               0.0000
     18 H18        211.0926  28.6814  69.7317 H              1 RES1               0.0000
     19 H19        210.8877  28.9544  71.4713 H              1 RES1               0.0000
     20 H20        210.0561  30.4208  68.5862 H              1 RES1               0.0000
     21 H21        207.2567  30.2085  71.8200 H              1 RES1               0.0000
     22 H22        206.5557  27.2409  72.2293 H              1 RES1               0.0000
     23 H23        207.3649  26.5402  68.3111 H              1 RES1               0.0000
     24 H24        211.9277  26.7531  71.0361 H              1 RES1               0.0000
     25 H25        210.3446  26.5427  71.7806 H              1 RES1               0.0000
     26 H26        210.5482  26.2712  70.0514 H              1 RES1               0.0000
     27 H27        209.5177  32.7969  68.2888 H              1 RES1               0.0000
     28 H28        206.7318  32.5826  71.5095 H              1 RES1               0.0000
     29 H29        207.8553  33.8874  69.7462 H              1 RES1               0.0000
@<TRIPOS>BOND
    1    1    2 1     
    2    1    3 1     
    3    1    4 1     
    4    1    5 1     
    5    2    6 ar    
    6    2    7 ar    
    7    3    8 1     
    8    3    9 2     
    9    4   10 1     
   10    4   11 2     
   11    5   12 1     
   12    5   18 1     
   13    5   19 1     
   14    6   13 ar    
   15    6   20 1     
   16    7   14 ar    
   17    7   21 1     
   18    8   15 1     
   19    8   22 1     
   20   10   15 1     
   21   10   23 1     
   22   12   24 1     
   23   12   25 1     
   24   12   26 1     
   25   13   16 ar    
   26   13   27 1     
   27   14   16 ar    
   28   14   28 1     
   29   15   17 2     
   30   16   29 1     
@<TRIPOS>SUBSTRUCTURE
      1 RES1           1
@<TRIPOS>SET
DONOR_HYDROGENS      STATIC     ATOMS    <user>   **** ""
2 22 23
ATOM$RED        STATIC     ATOMS    COLORGROUP SYSTEM
2 22 23
@<TRIPOS>COMMENT
> <Gold.Version>
2022.3.0

> <Gold.Id.Protein>
unknown|4d1n_clean|pdb

> <Gold.Protein.RotatedTorsions>
[ 16977 16932 16931 16929 ] final  102.02 input   60.00 | X-H torsion
[ 18485 18440 18439 18437 ] final   27.92 input   60.00 | X-H torsion
[ 10110 10082 10081 10078 ] final -125.51 input   59.99 | X-H torsion
[ 18289 18266 18265 18262 ] final -167.52 input   60.03 | X-H torsion
[ 18650 18615 18613 18610 ] final -105.25 input   59.98 | X-H torsion
[ 11435 11402 11401 11398 ] final    8.61 input   60.03 | X-H torsion

> <Gold.Protein.ActiveResidues>
 TRP414  CYS420  VAL421  GLY422  LEU460  SER462  SER482  GLN483  ILE485  ARG486 
 TYR487  ASP500  ASN503  TRP566  TYR567  LEU569  PRO570  ALA571  VAL572  SER573 
 ASN574  PHE589  SER590  GLY591  TRP592  TYR593  MET594  GLY595  THR596  GLU597 
 ILE598  GLY599  VAL600  ARG601  ASP602  TYR603  ARG608  ILE653  VAL654  TRP683 
 PRO687  HEM750  H4B760 

> <Gold.Protein.RotatedAtoms>
  205.8561   44.0988   68.8532 H   0  0  0  0  0  0  0  0  0  0  0  0  # atno 10110 bound_to 10082
  215.1847   29.7205   75.4749 H   0  0  0  0  0  0  0  0  0  0  0  0  # atno 11435 bound_to 11402
  209.5876   31.3742   77.6033 H   0  0  0  0  0  0  0  0  0  0  0  0  # atno 16977 bound_to 16932
  210.5502   42.4086   74.8180 H   0  0  0  0  0  0  0  0  0  0  0  0  # atno 18289 bound_to 18266
  206.4876   32.4043   75.3999 H   0  0  0  0  0  0  0  0  0  0  0  0  # atno 18485 bound_to 18440
  197.1912   30.7524   68.7802 H   0  0  0  0  0  0  0  0  0  0  0  0  # atno 18650 bound_to 18615
  208.4045   31.9881   76.6699 LP  0  0  0  0  0  0  0  0  0  0  0  0  # atno 27195 bound_to 16932
  208.1474   30.6209   77.5250 LP  0  0  0  0  0  0  0  0  0  0  0  0  # atno 27196 bound_to 16932
  205.6526   31.9951   76.7355 LP  0  0  0  0  0  0  0  0  0  0  0  0  # atno 27197 bound_to 18440
  206.5261   33.3745   76.7059 LP  0  0  0  0  0  0  0  0  0  0  0  0  # atno 27198 bound_to 18440
  205.1593   45.5582   69.0348 LP  0  0  0  0  0  0  0  0  0  0  0  0  # atno 27253 bound_to 10082
  205.5100   44.6490   70.3451 LP  0  0  0  0  0  0  0  0  0  0  0  0  # atno 27254 bound_to 10082
  209.5088   42.9662   73.6986 LP  0  0  0  0  0  0  0  0  0  0  0  0  # atno 27255 bound_to 18266
  211.0523   42.6288   73.2857 LP  0  0  0  0  0  0  0  0  0  0  0  0  # atno 27256 bound_to 18266

> <Gold.Score>
     Fitness  S(hb_ext) S(vdw_ext)  S(hb_int)    S(int)      intcor
     33.37       8.98      19.32       0.00      -2.18      -0.76

> <Gold.Goldscore.Fitness>
33.3657

> <Gold.Goldscore.Internal.Vdw>
-2.5417

> <Gold.Goldscore.Internal.Torsion>
-0.3936

> <Gold.Goldscore.External.Vdw>
19.3190

> <Gold.Goldscore.Internal.HBond>
0.0000

> <Gold.Goldscore.External.HBond>
8.9789

> <Gold.Goldscore.Internal.Correction>
-0.7585

> <Gold.Goldscore.Hbonds>
donor molecule, donor type, donor heavy atom, donor atom, acceptor molecule, acceptor atom, score
      L1  H     8    22       P1 18995  0.50
      L1  H    10    23       P1 27071  1.00

> <Gold.Goldscore.Internal.Vdw.Weighted>
-2.5417

> <Gold.Goldscore.Internal.Torsion.Weighted>
-0.3936

> <Gold.Goldscore.External.Vdw.Weighted>
26.5636

> <Gold.Goldscore.Internal.HBond.Weighted>
0.0000

> <Gold.Goldscore.External.HBond.Weighted>
8.9789

> <Gold.Goldscore.Internal.Correction.Weighted>
-0.7585

> <Gold.Rescore>
     Score     S(PLP)   S(hbond)     S(cho)   S(metal)  DE(clash)   DE(tors)     intcor
     17.67     -16.68       1.05       0.00       0.00       1.36       0.41       ----

> <Gold.PLP.Fitness>
17.6651

> <Gold.PLP.PLP>
-16.6799

> <Gold.PLP.part.hbond>
-3.6199

> <Gold.PLP.part.metal>
0.0000

> <Gold.PLP.part.buried>
-0.2050

> <Gold.PLP.part.nonpolar>
-13.7677

> <Gold.PLP.part.repulsive>
1.1963

> <Gold.PLP.ligand.clash>
1.3602

> <Gold.PLP.ligand.torsion>
0.4094

> <Gold.PLP.Chemscore.Hbond>
1.0548

> <Gold.PLP.Chemscore.CHOScore>
0.0000

> <Gold.PLP.Chemscore.Metal>
0.0000

> <Gold.Chemscore.Hbonds>
donor molecule, donor type, donor heavy atom, donor atom, acceptor molecule, acceptor atom, score
      L1  H    10    23       P1 27071  0.34

> <Gold.PLP.Chemscore.Internal.Correction>
   9.000000E+99

