#       Name:                CT1002167954
#       Creating user name   hitesit
#       Creation time:       Sun Apr 16 20:18:29 2023


#       File generated by GOLD software.
#

@<TRIPOS>MOLECULE
CT1002167954|ligand_prepared|mol2|1|dock3
    29    30     1
SMALL
NO_CHARGES


@<TRIPOS>ATOM
      1 C1         208.5598  28.2149  70.8492 C.3            1 RES1               0.0000
      2 C2         208.3660  29.7399  70.7248 C.ar           1 RES1               0.0000
      3 C3         207.5903  27.7467  71.9306 C.2            1 RES1               0.0000
      4 C4         208.2780  27.6349  69.4676 C.2            1 RES1               0.0000
      5 C5         209.9915  27.7984  71.2593 C.3            1 RES1               0.0000
      6 C6         207.3462  30.3837  71.4192 C.ar           1 RES1               0.0000
      7 C7         209.1993  30.5154  69.9229 C.ar           1 RES1               0.0000
      8 N8         206.4787  27.0654  71.5305 N.am           1 RES1               0.0000
      9 O9         207.7783  28.0056  73.1129 O.2            1 RES1               0.0000
     10 N10        207.1864  26.8191  69.3241 N.am           1 RES1               0.0000
     11 O11        208.9819  27.8904  68.4983 O.2            1 RES1               0.0000
     12 C12        210.1728  26.2965  71.4133 C.3            1 RES1               0.0000
     13 C13        207.1676  31.7534  71.3182 C.ar           1 RES1               0.0000
     14 C14        209.0188  31.8851  69.8231 C.ar           1 RES1               0.0000
     15 C15        206.2565  26.5327  70.2861 C.2            1 RES1               0.0000
     16 C16        208.0039  32.5050  70.5205 C.ar           1 RES1               0.0000
     17 O17        205.2713  25.8341  70.0660 O.2            1 RES1               0.0000
     18 H18        210.6960  28.1633  70.5018 H              1 RES1               0.0000
     19 H19        210.2415  28.2835  72.2110 H              1 RES1               0.0000
     20 H20        206.6767  29.8084  72.0499 H              1 RES1               0.0000
     21 H21        210.0036  30.0489  69.3644 H              1 RES1               0.0000
     22 H22        205.7447  26.9406  72.2204 H              1 RES1               0.0000
     23 H23        207.0550  26.3849  68.4161 H              1 RES1               0.0000
     24 H24        211.1945  26.0589  71.7018 H              1 RES1               0.0000
     25 H25        209.5049  25.9036  72.1771 H              1 RES1               0.0000
     26 H26        209.9568  25.7841  70.4780 H              1 RES1               0.0000
     27 H27        206.3666  32.2364  71.8680 H              1 RES1               0.0000
     28 H28        209.6790  32.4726  69.1937 H              1 RES1               0.0000
     29 H29        207.8641  33.5781  70.4418 H              1 RES1               0.0000
@<TRIPOS>BOND
    1    1    2 1     
    2    1    3 1     
    3    1    4 1     
    4    1    5 1     
    5    2    6 ar    
    6    2    7 ar    
    7    3    8 1     
    8    3    9 2     
    9    4   10 1     
   10    4   11 2     
   11    5   12 1     
   12    5   18 1     
   13    5   19 1     
   14    6   13 ar    
   15    6   20 1     
   16    7   14 ar    
   17    7   21 1     
   18    8   15 1     
   19    8   22 1     
   20   10   15 1     
   21   10   23 1     
   22   12   24 1     
   23   12   25 1     
   24   12   26 1     
   25   13   16 ar    
   26   13   27 1     
   27   14   16 ar    
   28   14   28 1     
   29   15   17 2     
   30   16   29 1     
@<TRIPOS>SUBSTRUCTURE
      1 RES1           1
@<TRIPOS>SET
DONOR_HYDROGENS      STATIC     ATOMS    <user>   **** ""
2 22 23
ATOM$RED        STATIC     ATOMS    COLORGROUP SYSTEM
2 22 23
@<TRIPOS>COMMENT
> <Gold.Version>
2022.3.0

> <Gold.Id.Protein>
unknown|4d1n_clean|pdb

> <Gold.Protein.RotatedTorsions>
[ 16977 16932 16931 16929 ] final   13.79 input   60.00 | X-H torsion
[ 18485 18440 18439 18437 ] final  -86.98 input   60.00 | X-H torsion
[ 10110 10082 10081 10078 ] final  134.04 input   59.99 | X-H torsion
[ 18289 18266 18265 18262 ] final  -89.91 input   60.03 | X-H torsion
[ 18650 18615 18613 18610 ] final  -49.37 input   59.98 | X-H torsion
[ 11435 11402 11401 11398 ] final  162.38 input   60.03 | X-H torsion

> <Gold.Protein.ActiveResidues>
 TRP414  CYS420  VAL421  GLY422  LEU460  SER462  SER482  GLN483  ILE485  ARG486 
 TYR487  ASP500  ASN503  TRP566  TYR567  LEU569  PRO570  ALA571  VAL572  SER573 
 ASN574  PHE589  SER590  GLY591  TRP592  TYR593  MET594  GLY595  THR596  GLU597 
 ILE598  GLY599  VAL600  ARG601  ASP602  TYR603  ARG608  ILE653  VAL654  TRP683 
 PRO687  HEM750  H4B760 

> <Gold.Protein.RotatedAtoms>
  205.2505   45.4020   68.7719 H   0  0  0  0  0  0  0  0  0  0  0  0  # atno 10110 bound_to 10082
  214.6084   28.2673   74.5365 H   0  0  0  0  0  0  0  0  0  0  0  0  # atno 11435 bound_to 11402
  208.8893   32.1132   76.7882 H   0  0  0  0  0  0  0  0  0  0  0  0  # atno 16977 bound_to 16932
  211.2734   42.4216   73.8937 H   0  0  0  0  0  0  0  0  0  0  0  0  # atno 18289 bound_to 18266
  205.6555   31.9528   76.6629 H   0  0  0  0  0  0  0  0  0  0  0  0  # atno 18485 bound_to 18440
  197.7182   31.0162   69.4304 H   0  0  0  0  0  0  0  0  0  0  0  0  # atno 18650 bound_to 18615
  207.8709   30.9135   77.2022 LP  0  0  0  0  0  0  0  0  0  0  0  0  # atno 27195 bound_to 16932
  209.3846   30.9510   77.8138 LP  0  0  0  0  0  0  0  0  0  0  0  0  # atno 27196 bound_to 16932
  206.4818   33.3505   76.7730 LP  0  0  0  0  0  0  0  0  0  0  0  0  # atno 27197 bound_to 18440
  206.5348   32.4737   75.3964 LP  0  0  0  0  0  0  0  0  0  0  0  0  # atno 27198 bound_to 18440
  205.3753   44.9390   70.3270 LP  0  0  0  0  0  0  0  0  0  0  0  0  # atno 27253 bound_to 10082
  205.9037   43.9563   69.1347 LP  0  0  0  0  0  0  0  0  0  0  0  0  # atno 27254 bound_to 10082
  209.9041   42.6082   74.7531 LP  0  0  0  0  0  0  0  0  0  0  0  0  # atno 27255 bound_to 18266
  209.9288   42.9738   73.1618 LP  0  0  0  0  0  0  0  0  0  0  0  0  # atno 27256 bound_to 18266

> <Gold.Score>
     Fitness  S(hb_ext) S(vdw_ext)  S(hb_int)    S(int)      intcor
     32.71       7.04      20.51       0.00      -2.53      -0.81

> <Gold.Goldscore.Fitness>
32.7097

> <Gold.Goldscore.Internal.Vdw>
-2.9697

> <Gold.Goldscore.Internal.Torsion>
-0.3703

> <Gold.Goldscore.External.Vdw>
20.5121

> <Gold.Goldscore.Internal.HBond>
0.0000

> <Gold.Goldscore.External.HBond>
7.0396

> <Gold.Goldscore.Internal.Correction>
-0.8059

> <Gold.Goldscore.Hbonds>
donor molecule, donor type, donor heavy atom, donor atom, acceptor molecule, acceptor atom, score
      P1  H 19322 19379       L1     9  0.03
      L1  H     8    22       P1 18995  0.15
      L1  H    10    23       P1 27071  1.00

> <Gold.Goldscore.Internal.Vdw.Weighted>
-2.9697

> <Gold.Goldscore.Internal.Torsion.Weighted>
-0.3703

> <Gold.Goldscore.External.Vdw.Weighted>
28.2042

> <Gold.Goldscore.Internal.HBond.Weighted>
0.0000

> <Gold.Goldscore.External.HBond.Weighted>
7.0396

> <Gold.Goldscore.Internal.Correction.Weighted>
-0.8059

> <Gold.Rescore>
     Score     S(PLP)   S(hbond)     S(cho)   S(metal)  DE(clash)   DE(tors)     intcor
     15.25     -14.38       1.01       0.00       0.00       1.95       0.11       ----

> <Gold.PLP.Fitness>
15.2451

> <Gold.PLP.PLP>
-14.3786

> <Gold.PLP.part.hbond>
-5.0186

> <Gold.PLP.part.metal>
0.0000

> <Gold.PLP.part.buried>
0.2228

> <Gold.PLP.part.nonpolar>
-12.2373

> <Gold.PLP.part.repulsive>
0.6233

> <Gold.PLP.ligand.clash>
1.9508

> <Gold.PLP.ligand.torsion>
0.1120

> <Gold.PLP.Chemscore.Hbond>
1.0138

> <Gold.PLP.Chemscore.CHOScore>
0.0000

> <Gold.PLP.Chemscore.Metal>
0.0000

> <Gold.Chemscore.Hbonds>
donor molecule, donor type, donor heavy atom, donor atom, acceptor molecule, acceptor atom, score
      L1  H     8    22       P1 18995  0.38
      L1  H    10    23       P1 27071  0.39
      P1  H 19322 19379       L1     9  0.35

> <Gold.PLP.Chemscore.Internal.Correction>
   9.000000E+99

