#       Name:                CT1002167954
#       Creating user name   hitesit
#       Creation time:       Sun Apr 16 20:18:28 2023


#       File generated by GOLD software.
#

@<TRIPOS>MOLECULE
CT1002167954|ligand_prepared|mol2|1|dock1
    29    30     1
SMALL
NO_CHARGES


@<TRIPOS>ATOM
      1 C1         207.3715  29.2993  71.5672 C.3            1 RES1               0.0000
      2 C2         207.5798  30.7281  71.0249 C.ar           1 RES1               0.0000
      3 C3         208.7207  28.8502  72.1205 C.2            1 RES1               0.0000
      4 C4         206.2702  29.3978  72.6169 C.2            1 RES1               0.0000
      5 C5         206.9182  28.2833  70.4931 C.3            1 RES1               0.0000
      6 C6         206.9975  31.8197  71.6621 C.ar           1 RES1               0.0000
      7 C7         208.3523  30.9701  69.8921 C.ar           1 RES1               0.0000
      8 N8         208.8634  28.8023  73.4759 N.am           1 RES1               0.0000
      9 O9         209.6575  28.5802  71.3791 O.2            1 RES1               0.0000
     10 N10        206.6003  29.1342  73.9205 N.am           1 RES1               0.0000
     11 O11        205.1233  29.7175  72.3294 O.2            1 RES1               0.0000
     12 C12        206.5706  26.9130  71.0532 C.3            1 RES1               0.0000
     13 C13        207.1832  33.1070  71.1859 C.ar           1 RES1               0.0000
     14 C14        208.5365  32.2582  69.4174 C.ar           1 RES1               0.0000
     15 C15        207.8537  28.8708  74.4019 C.2            1 RES1               0.0000
     16 C16        207.9530  33.3272  70.0636 C.ar           1 RES1               0.0000
     17 O17        208.0803  28.6981  75.5960 O.2            1 RES1               0.0000
     18 H18        206.0395  28.6861  69.9744 H              1 RES1               0.0000
     19 H19        207.7208  28.1692  69.7539 H              1 RES1               0.0000
     20 H20        206.3864  31.6657  72.5452 H              1 RES1               0.0000
     21 H21        208.8200  30.1443  69.3669 H              1 RES1               0.0000
     22 H22        209.8083  28.7067  73.8342 H              1 RES1               0.0000
     23 H23        205.8412  29.1341  74.5945 H              1 RES1               0.0000
     24 H24        206.2590  26.2390  70.2580 H              1 RES1               0.0000
     25 H25        207.4296  26.4718  71.5543 H              1 RES1               0.0000
     26 H26        205.7584  26.9856  71.7736 H              1 RES1               0.0000
     27 H27        206.7207  33.9448  71.6973 H              1 RES1               0.0000
     28 H28        209.1427  32.4268  68.5335 H              1 RES1               0.0000
     29 H29        208.0987  34.3357  69.6910 H              1 RES1               0.0000
@<TRIPOS>BOND
    1    1    2 1     
    2    1    3 1     
    3    1    4 1     
    4    1    5 1     
    5    2    6 ar    
    6    2    7 ar    
    7    3    8 1     
    8    3    9 2     
    9    4   10 1     
   10    4   11 2     
   11    5   12 1     
   12    5   18 1     
   13    5   19 1     
   14    6   13 ar    
   15    6   20 1     
   16    7   14 ar    
   17    7   21 1     
   18    8   15 1     
   19    8   22 1     
   20   10   15 1     
   21   10   23 1     
   22   12   24 1     
   23   12   25 1     
   24   12   26 1     
   25   13   16 ar    
   26   13   27 1     
   27   14   16 ar    
   28   14   28 1     
   29   15   17 2     
   30   16   29 1     
@<TRIPOS>SUBSTRUCTURE
      1 RES1           1
@<TRIPOS>SET
DONOR_HYDROGENS      STATIC     ATOMS    <user>   **** ""
2 22 23
ATOM$RED        STATIC     ATOMS    COLORGROUP SYSTEM
2 22 23
@<TRIPOS>COMMENT
> <Gold.Version>
2022.3.0

> <Gold.Id.Protein>
unknown|4d1n_clean|pdb

> <Gold.Protein.RotatedTorsions>
[ 16977 16932 16931 16929 ] final -135.25 input   60.00 | X-H torsion
[ 18485 18440 18439 18437 ] final  -61.85 input   60.00 | X-H torsion
[ 10110 10082 10081 10078 ] final  -86.09 input   59.99 | X-H torsion
[ 18289 18266 18265 18262 ] final  119.97 input   60.03 | X-H torsion
[ 18650 18615 18613 18610 ] final  120.69 input   59.98 | X-H torsion
[ 11435 11402 11401 11398 ] final   27.92 input   60.03 | X-H torsion

> <Gold.Protein.ActiveResidues>
 TRP414  CYS420  VAL421  GLY422  LEU460  SER462  SER482  GLN483  ILE485  ARG486 
 TYR487  ASP500  ASN503  TRP566  TYR567  LEU569  PRO570  ALA571  VAL572  SER573 
 ASN574  PHE589  SER590  GLY591  TRP592  TYR593  MET594  GLY595  THR596  GLU597 
 ILE598  GLY599  VAL600  ARG601  ASP602  TYR603  ARG608  ILE653  VAL654  TRP683 
 PRO687  HEM750  H4B760 

> <Gold.Protein.RotatedAtoms>
  205.9053   43.9199   69.4569 H   0  0  0  0  0  0  0  0  0  0  0  0  # atno 10110 bound_to 10082
  214.9125   29.7716   75.3269 H   0  0  0  0  0  0  0  0  0  0  0  0  # atno 11435 bound_to 11402
  208.1192   30.6444   77.4986 H   0  0  0  0  0  0  0  0  0  0  0  0  # atno 16977 bound_to 16932
  209.5803   42.7730   74.4267 H   0  0  0  0  0  0  0  0  0  0  0  0  # atno 18289 bound_to 18266
  205.7220   31.7998   76.2913 H   0  0  0  0  0  0  0  0  0  0  0  0  # atno 18485 bound_to 18440
  198.4542   29.6385   68.4103 H   0  0  0  0  0  0  0  0  0  0  0  0  # atno 18650 bound_to 18615
  209.5865   31.3360   77.6276 LP  0  0  0  0  0  0  0  0  0  0  0  0  # atno 27195 bound_to 16932
  208.4448   32.0082   76.6728 LP  0  0  0  0  0  0  0  0  0  0  0  0  # atno 27196 bound_to 16932
  206.2412   33.1496   77.0376 LP  0  0  0  0  0  0  0  0  0  0  0  0  # atno 27197 bound_to 18440
  206.7085   32.8288   75.5061 LP  0  0  0  0  0  0  0  0  0  0  0  0  # atno 27198 bound_to 18440
  205.3656   45.1743   68.5717 LP  0  0  0  0  0  0  0  0  0  0  0  0  # atno 27253 bound_to 10082
  205.2543   45.2130   70.2004 LP  0  0  0  0  0  0  0  0  0  0  0  0  # atno 27254 bound_to 10082
  210.3873   42.8786   73.0174 LP  0  0  0  0  0  0  0  0  0  0  0  0  # atno 27255 bound_to 18266
  211.1503   42.3496   74.3608 LP  0  0  0  0  0  0  0  0  0  0  0  0  # atno 27256 bound_to 18266

> <Gold.Score>
     Fitness  S(hb_ext) S(vdw_ext)  S(hb_int)    S(int)      intcor
     34.22       6.16      22.20       0.00      -2.45      -0.81

> <Gold.Goldscore.Fitness>
34.2237

> <Gold.Goldscore.Internal.Vdw>
-2.8329

> <Gold.Goldscore.Internal.Torsion>
-0.4260

> <Gold.Goldscore.External.Vdw>
22.1958

> <Gold.Goldscore.Internal.HBond>
0.0000

> <Gold.Goldscore.External.HBond>
6.1575

> <Gold.Goldscore.Internal.Correction>
-0.8059

> <Gold.Goldscore.Hbonds>
donor molecule, donor type, donor heavy atom, donor atom, acceptor molecule, acceptor atom, score
      P1  H 11671 11743       L1    17  0.30
      P1  H 19323 19381       L1    17  0.11
      L1  H    10    23       P1 18996  0.62

> <Gold.Goldscore.Internal.Vdw.Weighted>
-2.8329

> <Gold.Goldscore.Internal.Torsion.Weighted>
-0.4260

> <Gold.Goldscore.External.Vdw.Weighted>
30.5193

> <Gold.Goldscore.Internal.HBond.Weighted>
0.0000

> <Gold.Goldscore.External.HBond.Weighted>
6.1575

> <Gold.Goldscore.Internal.Correction.Weighted>
-0.8059

> <Gold.Rescore>
     Score     S(PLP)   S(hbond)     S(cho)   S(metal)  DE(clash)   DE(tors)     intcor
     19.74     -14.83       2.48       0.00       0.00       1.62       0.46       ----

> <Gold.PLP.Fitness>
19.7376

> <Gold.PLP.PLP>
-14.8272

> <Gold.PLP.part.hbond>
-4.0000

> <Gold.PLP.part.metal>
0.0000

> <Gold.PLP.part.buried>
10.1970

> <Gold.PLP.part.nonpolar>
-25.9145

> <Gold.PLP.part.repulsive>
4.2463

> <Gold.PLP.ligand.clash>
1.6153

> <Gold.PLP.ligand.torsion>
0.4571

> <Gold.PLP.Chemscore.Hbond>
2.4800

> <Gold.PLP.Chemscore.CHOScore>
0.0000

> <Gold.PLP.Chemscore.Metal>
0.0000

> <Gold.Chemscore.Hbonds>
donor molecule, donor type, donor heavy atom, donor atom, acceptor molecule, acceptor atom, score
      L1  H    10    23       P1 18996  0.60
      P1  H 11671 11743       L1    17  0.58
      P1  H 19323 19381       L1    17  1.00

> <Gold.PLP.Chemscore.Internal.Correction>
   9.000000E+99

