#       Name:                CT1002167954
#       Creating user name   hitesit
#       Creation time:       Sun Apr 16 20:18:32 2023


#       File generated by GOLD software.
#

@<TRIPOS>MOLECULE
CT1002167954|ligand_prepared|mol2|1|dock7
    29    30     1
SMALL
NO_CHARGES


@<TRIPOS>ATOM
      1 C1         207.4152  29.1636  71.5362 C.3            1 RES1               0.0000
      2 C2         208.6232  29.8565  70.8734 C.ar           1 RES1               0.0000
      3 C3         207.9459  27.8707  72.1488 C.2            1 RES1               0.0000
      4 C4         206.8619  30.1535  72.5553 C.2            1 RES1               0.0000
      5 C5         206.2790  28.8091  70.5488 C.3            1 RES1               0.0000
      6 C6         208.4371  30.9301  70.0076 C.ar           1 RES1               0.0000
      7 C7         209.9275  29.4358  71.1195 C.ar           1 RES1               0.0000
      8 N8         208.0777  27.8219  73.5053 N.am           1 RES1               0.0000
      9 O9         208.2809  26.9227  71.4493 O.2            1 RES1               0.0000
     10 N10        206.9409  29.8207  73.8822 N.am           1 RES1               0.0000
     11 O11        206.3733  31.2262  72.2221 O.2            1 RES1               0.0000
     12 C12        205.1301  28.0432  71.1856 C.3            1 RES1               0.0000
     13 C13        209.5159  31.5622  69.4118 C.ar           1 RES1               0.0000
     14 C14        211.0049  30.0693  70.5225 C.ar           1 RES1               0.0000
     15 C15        207.5515  28.7135  74.4052 C.2            1 RES1               0.0000
     16 C16        210.8003  31.1326  69.6691 C.ar           1 RES1               0.0000
     17 O17        207.6296  28.5104  75.6134 O.2            1 RES1               0.0000
     18 H18        205.8869  29.7368  70.1140 H              1 RES1               0.0000
     19 H19        206.6958  28.2062  69.7326 H              1 RES1               0.0000
     20 H20        207.4334  31.2806  69.7912 H              1 RES1               0.0000
     21 H21        210.1122  28.6007  71.7865 H              1 RES1               0.0000
     22 H22        208.6176  27.0511  73.8858 H              1 RES1               0.0000
     23 H23        206.5039  30.4572  74.5411 H              1 RES1               0.0000
     24 H24        204.3606  27.8198  70.4496 H              1 RES1               0.0000
     25 H25        205.4797  27.1027  71.6063 H              1 RES1               0.0000
     26 H26        204.6756  28.6242  71.9854 H              1 RES1               0.0000
     27 H27        209.3495  32.3978  68.7400 H              1 RES1               0.0000
     28 H28        212.0140  29.7274  70.7273 H              1 RES1               0.0000
     29 H29        211.6453  31.6283  69.2026 H              1 RES1               0.0000
@<TRIPOS>BOND
    1    1    2 1     
    2    1    3 1     
    3    1    4 1     
    4    1    5 1     
    5    2    6 ar    
    6    2    7 ar    
    7    3    8 1     
    8    3    9 2     
    9    4   10 1     
   10    4   11 2     
   11    5   12 1     
   12    5   18 1     
   13    5   19 1     
   14    6   13 ar    
   15    6   20 1     
   16    7   14 ar    
   17    7   21 1     
   18    8   15 1     
   19    8   22 1     
   20   10   15 1     
   21   10   23 1     
   22   12   24 1     
   23   12   25 1     
   24   12   26 1     
   25   13   16 ar    
   26   13   27 1     
   27   14   16 ar    
   28   14   28 1     
   29   15   17 2     
   30   16   29 1     
@<TRIPOS>SUBSTRUCTURE
      1 RES1           1
@<TRIPOS>SET
DONOR_HYDROGENS      STATIC     ATOMS    <user>   **** ""
2 22 23
ATOM$RED        STATIC     ATOMS    COLORGROUP SYSTEM
2 22 23
@<TRIPOS>COMMENT
> <Gold.Version>
2022.3.0

> <Gold.Id.Protein>
unknown|4d1n_clean|pdb

> <Gold.Protein.RotatedTorsions>
[ 16977 16932 16931 16929 ] final  -27.43 input   60.00 | X-H torsion
[ 18485 18440 18439 18437 ] final   41.21 input   60.00 | X-H torsion
[ 10110 10082 10081 10078 ] final  -61.93 input   59.99 | X-H torsion
[ 18289 18266 18265 18262 ] final   93.73 input   60.03 | X-H torsion
[ 18650 18615 18613 18610 ] final   89.89 input   59.98 | X-H torsion
[ 11435 11402 11401 11398 ] final   12.57 input   60.03 | X-H torsion

> <Gold.Protein.ActiveResidues>
 TRP414  CYS420  VAL421  GLY422  LEU460  SER462  SER482  GLN483  ILE485  ARG486 
 TYR487  ASP500  ASN503  TRP566  TYR567  LEU569  PRO570  ALA571  VAL572  SER573 
 ASN574  PHE589  SER590  GLY591  TRP592  TYR593  MET594  GLY595  THR596  GLU597 
 ILE598  GLY599  VAL600  ARG601  ASP602  TYR603  ARG608  ILE653  VAL654  TRP683 
 PRO687  HEM750  H4B760 

> <Gold.Protein.RotatedAtoms>
  205.8446   44.0033   69.8352 H   0  0  0  0  0  0  0  0  0  0  0  0  # atno 10110 bound_to 10082
  215.1290   29.7390   75.4479 H   0  0  0  0  0  0  0  0  0  0  0  0  # atno 11435 bound_to 11402
  208.2744   31.9046   76.6761 H   0  0  0  0  0  0  0  0  0  0  0  0  # atno 16977 bound_to 16932
  209.4683   42.8960   74.0356 H   0  0  0  0  0  0  0  0  0  0  0  0  # atno 18289 bound_to 18266
  206.5956   32.5912   75.4195 H   0  0  0  0  0  0  0  0  0  0  0  0  # atno 18485 bound_to 18440
  198.7679   29.7726   68.7721 H   0  0  0  0  0  0  0  0  0  0  0  0  # atno 18650 bound_to 18615
  208.2680   30.5722   77.6101 LP  0  0  0  0  0  0  0  0  0  0  0  0  # atno 27195 bound_to 16932
  209.6070   31.5025   77.5189 LP  0  0  0  0  0  0  0  0  0  0  0  0  # atno 27196 bound_to 16932
  205.6632   31.8819   76.5491 LP  0  0  0  0  0  0  0  0  0  0  0  0  # atno 27197 bound_to 18440
  206.4066   33.2995   76.8725 LP  0  0  0  0  0  0  0  0  0  0  0  0  # atno 27198 bound_to 18440
  205.5320   44.8314   68.4695 LP  0  0  0  0  0  0  0  0  0  0  0  0  # atno 27253 bound_to 10082
  205.1489   45.4720   69.9219 LP  0  0  0  0  0  0  0  0  0  0  0  0  # atno 27254 bound_to 10082
  210.7876   42.7481   73.0943 LP  0  0  0  0  0  0  0  0  0  0  0  0  # atno 27255 bound_to 18266
  210.8628   42.3562   74.6778 LP  0  0  0  0  0  0  0  0  0  0  0  0  # atno 27256 bound_to 18266

> <Gold.Score>
     Fitness  S(hb_ext) S(vdw_ext)  S(hb_int)    S(int)      intcor
     34.17       6.96      20.86       0.00      -1.47      -0.76

> <Gold.Goldscore.Fitness>
34.1663

> <Gold.Goldscore.Internal.Vdw>
-1.8372

> <Gold.Goldscore.Internal.Torsion>
-0.3939

> <Gold.Goldscore.External.Vdw>
20.8604

> <Gold.Goldscore.Internal.HBond>
0.0000

> <Gold.Goldscore.External.HBond>
6.9558

> <Gold.Goldscore.Internal.Correction>
-0.7585

> <Gold.Goldscore.Hbonds>
donor molecule, donor type, donor heavy atom, donor atom, acceptor molecule, acceptor atom, score
      P1  H 11671 11743       L1    17  0.16
      P1  H 19323 19381       L1    17  0.97
      L1  H    10    23       P1 18440  0.09

> <Gold.Goldscore.Internal.Vdw.Weighted>
-1.8372

> <Gold.Goldscore.Internal.Torsion.Weighted>
-0.3939

> <Gold.Goldscore.External.Vdw.Weighted>
28.6830

> <Gold.Goldscore.Internal.HBond.Weighted>
0.0000

> <Gold.Goldscore.External.HBond.Weighted>
6.9558

> <Gold.Goldscore.Internal.Correction.Weighted>
-0.7585

> <Gold.Rescore>
     Score     S(PLP)   S(hbond)     S(cho)   S(metal)  DE(clash)   DE(tors)     intcor
     12.84     -11.89       0.86       0.00       0.00       1.38       0.12       ----

> <Gold.PLP.Fitness>
12.8435

> <Gold.PLP.PLP>
-11.8948

> <Gold.PLP.part.hbond>
-4.2525

> <Gold.PLP.part.metal>
0.0000

> <Gold.PLP.part.buried>
4.8115

> <Gold.PLP.part.nonpolar>
-19.7046

> <Gold.PLP.part.repulsive>
5.2989

> <Gold.PLP.ligand.clash>
1.3782

> <Gold.PLP.ligand.torsion>
0.1208

> <Gold.PLP.Chemscore.Hbond>
0.8562

> <Gold.PLP.Chemscore.CHOScore>
0.0000

> <Gold.PLP.Chemscore.Metal>
0.0000

> <Gold.Chemscore.Hbonds>
donor molecule, donor type, donor heavy atom, donor atom, acceptor molecule, acceptor atom, score
      P1  H 11671 11743       L1    17  0.07
      P1  H 19323 19381       L1    17  1.00

> <Gold.PLP.Chemscore.Internal.Correction>
   9.000000E+99

