#       Name:                CT1002167954
#       Creating user name   hitesit
#       Creation time:       Sun Apr 16 20:18:29 2023


#       File generated by GOLD software.
#

@<TRIPOS>MOLECULE
CT1002167954|ligand_prepared|mol2|1|dock2
    29    30     1
SMALL
NO_CHARGES


@<TRIPOS>ATOM
      1 C1         207.4696  29.3254  71.6727 C.3            1 RES1               0.0000
      2 C2         207.6559  30.7422  71.0925 C.ar           1 RES1               0.0000
      3 C3         208.8004  28.9477  72.3165 C.2            1 RES1               0.0000
      4 C4         206.3069  29.4162  72.6549 C.2            1 RES1               0.0000
      5 C5         207.1165  28.2572  70.6118 C.3            1 RES1               0.0000
      6 C6         207.1080  31.8487  71.7346 C.ar           1 RES1               0.0000
      7 C7         208.3740  30.9585  69.9194 C.ar           1 RES1               0.0000
      8 N8         208.8667  28.9508  73.6787 N.am           1 RES1               0.0000
      9 O9         209.7876  28.6896  71.6390 O.2            1 RES1               0.0000
     10 N10        206.5711  29.2093  73.9835 N.am           1 RES1               0.0000
     11 O11        205.1674  29.6813  72.2922 O.2            1 RES1               0.0000
     12 C12        206.9938  26.8503  71.1755 C.3            1 RES1               0.0000
     13 C13        207.2745  33.1254  71.2243 C.ar           1 RES1               0.0000
     14 C14        208.5391  32.2362  69.4106 C.ar           1 RES1               0.0000
     15 C15        207.8037  29.0111  74.5435 C.2            1 RES1               0.0000
     16 C16        207.9904  33.3201  70.0623 C.ar           1 RES1               0.0000
     17 O17        207.9676  28.8873  75.7539 O.2            1 RES1               0.0000
     18 H18        206.1663  28.5315  70.1371 H              1 RES1               0.0000
     19 H19        207.8920  28.2602  69.8359 H              1 RES1               0.0000
     20 H20        206.5394  31.7147  72.6488 H              1 RES1               0.0000
     21 H21        208.8136  30.1206  69.3892 H              1 RES1               0.0000
     22 H22        209.7924  28.9040  74.0926 H              1 RES1               0.0000
     23 H23        205.7751  29.2023  74.6133 H              1 RES1               0.0000
     24 H24        206.7450  26.1402  70.3896 H              1 RES1               0.0000
     25 H25        207.9292  26.5352  71.6332 H              1 RES1               0.0000
     26 H26        206.2137  26.8048  71.9326 H              1 RES1               0.0000
     27 H27        206.8396  33.9750  71.7402 H              1 RES1               0.0000
     28 H28        209.1028  32.3846  68.4954 H              1 RES1               0.0000
     29 H29        208.1210  34.3204  69.6629 H              1 RES1               0.0000
@<TRIPOS>BOND
    1    1    2 1     
    2    1    3 1     
    3    1    4 1     
    4    1    5 1     
    5    2    6 ar    
    6    2    7 ar    
    7    3    8 1     
    8    3    9 2     
    9    4   10 1     
   10    4   11 2     
   11    5   12 1     
   12    5   18 1     
   13    5   19 1     
   14    6   13 ar    
   15    6   20 1     
   16    7   14 ar    
   17    7   21 1     
   18    8   15 1     
   19    8   22 1     
   20   10   15 1     
   21   10   23 1     
   22   12   24 1     
   23   12   25 1     
   24   12   26 1     
   25   13   16 ar    
   26   13   27 1     
   27   14   16 ar    
   28   14   28 1     
   29   15   17 2     
   30   16   29 1     
@<TRIPOS>SUBSTRUCTURE
      1 RES1           1
@<TRIPOS>SET
DONOR_HYDROGENS      STATIC     ATOMS    <user>   **** ""
2 22 23
ATOM$RED        STATIC     ATOMS    COLORGROUP SYSTEM
2 22 23
@<TRIPOS>COMMENT
> <Gold.Version>
2022.3.0

> <Gold.Id.Protein>
unknown|4d1n_clean|pdb

> <Gold.Protein.RotatedTorsions>
[ 16977 16932 16931 16929 ] final  -82.89 input   60.00 | X-H torsion
[ 18485 18440 18439 18437 ] final    1.48 input   60.00 | X-H torsion
[ 10110 10082 10081 10078 ] final  -50.75 input   59.99 | X-H torsion
[ 18289 18266 18265 18262 ] final  112.29 input   60.03 | X-H torsion
[ 18650 18615 18613 18610 ] final  149.32 input   59.98 | X-H torsion
[ 11435 11402 11401 11398 ] final   20.77 input   60.03 | X-H torsion

> <Gold.Protein.ActiveResidues>
 TRP414  CYS420  VAL421  GLY422  LEU460  SER462  SER482  GLN483  ILE485  ARG486 
 TYR487  ASP500  ASN503  TRP566  TYR567  LEU569  PRO570  ALA571  VAL572  SER573 
 ASN574  PHE589  SER590  GLY591  TRP592  TYR593  MET594  GLY595  THR596  GLU597 
 ILE598  GLY599  VAL600  ARG601  ASP602  TYR603  ARG608  ILE653  VAL654  TRP683 
 PRO687  HEM750  H4B760 

> <Gold.Protein.RotatedAtoms>
  205.7956   44.0891   69.9886 H   0  0  0  0  0  0  0  0  0  0  0  0  # atno 10110 bound_to 10082
  215.0130   29.7642   75.3861 H   0  0  0  0  0  0  0  0  0  0  0  0  # atno 11435 bound_to 11402
  207.8329   31.2159   76.9753 H   0  0  0  0  0  0  0  0  0  0  0  0  # atno 16977 bound_to 16932
  209.5290   42.8125   74.3194 H   0  0  0  0  0  0  0  0  0  0  0  0  # atno 18289 bound_to 18266
  206.2368   32.0717   75.4993 H   0  0  0  0  0  0  0  0  0  0  0  0  # atno 18485 bound_to 18440
  198.0502   29.6878   68.1896 H   0  0  0  0  0  0  0  0  0  0  0  0  # atno 18650 bound_to 18615
  209.0968   30.7065   77.8647 LP  0  0  0  0  0  0  0  0  0  0  0  0  # atno 27195 bound_to 16932
  209.2228   32.0620   76.9628 LP  0  0  0  0  0  0  0  0  0  0  0  0  # atno 27196 bound_to 16932
  205.7213   32.3074   77.0248 LP  0  0  0  0  0  0  0  0  0  0  0  0  # atno 27197 bound_to 18440
  206.7099   33.3972   76.3165 LP  0  0  0  0  0  0  0  0  0  0  0  0  # atno 27198 bound_to 18440
  205.6095   44.6650   68.4779 LP  0  0  0  0  0  0  0  0  0  0  0  0  # atno 27253 bound_to 10082
  205.1208   45.5520   69.7589 LP  0  0  0  0  0  0  0  0  0  0  0  0  # atno 27254 bound_to 10082
  210.5086   42.8438   73.0203 LP  0  0  0  0  0  0  0  0  0  0  0  0  # atno 27255 bound_to 18266
  211.0807   42.3445   74.4660 LP  0  0  0  0  0  0  0  0  0  0  0  0  # atno 27256 bound_to 18266

> <Gold.Score>
     Fitness  S(hb_ext) S(vdw_ext)  S(hb_int)    S(int)      intcor
     33.05       5.51      21.72       0.00      -2.32      -0.81

> <Gold.Goldscore.Fitness>
33.0498

> <Gold.Goldscore.Internal.Vdw>
-2.7498

> <Gold.Goldscore.Internal.Torsion>
-0.3799

> <Gold.Goldscore.External.Vdw>
21.7187

> <Gold.Goldscore.Internal.HBond>
0.0000

> <Gold.Goldscore.External.HBond>
5.5105

> <Gold.Goldscore.Internal.Correction>
-0.8059

> <Gold.Goldscore.Hbonds>
donor molecule, donor type, donor heavy atom, donor atom, acceptor molecule, acceptor atom, score
      P1  H 11671 11743       L1    17  0.23
      P1  H 19323 19381       L1    17  0.10
      L1  H    10    23       P1 18996  0.58

> <Gold.Goldscore.Internal.Vdw.Weighted>
-2.7498

> <Gold.Goldscore.Internal.Torsion.Weighted>
-0.3799

> <Gold.Goldscore.External.Vdw.Weighted>
29.8632

> <Gold.Goldscore.Internal.HBond.Weighted>
0.0000

> <Gold.Goldscore.External.HBond.Weighted>
5.5105

> <Gold.Goldscore.Internal.Correction.Weighted>
-0.8059

> <Gold.Rescore>
     Score     S(PLP)   S(hbond)     S(cho)   S(metal)  DE(clash)   DE(tors)     intcor
     19.54     -14.97       2.32       0.00       0.00       0.72       0.83       ----

> <Gold.PLP.Fitness>
19.5394

> <Gold.PLP.PLP>
-14.9695

> <Gold.PLP.part.hbond>
-4.1431

> <Gold.PLP.part.metal>
0.0000

> <Gold.PLP.part.buried>
10.8571

> <Gold.PLP.part.nonpolar>
-27.4053

> <Gold.PLP.part.repulsive>
4.5084

> <Gold.PLP.ligand.clash>
0.7234

> <Gold.PLP.ligand.torsion>
0.8334

> <Gold.PLP.Chemscore.Hbond>
2.3200

> <Gold.PLP.Chemscore.CHOScore>
0.0000

> <Gold.PLP.Chemscore.Metal>
0.0000

> <Gold.Chemscore.Hbonds>
donor molecule, donor type, donor heavy atom, donor atom, acceptor molecule, acceptor atom, score
      L1  H    10    23       P1 18996  0.70
      P1  H 11671 11743       L1    17  0.08
      P1  H 19323 19381       L1    17  0.85

> <Gold.PLP.Chemscore.Internal.Correction>
   9.000000E+99

