#       Name:                CT1002167954
#       Creating user name   hitesit
#       Creation time:       Sun Apr 16 20:18:30 2023


#       File generated by GOLD software.
#

@<TRIPOS>MOLECULE
CT1002167954|ligand_prepared|mol2|1|dock4
    29    30     1
SMALL
NO_CHARGES


@<TRIPOS>ATOM
      1 C1         209.3867  27.0508  69.9735 C.3            1 RES1               0.0000
      2 C2         207.9813  27.3382  70.5400 C.ar           1 RES1               0.0000
      3 C3         210.3448  27.9804  70.7123 C.2            1 RES1               0.0000
      4 C4         209.6488  25.5682  70.2142 C.2            1 RES1               0.0000
      5 C5         209.5152  27.3183  68.4558 C.3            1 RES1               0.0000
      6 C6         207.8278  28.0352  71.7347 C.ar           1 RES1               0.0000
      7 C7         206.8309  26.9157  69.8792 C.ar           1 RES1               0.0000
      8 N8         211.1618  27.4272  71.6538 N.am           1 RES1               0.0000
      9 O9         210.3556  29.1867  70.5002 O.2            1 RES1               0.0000
     10 N10        210.6514  25.2263  71.0835 N.am           1 RES1               0.0000
     11 O11        208.9851  24.6932  69.6718 O.2            1 RES1               0.0000
     12 C12        210.9363  27.1931  67.9293 C.3            1 RES1               0.0000
     13 C13        206.5698  28.3028  72.2487 C.ar           1 RES1               0.0000
     14 C14        205.5738  27.1842  70.3950 C.ar           1 RES1               0.0000
     15 C15        211.3994  26.0888  71.8377 C.2            1 RES1               0.0000
     16 C16        205.4421  27.8780  71.5791 C.ar           1 RES1               0.0000
     17 O17        212.2461  25.7028  72.6385 O.2            1 RES1               0.0000
     18 H18        208.8752  26.6090  67.9167 H              1 RES1               0.0000
     19 H19        209.1479  28.3299  68.2432 H              1 RES1               0.0000
     20 H20        208.7038  28.3753  72.2770 H              1 RES1               0.0000
     21 H21        206.9104  26.3674  68.9466 H              1 RES1               0.0000
     22 H22        211.6402  28.0679  72.2791 H              1 RES1               0.0000
     23 H23        210.8594  24.2372  71.1770 H              1 RES1               0.0000
     24 H24        210.9702  27.3906  66.8599 H              1 RES1               0.0000
     25 H25        211.5955  27.9020  68.4259 H              1 RES1               0.0000
     26 H26        211.3244  26.1913  68.1014 H              1 RES1               0.0000
     27 H27        206.4716  28.8480  73.1817 H              1 RES1               0.0000
     28 H28        204.6890  26.8474  69.8650 H              1 RES1               0.0000
     29 H29        204.4567  28.0881  71.9818 H              1 RES1               0.0000
@<TRIPOS>BOND
    1    1    2 1     
    2    1    3 1     
    3    1    4 1     
    4    1    5 1     
    5    2    6 ar    
    6    2    7 ar    
    7    3    8 1     
    8    3    9 2     
    9    4   10 1     
   10    4   11 2     
   11    5   12 1     
   12    5   18 1     
   13    5   19 1     
   14    6   13 ar    
   15    6   20 1     
   16    7   14 ar    
   17    7   21 1     
   18    8   15 1     
   19    8   22 1     
   20   10   15 1     
   21   10   23 1     
   22   12   24 1     
   23   12   25 1     
   24   12   26 1     
   25   13   16 ar    
   26   13   27 1     
   27   14   16 ar    
   28   14   28 1     
   29   15   17 2     
   30   16   29 1     
@<TRIPOS>SUBSTRUCTURE
      1 RES1           1
@<TRIPOS>SET
DONOR_HYDROGENS      STATIC     ATOMS    <user>   **** ""
2 22 23
ATOM$RED        STATIC     ATOMS    COLORGROUP SYSTEM
2 22 23
@<TRIPOS>COMMENT
> <Gold.Version>
2022.3.0

> <Gold.Id.Protein>
unknown|4d1n_clean|pdb

> <Gold.Protein.RotatedTorsions>
[ 16977 16932 16931 16929 ] final  118.60 input   60.00 | X-H torsion
[ 18485 18440 18439 18437 ] final  154.00 input   60.00 | X-H torsion
[ 10110 10082 10081 10078 ] final   -7.08 input   59.99 | X-H torsion
[ 18289 18266 18265 18262 ] final  102.60 input   60.03 | X-H torsion
[ 18650 18615 18613 18610 ] final  -88.00 input   59.98 | X-H torsion
[ 11435 11402 11401 11398 ] final  -51.17 input   60.03 | X-H torsion

> <Gold.Protein.ActiveResidues>
 TRP414  CYS420  VAL421  GLY422  LEU460  SER462  SER482  GLN483  ILE485  ARG486 
 TYR487  ASP500  ASN503  TRP566  TYR567  LEU569  PRO570  ALA571  VAL572  SER573 
 ASN574  PHE589  SER590  GLY591  TRP592  TYR593  MET594  GLY595  THR596  GLU597 
 ILE598  GLY599  VAL600  ARG601  ASP602  TYR603  ARG608  ILE653  VAL654  TRP683 
 PRO687  HEM750  H4B760 

> <Gold.Protein.RotatedAtoms>
  205.5234   44.6280   70.3357 H   0  0  0  0  0  0  0  0  0  0  0  0  # atno 10110 bound_to 10082
  215.8207   29.0495   75.6003 H   0  0  0  0  0  0  0  0  0  0  0  0  # atno 11435 bound_to 11402
  209.5093   31.1486   77.7292 H   0  0  0  0  0  0  0  0  0  0  0  0  # atno 16977 bound_to 16932
  209.4857   42.8587   74.1743 H   0  0  0  0  0  0  0  0  0  0  0  0  # atno 18289 bound_to 18266
  206.4699   33.3409   76.7814 H   0  0  0  0  0  0  0  0  0  0  0  0  # atno 18485 bound_to 18440
  197.2870   30.8948   69.0026 H   0  0  0  0  0  0  0  0  0  0  0  0  # atno 18650 bound_to 18615
  208.6558   32.0847   76.7078 LP  0  0  0  0  0  0  0  0  0  0  0  0  # atno 27195 bound_to 16932
  207.9750   30.7515   77.3603 LP  0  0  0  0  0  0  0  0  0  0  0  0  # atno 27196 bound_to 16932
  206.5428   32.4875   75.3976 LP  0  0  0  0  0  0  0  0  0  0  0  0  # atno 27197 bound_to 18440
  205.6537   31.9389   76.6526 LP  0  0  0  0  0  0  0  0  0  0  0  0  # atno 27198 bound_to 18440
  205.8503   44.1077   68.8288 LP  0  0  0  0  0  0  0  0  0  0  0  0  # atno 27253 bound_to 10082
  205.1540   45.5668   69.0587 LP  0  0  0  0  0  0  0  0  0  0  0  0  # atno 27254 bound_to 10082
  210.6580   42.7955   73.0473 LP  0  0  0  0  0  0  0  0  0  0  0  0  # atno 27255 bound_to 18266
  210.9748   42.3464   74.5851 LP  0  0  0  0  0  0  0  0  0  0  0  0  # atno 27256 bound_to 18266

> <Gold.Score>
     Fitness  S(hb_ext) S(vdw_ext)  S(hb_int)    S(int)      intcor
     25.15       3.00      17.20       0.00      -1.49      -0.77

> <Gold.Goldscore.Fitness>
25.1540

> <Gold.Goldscore.Internal.Vdw>
-1.8117

> <Gold.Goldscore.Internal.Torsion>
-0.4433

> <Gold.Goldscore.External.Vdw>
17.1953

> <Gold.Goldscore.Internal.HBond>
0.0000

> <Gold.Goldscore.External.HBond>
2.9969

> <Gold.Goldscore.Internal.Correction>
-0.7686

> <Gold.Goldscore.Hbonds>
donor molecule, donor type, donor heavy atom, donor atom, acceptor molecule, acceptor atom, score
      P1  H 11671 11742       L1    17  0.10
      P1  H 11670 11740       L1    17  0.40

> <Gold.Goldscore.Internal.Vdw.Weighted>
-1.8117

> <Gold.Goldscore.Internal.Torsion.Weighted>
-0.4433

> <Gold.Goldscore.External.Vdw.Weighted>
23.6435

> <Gold.Goldscore.Internal.HBond.Weighted>
0.0000

> <Gold.Goldscore.External.HBond.Weighted>
2.9969

> <Gold.Goldscore.Internal.Correction.Weighted>
-0.7686

> <Gold.Rescore>
     Score     S(PLP)   S(hbond)     S(cho)   S(metal)  DE(clash)   DE(tors)     intcor
     22.59     -20.91       1.25       0.00       0.00       2.04       0.01       ----

> <Gold.PLP.Fitness>
22.5941

> <Gold.PLP.PLP>
-20.9093

> <Gold.PLP.part.hbond>
-2.0000

> <Gold.PLP.part.metal>
0.0000

> <Gold.PLP.part.buried>
-3.9483

> <Gold.PLP.part.nonpolar>
-16.1863

> <Gold.PLP.part.repulsive>
0.4037

> <Gold.PLP.ligand.clash>
2.0448

> <Gold.PLP.ligand.torsion>
0.0144

> <Gold.PLP.Chemscore.Hbond>
1.2528

> <Gold.PLP.Chemscore.CHOScore>
0.0000

> <Gold.PLP.Chemscore.Metal>
0.0000

> <Gold.Chemscore.Hbonds>
donor molecule, donor type, donor heavy atom, donor atom, acceptor molecule, acceptor atom, score
      P1  H 11671 11742       L1    17  0.05
      P1  H 11670 11740       L1    17  1.00

> <Gold.PLP.Chemscore.Internal.Correction>
   9.000000E+99

