#       Name:                CT1002167954
#       Creating user name   hitesit
#       Creation time:       Sun Apr 16 20:18:34 2023


#       File generated by GOLD software.
#

@<TRIPOS>MOLECULE
CT1002167954|ligand_prepared|mol2|1|dock10
    29    30     1
SMALL
NO_CHARGES


@<TRIPOS>ATOM
      1 C1         207.9184  34.8897  70.0030 C.3            1 RES1               0.0000
      2 C2         206.8452  35.9973  69.9903 C.ar           1 RES1               0.0000
      3 C3         208.5027  34.8754  71.4125 C.2            1 RES1               0.0000
      4 C4         207.2052  33.6000  69.6122 C.2            1 RES1               0.0000
      5 C5         209.0692  35.1230  68.9966 C.3            1 RES1               0.0000
      6 C6         207.2085  37.3344  69.8602 C.ar           1 RES1               0.0000
      7 C7         205.4903  35.6978  70.1047 C.ar           1 RES1               0.0000
      8 N8         208.1498  33.8444  72.2324 N.am           1 RES1               0.0000
      9 O9         209.2306  35.7761  71.8117 O.2            1 RES1               0.0000
     10 N10        207.1142  32.6065  70.5516 N.am           1 RES1               0.0000
     11 O11        206.7066  33.4417  68.5047 O.2            1 RES1               0.0000
     12 C12        208.6015  35.5968  67.6296 C.3            1 RES1               0.0000
     13 C13        206.2517  38.3357  69.8422 C.ar           1 RES1               0.0000
     14 C14        204.5352  36.7007  70.0866 C.ar           1 RES1               0.0000
     15 C15        207.5273  32.6821  71.8539 C.2            1 RES1               0.0000
     16 C16        204.9146  38.0196  69.9550 C.ar           1 RES1               0.0000
     17 O17        207.3616  31.7659  72.6540 O.2            1 RES1               0.0000
     18 H18        209.7565  35.8698  69.4131 H              1 RES1               0.0000
     19 H19        209.6264  34.1861  68.8739 H              1 RES1               0.0000
     20 H20        208.2561  37.6026  69.7728 H              1 RES1               0.0000
     21 H21        205.1687  34.6673  70.2103 H              1 RES1               0.0000
     22 H22        208.3689  33.9470  73.2182 H              1 RES1               0.0000
     23 H23        206.7004  31.7293  70.2523 H              1 RES1               0.0000
     24 H24        209.4480  35.7451  66.9623 H              1 RES1               0.0000
     25 H25        207.9357  34.8662  67.1750 H              1 RES1               0.0000
     26 H26        208.0649  36.5399  67.7110 H              1 RES1               0.0000
     27 H27        206.5556  39.3723  69.7398 H              1 RES1               0.0000
     28 H28        203.4840  36.4474  70.1763 H              1 RES1               0.0000
     29 H29        204.1652  38.8042  69.9404 H              1 RES1               0.0000
@<TRIPOS>BOND
    1    1    2 1     
    2    1    3 1     
    3    1    4 1     
    4    1    5 1     
    5    2    6 ar    
    6    2    7 ar    
    7    3    8 1     
    8    3    9 2     
    9    4   10 1     
   10    4   11 2     
   11    5   12 1     
   12    5   18 1     
   13    5   19 1     
   14    6   13 ar    
   15    6   20 1     
   16    7   14 ar    
   17    7   21 1     
   18    8   15 1     
   19    8   22 1     
   20   10   15 1     
   21   10   23 1     
   22   12   24 1     
   23   12   25 1     
   24   12   26 1     
   25   13   16 ar    
   26   13   27 1     
   27   14   16 ar    
   28   14   28 1     
   29   15   17 2     
   30   16   29 1     
@<TRIPOS>SUBSTRUCTURE
      1 RES1           1
@<TRIPOS>SET
DONOR_HYDROGENS      STATIC     ATOMS    <user>   **** ""
2 22 23
ATOM$RED        STATIC     ATOMS    COLORGROUP SYSTEM
2 22 23
@<TRIPOS>COMMENT
> <Gold.Version>
2022.3.0

> <Gold.Id.Protein>
unknown|4d1n_clean|pdb

> <Gold.Protein.RotatedTorsions>
[ 16977 16932 16931 16929 ] final  117.42 input   60.00 | X-H torsion
[ 18485 18440 18439 18437 ] final  -43.19 input   60.00 | X-H torsion
[ 10110 10082 10081 10078 ] final  110.29 input   59.99 | X-H torsion
[ 18289 18266 18265 18262 ] final  140.85 input   60.03 | X-H torsion
[ 18650 18615 18613 18610 ] final   38.11 input   59.98 | X-H torsion
[ 11435 11402 11401 11398 ] final -158.18 input   60.03 | X-H torsion

> <Gold.Protein.ActiveResidues>
 TRP414  CYS420  VAL421  GLY422  LEU460  SER462  SER482  GLN483  ILE485  ARG486 
 TYR487  ASP500  ASN503  TRP566  TYR567  LEU569  PRO570  ALA571  VAL572  SER573 
 ASN574  PHE589  SER590  GLY591  TRP592  TYR593  MET594  GLY595  THR596  GLU597 
 ILE598  GLY599  VAL600  ARG601  ASP602  TYR603  ARG608  ILE653  VAL654  TRP683 
 PRO687  HEM750  H4B760 

> <Gold.Protein.RotatedAtoms>
  205.1505   45.5753   69.1013 H   0  0  0  0  0  0  0  0  0  0  0  0  # atno 10110 bound_to 10082
  215.1378   28.0046   74.7593 H   0  0  0  0  0  0  0  0  0  0  0  0  # atno 11435 bound_to 11402
  209.5171   31.1643   77.7214 H   0  0  0  0  0  0  0  0  0  0  0  0  # atno 16977 bound_to 16932
  209.7881   42.6578   74.6689 H   0  0  0  0  0  0  0  0  0  0  0  0  # atno 18289 bound_to 18266
  205.8340   31.7826   76.0097 H   0  0  0  0  0  0  0  0  0  0  0  0  # atno 18485 bound_to 18440
  198.8020   30.3093   69.3881 H   0  0  0  0  0  0  0  0  0  0  0  0  # atno 18650 bound_to 18615
  208.6377   32.0799   76.7035 LP  0  0  0  0  0  0  0  0  0  0  0  0  # atno 27195 bound_to 16932
  207.9853   30.7406   77.3723 LP  0  0  0  0  0  0  0  0  0  0  0  0  # atno 27196 bound_to 16932
  206.0577   32.9290   77.1429 LP  0  0  0  0  0  0  0  0  0  0  0  0  # atno 27197 bound_to 18440
  206.7792   33.0668   75.6844 LP  0  0  0  0  0  0  0  0  0  0  0  0  # atno 27198 bound_to 18440
  205.5394   44.5875   70.3348 LP  0  0  0  0  0  0  0  0  0  0  0  0  # atno 27253 bound_to 10082
  205.8402   44.1333   68.7953 LP  0  0  0  0  0  0  0  0  0  0  0  0  # atno 27254 bound_to 10082
  210.0623   42.9525   73.0921 LP  0  0  0  0  0  0  0  0  0  0  0  0  # atno 27255 bound_to 18266
  211.2661   42.3916   74.0422 LP  0  0  0  0  0  0  0  0  0  0  0  0  # atno 27256 bound_to 18266

> <Gold.Score>
     Fitness  S(hb_ext) S(vdw_ext)  S(hb_int)    S(int)      intcor
     34.72       0.00      27.61       0.00      -3.24      -0.76

> <Gold.Goldscore.Fitness>
34.7235

> <Gold.Goldscore.Internal.Vdw>
-3.2189

> <Gold.Goldscore.Internal.Torsion>
-0.7775

> <Gold.Goldscore.External.Vdw>
27.6082

> <Gold.Goldscore.Internal.HBond>
0.0000

> <Gold.Goldscore.External.HBond>
0.0000

> <Gold.Goldscore.Internal.Correction>
-0.7585

> <Gold.Goldscore.Internal.Vdw.Weighted>
-3.2189

> <Gold.Goldscore.Internal.Torsion.Weighted>
-0.7775

> <Gold.Goldscore.External.Vdw.Weighted>
37.9613

> <Gold.Goldscore.Internal.HBond.Weighted>
0.0000

> <Gold.Goldscore.External.HBond.Weighted>
0.0000

> <Gold.Goldscore.Internal.Correction.Weighted>
-0.7585

> <Gold.Rescore>
     Score     S(PLP)   S(hbond)     S(cho)   S(metal)  DE(clash)   DE(tors)     intcor
     30.77     -31.00       0.78       0.00       0.00       0.75       0.91       ----

> <Gold.PLP.Fitness>
30.7730

> <Gold.PLP.PLP>
-31.0046

> <Gold.PLP.part.hbond>
-4.0512

> <Gold.PLP.part.metal>
0.0000

> <Gold.PLP.part.buried>
16.6923

> <Gold.PLP.part.nonpolar>
-49.9224

> <Gold.PLP.part.repulsive>
4.8398

> <Gold.PLP.ligand.clash>
0.7543

> <Gold.PLP.ligand.torsion>
0.9118

> <Gold.PLP.Chemscore.Hbond>
0.7821

> <Gold.PLP.Chemscore.CHOScore>
0.0000

> <Gold.PLP.Chemscore.Metal>
0.0000

> <Gold.Chemscore.Hbonds>
donor molecule, donor type, donor heavy atom, donor atom, acceptor molecule, acceptor atom, score
      P1  H 11448 11498       L1    17  0.28
      P1  H 17205 17233       L1     9  0.01

> <Gold.PLP.Chemscore.Internal.Correction>
   9.000000E+99

