#       Name:                GA Fitting Points
#       Creating user name   hitesit
#       Creation time:       Sun Apr 16 02:22:08 2023


#       Fitting Points Used by GA Software.
#

@<TRIPOS>MOLECULE
GA Fitting Points
  2090    0    0
SMALL
NO_CHARGES


@<TRIPOS>ATOM
      1 ****         4.5000  24.2500  -6.7500 Du        
      2 ****         4.7500  23.7500  -7.0000 Du        
      3 ****         4.7500  23.7500  -6.7500 Du        
      4 ****         4.7500  23.7500  -6.5000 Du        
      5 ****         4.7500  24.0000  -7.2500 Du        
      6 ****         4.7500  24.0000  -7.0000 Du        
      7 ****         4.7500  24.0000  -6.7500 Du        
      8 ****         4.7500  24.0000  -6.5000 Du        
      9 ****         4.7500  24.0000  -6.2500 Du        
     10 ****         4.7500  24.2500  -7.2500 Du        
     11 ****         4.7500  24.2500  -7.0000 Du        
     12 ****         4.7500  24.2500  -6.7500 Du        
     13 ****         4.7500  24.2500  -6.5000 Du        
     14 ****         4.7500  24.2500  -6.2500 Du        
     15 ****         5.0000  23.5000  -6.7500 Du        
     16 ****         5.0000  23.5000  -6.5000 Du        
     17 ****         5.0000  23.5000  -6.2500 Du        
     18 ****         5.0000  23.5000  -6.0000 Du        
     19 ****         5.0000  23.7500  -7.0000 Du        
     20 ****         5.0000  23.7500  -6.7500 Du        
     21 ****         5.0000  23.7500  -6.5000 Du        
     22 ****         5.0000  23.7500  -6.2500 Du        
     23 ****         5.0000  23.7500  -6.0000 Du        
     24 ****         5.0000  24.0000  -7.2500 Du        
     25 ****         5.0000  24.0000  -7.0000 Du        
     26 ****         5.0000  24.0000  -6.7500 Du        
     27 ****         5.0000  24.0000  -6.5000 Du        
     28 ****         5.0000  24.0000  -6.2500 Du        
     29 ****         5.0000  24.0000  -6.0000 Du        
     30 ****         5.0000  24.0000  -5.7500 Du        
     31 ****         5.0000  24.2500  -7.2500 Du        
     32 ****         5.0000  24.2500  -7.0000 Du        
     33 ****         5.0000  24.2500  -6.7500 Du        
     34 ****         5.0000  24.2500  -6.5000 Du        
     35 ****         5.0000  24.2500  -6.2500 Du        
     36 ****         5.0000  24.2500  -6.0000 Du        
     37 ****         5.0000  24.2500  -5.7500 Du        
     38 ****         5.2500  23.0000  -6.2500 Du        
     39 ****         5.2500  23.0000  -6.0000 Du        
     40 ****         5.2500  23.2500  -6.5000 Du        
     41 ****         5.2500  23.2500  -6.2500 Du        
     42 ****         5.2500  23.2500  -6.0000 Du        
     43 ****         5.2500  23.2500  -5.7500 Du        
     44 ****         5.2500  23.5000  -6.7500 Du        
     45 ****         5.2500  23.5000  -6.5000 Du        
     46 ****         5.2500  23.5000  -6.2500 Du        
     47 ****         5.2500  23.5000  -6.0000 Du        
     48 ****         5.2500  23.5000  -5.7500 Du        
     49 ****         5.2500  23.7500  -7.0000 Du        
     50 ****         5.2500  23.7500  -6.7500 Du        
     51 ****         5.2500  23.7500  -6.5000 Du        
     52 ****         5.2500  23.7500  -6.2500 Du        
     53 ****         5.2500  23.7500  -6.0000 Du        
     54 ****         5.2500  23.7500  -5.7500 Du        
     55 ****         5.2500  23.7500  -5.5000 Du        
     56 ****         5.2500  24.0000  -7.2500 Du        
     57 ****         5.2500  24.0000  -7.0000 Du        
     58 ****         5.2500  24.0000  -6.7500 Du        
     59 ****         5.2500  24.0000  -6.5000 Du        
     60 ****         5.2500  24.0000  -6.2500 Du        
     61 ****         5.2500  24.0000  -6.0000 Du        
     62 ****         5.2500  24.0000  -5.7500 Du        
     63 ****         5.2500  24.0000  -5.5000 Du        
     64 ****         5.2500  24.2500  -7.2500 Du        
     65 ****         5.2500  24.2500  -7.0000 Du        
     66 ****         5.2500  24.2500  -6.7500 Du        
     67 ****         5.2500  24.2500  -6.5000 Du        
     68 ****         5.2500  24.2500  -6.2500 Du        
     69 ****         5.2500  24.2500  -6.0000 Du        
     70 ****         5.2500  24.2500  -5.7500 Du        
     71 ****         5.2500  24.2500  -5.5000 Du        
     72 ****         5.5000  22.2500  -5.5000 Du        
     73 ****         5.5000  22.5000  -5.5000 Du        
     74 ****         5.5000  22.7500  -6.0000 Du        
     75 ****         5.5000  22.7500  -5.7500 Du        
     76 ****         5.5000  22.7500  -5.5000 Du        
     77 ****         5.5000  22.7500  -5.2500 Du        
     78 ****         5.5000  23.0000  -6.2500 Du        
     79 ****         5.5000  23.0000  -6.0000 Du        
     80 ****         5.5000  23.0000  -5.7500 Du        
     81 ****         5.5000  23.0000  -5.5000 Du        
     82 ****         5.5000  23.0000  -5.2500 Du        
     83 ****         5.5000  23.2500  -6.5000 Du        
     84 ****         5.5000  23.2500  -6.2500 Du        
     85 ****         5.5000  23.2500  -6.0000 Du        
     86 ****         5.5000  23.2500  -5.7500 Du        
     87 ****         5.5000  23.2500  -5.5000 Du        
     88 ****         5.5000  23.2500  -5.2500 Du        
     89 ****         5.5000  23.5000  -6.5000 Du        
     90 ****         5.5000  23.5000  -6.2500 Du        
     91 ****         5.5000  23.5000  -6.0000 Du        
     92 ****         5.5000  23.5000  -5.7500 Du        
     93 ****         5.5000  23.5000  -5.5000 Du        
     94 ****         5.5000  23.7500  -6.7500 Du        
     95 ****         5.5000  23.7500  -6.5000 Du        
     96 ****         5.5000  23.7500  -6.2500 Du        
     97 ****         5.5000  23.7500  -6.0000 Du        
     98 ****         5.5000  23.7500  -5.7500 Du        
     99 ****         5.5000  23.7500  -5.5000 Du        
    100 ****         5.5000  24.0000  -7.0000 Du        
    101 ****         5.5000  24.0000  -6.7500 Du        
    102 ****         5.5000  24.0000  -6.5000 Du        
    103 ****         5.5000  24.0000  -6.2500 Du        
    104 ****         5.5000  24.0000  -6.0000 Du        
    105 ****         5.5000  24.0000  -5.7500 Du        
    106 ****         5.5000  24.0000  -5.5000 Du        
    107 ****         5.5000  24.2500  -7.0000 Du        
    108 ****         5.5000  24.2500  -6.7500 Du        
    109 ****         5.5000  24.2500  -6.5000 Du        
    110 ****         5.5000  24.2500  -6.2500 Du        
    111 ****         5.5000  24.2500  -6.0000 Du        
    112 ****         5.5000  24.2500  -5.7500 Du        
    113 ****         5.5000  24.2500  -5.5000 Du        
    114 ****         5.5000  24.5000  -6.2500 Du        
    115 ****         5.5000  24.5000  -6.0000 Du        
    116 ****         5.5000  24.5000  -5.7500 Du        
    117 ****         5.5000  24.7500  -6.0000 Du        
    118 ****         5.5000  24.7500  -5.7500 Du        
    119 ****         5.7500  22.0000  -5.2500 Du        
    120 ****         5.7500  22.0000  -5.0000 Du        
    121 ****         5.7500  22.2500  -5.5000 Du        
    122 ****         5.7500  22.2500  -5.2500 Du        
    123 ****         5.7500  22.2500  -5.0000 Du        
    124 ****         5.7500  22.5000  -5.5000 Du        
    125 ****         5.7500  22.5000  -5.2500 Du        
    126 ****         5.7500  22.5000  -5.0000 Du        
    127 ****         5.7500  22.7500  -5.7500 Du        
    128 ****         5.7500  22.7500  -5.5000 Du        
    129 ****         5.7500  22.7500  -5.2500 Du        
    130 ****         5.7500  22.7500  -5.0000 Du        
    131 ****         5.7500  23.0000  -6.0000 Du        
    132 ****         5.7500  23.0000  -5.7500 Du        
    133 ****         5.7500  23.0000  -5.5000 Du        
    134 ****         5.7500  23.0000  -5.2500 Du        
    135 ****         5.7500  23.0000  -5.0000 Du        
    136 ****         5.7500  23.2500  -6.2500 Du        
    137 ****         5.7500  23.2500  -6.0000 Du        
    138 ****         5.7500  23.2500  -5.7500 Du        
    139 ****         5.7500  23.2500  -5.5000 Du        
    140 ****         5.7500  23.2500  -5.2500 Du        
    141 ****         5.7500  23.5000  -6.5000 Du        
    142 ****         5.7500  23.5000  -6.2500 Du        
    143 ****         5.7500  23.5000  -6.0000 Du        
    144 ****         5.7500  23.5000  -5.7500 Du        
    145 ****         5.7500  23.5000  -5.5000 Du        
    146 ****         5.7500  23.5000  -5.2500 Du        
    147 ****         5.7500  23.7500  -6.5000 Du        
    148 ****         5.7500  23.7500  -6.2500 Du        
    149 ****         5.7500  23.7500  -6.0000 Du        
    150 ****         5.7500  23.7500  -5.7500 Du        
    151 ****         5.7500  23.7500  -5.5000 Du        
    152 ****         5.7500  24.0000  -6.7500 Du        
    153 ****         5.7500  24.0000  -6.5000 Du        
    154 ****         5.7500  24.0000  -6.2500 Du        
    155 ****         5.7500  24.0000  -6.0000 Du        
    156 ****         5.7500  24.0000  -5.7500 Du        
    157 ****         5.7500  24.0000  -5.5000 Du        
    158 ****         5.7500  24.2500  -6.5000 Du        
    159 ****         5.7500  24.2500  -6.2500 Du        
    160 ****         5.7500  24.2500  -6.0000 Du        
    161 ****         5.7500  24.2500  -5.7500 Du        
    162 ****         5.7500  24.2500  -5.5000 Du        
    163 ****         5.7500  24.5000  -6.0000 Du        
    164 ****         5.7500  24.5000  -5.7500 Du        
    165 ****         6.0000  22.0000  -5.0000 Du        
    166 ****         6.0000  22.0000  -4.7500 Du        
    167 ****         6.0000  22.2500  -5.2500 Du        
    168 ****         6.0000  22.2500  -5.0000 Du        
    169 ****         6.0000  22.5000  -5.2500 Du        
    170 ****         6.0000  22.5000  -5.0000 Du        
    171 ****         6.0000  22.7500  -5.5000 Du        
    172 ****         6.0000  22.7500  -5.2500 Du        
    173 ****         6.0000  22.7500  -5.0000 Du        
    174 ****         6.0000  23.0000  -5.7500 Du        
    175 ****         6.0000  23.0000  -5.5000 Du        
    176 ****         6.0000  23.0000  -5.2500 Du        
    177 ****         6.0000  23.0000  -5.0000 Du        
    178 ****         6.0000  23.2500  -6.0000 Du        
    179 ****         6.0000  23.2500  -5.7500 Du        
    180 ****         6.0000  23.2500  -5.5000 Du        
    181 ****         6.0000  23.2500  -5.2500 Du        
    182 ****         6.0000  23.5000  -6.0000 Du        
    183 ****         6.0000  23.5000  -5.7500 Du        
    184 ****         6.0000  23.5000  -5.5000 Du        
    185 ****         6.0000  23.7500  -6.2500 Du        
    186 ****         6.0000  23.7500  -6.0000 Du        
    187 ****         6.0000  23.7500  -5.7500 Du        
    188 ****         6.0000  23.7500  -5.5000 Du        
    189 ****         6.0000  24.0000  -6.5000 Du        
    190 ****         6.0000  24.0000  -6.2500 Du        
    191 ****         6.0000  24.0000  -6.0000 Du        
    192 ****         6.0000  24.0000  -5.7500 Du        
    193 ****         6.2500  23.2500  -5.5000 Du        
    194 ****         8.5000  20.7500 -13.7500 Du        
    195 ****         8.5000  21.0000 -13.7500 Du        
    196 ****         8.5000  21.0000 -13.5000 Du        
    197 ****         8.5000  21.2500 -13.5000 Du        
    198 ****         8.5000  21.2500 -13.2500 Du        
    199 ****         8.5000  21.7500 -13.0000 Du        
    200 ****         8.7500  20.7500 -14.0000 Du        
    201 ****         8.7500  20.7500 -13.7500 Du        
    202 ****         8.7500  20.7500 -13.5000 Du        
    203 ****         8.7500  21.0000 -13.7500 Du        
    204 ****         8.7500  21.0000 -13.5000 Du        
    205 ****         8.7500  21.0000 -13.2500 Du        
    206 ****         8.7500  21.2500 -13.7500 Du        
    207 ****         8.7500  21.2500 -13.5000 Du        
    208 ****         8.7500  21.2500 -13.2500 Du        
    209 ****         8.7500  21.2500 -13.0000 Du        
    210 ****         8.7500  21.5000 -13.0000 Du        
    211 ****         8.7500  21.7500 -13.0000 Du        
    212 ****         9.0000  20.5000 -13.7500 Du        
    213 ****         9.0000  20.5000 -13.5000 Du        
    214 ****         9.0000  20.7500 -14.0000 Du        
    215 ****         9.0000  20.7500 -13.7500 Du        
    216 ****         9.0000  20.7500 -13.5000 Du        
    217 ****         9.0000  20.7500 -13.2500 Du        
    218 ****         9.0000  21.0000 -13.7500 Du        
    219 ****         9.0000  21.0000 -13.5000 Du        
    220 ****         9.0000  21.0000 -13.2500 Du        
    221 ****         9.0000  21.2500 -13.7500 Du        
    222 ****         9.0000  21.2500 -13.5000 Du        
    223 ****         9.0000  21.2500 -13.2500 Du        
    224 ****         9.0000  21.2500 -13.0000 Du        
    225 ****         9.0000  21.5000 -13.2500 Du        
    226 ****         9.0000  21.5000 -13.0000 Du        
    227 ****         9.0000  21.7500 -13.0000 Du        
    228 ****         9.2500  20.5000 -13.7500 Du        
    229 ****         9.2500  20.5000 -13.5000 Du        
    230 ****         9.2500  20.7500 -13.7500 Du        
    231 ****         9.2500  20.7500 -13.5000 Du        
    232 ****         9.2500  20.7500 -13.2500 Du        
    233 ****         9.2500  21.0000 -13.7500 Du        
    234 ****         9.2500  21.0000 -13.5000 Du        
    235 ****         9.2500  21.0000 -13.2500 Du        
    236 ****         9.2500  21.0000 -13.0000 Du        
    237 ****         9.2500  21.2500 -13.5000 Du        
    238 ****         9.2500  21.2500 -13.2500 Du        
    239 ****         9.2500  21.2500 -13.0000 Du        
    240 ****         9.2500  21.5000 -13.2500 Du        
    241 ****         9.2500  21.5000 -13.0000 Du        
    242 ****         9.2500  21.7500 -13.0000 Du        
    243 ****         9.5000  20.5000 -13.5000 Du        
    244 ****         9.5000  20.5000 -13.2500 Du        
    245 ****         9.5000  20.7500 -13.5000 Du        
    246 ****         9.5000  20.7500 -13.2500 Du        
    247 ****         9.5000  21.0000 -13.5000 Du        
    248 ****         9.5000  21.0000 -13.2500 Du        
    249 ****         9.5000  21.0000 -13.0000 Du        
    250 ****         9.5000  21.2500 -13.5000 Du        
    251 ****         9.5000  21.2500 -13.2500 Du        
    252 ****         9.5000  21.2500 -13.0000 Du        
    253 ****         9.7500  20.5000 -13.5000 Du        
    254 ****         9.7500  20.5000 -13.2500 Du        
    255 ****         9.7500  20.7500 -13.5000 Du        
    256 ****         9.7500  20.7500 -13.2500 Du        
    257 ****         9.7500  20.7500 -13.0000 Du        
    258 ****         9.7500  21.0000 -13.5000 Du        
    259 ****         9.7500  21.0000 -13.2500 Du        
    260 ****         9.7500  21.0000 -13.0000 Du        
    261 ****         9.7500  21.2500 -13.2500 Du        
    262 ****         9.7500  21.2500 -13.0000 Du        
    263 ****        10.0000  20.5000 -13.5000 Du        
    264 ****        10.0000  20.7500 -13.5000 Du        
    265 ****        10.0000  20.7500 -13.2500 Du        
    266 ****        10.0000  20.7500 -13.0000 Du        
    267 ****        10.0000  21.0000 -13.5000 Du        
    268 ****        10.0000  21.0000 -13.2500 Du        
    269 ****        10.0000  21.0000 -13.0000 Du        
    270 ****        10.0000  21.0000 -12.7500 Du        
    271 ****        10.0000  21.2500 -13.2500 Du        
    272 ****        10.0000  21.2500 -13.0000 Du        
    273 ****        10.2500  20.7500 -13.5000 Du        
    274 ****        10.2500  20.7500 -13.2500 Du        
    275 ****        10.2500  20.7500 -13.0000 Du        
    276 ****        10.2500  21.0000 -13.2500 Du        
    277 ****        10.2500  21.0000 -13.0000 Du        
    278 ****        10.2500  21.0000 -12.7500 Du        
    279 ****        10.2500  21.2500 -13.0000 Du        
    280 ****        10.2500  21.2500 -12.7500 Du        
    281 ****        10.5000  20.2500 -14.2500 Du        
    282 ****        10.5000  20.2500 -14.0000 Du        
    283 ****        10.5000  20.5000 -14.0000 Du        
    284 ****        10.5000  20.5000 -13.7500 Du        
    285 ****        10.5000  20.5000 -13.5000 Du        
    286 ****        10.5000  20.7500 -13.7500 Du        
    287 ****        10.5000  20.7500 -13.5000 Du        
    288 ****        10.5000  20.7500 -13.2500 Du        
    289 ****        10.5000  20.7500 -13.0000 Du        
    290 ****        10.5000  21.0000 -13.5000 Du        
    291 ****        10.5000  21.0000 -13.2500 Du        
    292 ****        10.5000  21.0000 -13.0000 Du        
    293 ****        10.5000  21.0000 -12.7500 Du        
    294 ****        10.5000  21.2500 -13.2500 Du        
    295 ****        10.5000  21.2500 -13.0000 Du        
    296 ****        10.5000  21.2500 -12.7500 Du        
    297 ****        10.5000  21.2500 -12.5000 Du        
    298 ****        10.7500  20.0000 -14.5000 Du        
    299 ****        10.7500  20.0000 -14.2500 Du        
    300 ****        10.7500  20.0000 -14.0000 Du        
    301 ****        10.7500  20.2500 -14.7500 Du        
    302 ****        10.7500  20.2500 -14.5000 Du        
    303 ****        10.7500  20.2500 -14.2500 Du        
    304 ****        10.7500  20.2500 -14.0000 Du        
    305 ****        10.7500  20.2500 -13.7500 Du        
    306 ****        10.7500  20.5000 -14.0000 Du        
    307 ****        10.7500  20.5000 -13.7500 Du        
    308 ****        10.7500  20.5000 -13.5000 Du        
    309 ****        10.7500  20.5000 -13.2500 Du        
    310 ****        10.7500  20.7500 -14.0000 Du        
    311 ****        10.7500  20.7500 -13.7500 Du        
    312 ****        10.7500  20.7500 -13.5000 Du        
    313 ****        10.7500  20.7500 -13.2500 Du        
    314 ****        10.7500  20.7500 -13.0000 Du        
    315 ****        10.7500  21.0000 -13.5000 Du        
    316 ****        10.7500  21.0000 -13.2500 Du        
    317 ****        10.7500  21.0000 -13.0000 Du        
    318 ****        10.7500  21.0000 -12.7500 Du        
    319 ****        10.7500  21.0000 -12.5000 Du        
    320 ****        10.7500  21.2500 -13.2500 Du        
    321 ****        10.7500  21.2500 -13.0000 Du        
    322 ****        10.7500  21.2500 -12.7500 Du        
    323 ****        10.7500  21.2500 -12.5000 Du        
    324 ****        11.0000  19.7500 -15.0000 Du        
    325 ****        11.0000  19.7500 -14.7500 Du        
    326 ****        11.0000  19.7500 -14.5000 Du        
    327 ****        11.0000  19.7500 -14.2500 Du        
    328 ****        11.0000  19.7500 -14.0000 Du        
    329 ****        11.0000  20.0000 -15.2500 Du        
    330 ****        11.0000  20.0000 -15.0000 Du        
    331 ****        11.0000  20.0000 -14.7500 Du        
    332 ****        11.0000  20.0000 -14.5000 Du        
    333 ****        11.0000  20.0000 -14.2500 Du        
    334 ****        11.0000  20.0000 -14.0000 Du        
    335 ****        11.0000  20.0000 -13.7500 Du        
    336 ****        11.0000  20.2500 -15.0000 Du        
    337 ****        11.0000  20.2500 -14.7500 Du        
    338 ****        11.0000  20.2500 -14.5000 Du        
    339 ****        11.0000  20.2500 -14.2500 Du        
    340 ****        11.0000  20.2500 -14.0000 Du        
    341 ****        11.0000  20.2500 -13.7500 Du        
    342 ****        11.0000  20.2500 -13.5000 Du        
    343 ****        11.0000  20.5000 -14.2500 Du        
    344 ****        11.0000  20.5000 -14.0000 Du        
    345 ****        11.0000  20.5000 -13.7500 Du        
    346 ****        11.0000  20.5000 -13.5000 Du        
    347 ****        11.0000  20.5000 -13.2500 Du        
    348 ****        11.0000  20.7500 -14.0000 Du        
    349 ****        11.0000  20.7500 -13.7500 Du        
    350 ****        11.0000  20.7500 -13.5000 Du        
    351 ****        11.0000  20.7500 -13.2500 Du        
    352 ****        11.0000  20.7500 -13.0000 Du        
    353 ****        11.0000  20.7500 -12.7500 Du        
    354 ****        11.0000  21.0000 -13.7500 Du        
    355 ****        11.0000  21.0000 -13.5000 Du        
    356 ****        11.0000  21.0000 -13.2500 Du        
    357 ****        11.0000  21.0000 -13.0000 Du        
    358 ****        11.0000  21.0000 -12.7500 Du        
    359 ****        11.0000  21.0000 -12.5000 Du        
    360 ****        11.0000  21.2500 -13.2500 Du        
    361 ****        11.0000  21.2500 -13.0000 Du        
    362 ****        11.0000  21.2500 -12.7500 Du        
    363 ****        11.0000  21.2500 -12.5000 Du        
    364 ****        11.0000  21.2500 -12.2500 Du        
    365 ****        11.2500  19.2500 -14.7500 Du        
    366 ****        11.2500  19.2500 -14.5000 Du        
    367 ****        11.2500  19.5000 -15.0000 Du        
    368 ****        11.2500  19.5000 -14.7500 Du        
    369 ****        11.2500  19.5000 -14.5000 Du        
    370 ****        11.2500  19.5000 -14.2500 Du        
    371 ****        11.2500  19.7500 -15.0000 Du        
    372 ****        11.2500  19.7500 -14.7500 Du        
    373 ****        11.2500  19.7500 -14.5000 Du        
    374 ****        11.2500  19.7500 -14.2500 Du        
    375 ****        11.2500  19.7500 -14.0000 Du        
    376 ****        11.2500  20.0000 -15.0000 Du        
    377 ****        11.2500  20.0000 -14.7500 Du        
    378 ****        11.2500  20.0000 -14.5000 Du        
    379 ****        11.2500  20.0000 -14.2500 Du        
    380 ****        11.2500  20.0000 -14.0000 Du        
    381 ****        11.2500  20.0000 -13.7500 Du        
    382 ****        11.2500  20.2500 -14.7500 Du        
    383 ****        11.2500  20.2500 -14.5000 Du        
    384 ****        11.2500  20.2500 -14.2500 Du        
    385 ****        11.2500  20.2500 -14.0000 Du        
    386 ****        11.2500  20.2500 -13.7500 Du        
    387 ****        11.2500  20.2500 -13.5000 Du        
    388 ****        11.2500  20.2500 -13.2500 Du        
    389 ****        11.2500  20.5000 -14.2500 Du        
    390 ****        11.2500  20.5000 -14.0000 Du        
    391 ****        11.2500  20.5000 -13.7500 Du        
    392 ****        11.2500  20.5000 -13.5000 Du        
    393 ****        11.2500  20.5000 -13.2500 Du        
    394 ****        11.2500  20.5000 -13.0000 Du        
    395 ****        11.2500  20.7500 -14.0000 Du        
    396 ****        11.2500  20.7500 -13.7500 Du        
    397 ****        11.2500  20.7500 -13.5000 Du        
    398 ****        11.2500  20.7500 -13.2500 Du        
    399 ****        11.2500  20.7500 -13.0000 Du        
    400 ****        11.2500  20.7500 -12.7500 Du        
    401 ****        11.2500  20.7500 -12.5000 Du        
    402 ****        11.2500  21.0000 -13.7500 Du        
    403 ****        11.2500  21.0000 -13.5000 Du        
    404 ****        11.2500  21.0000 -13.2500 Du        
    405 ****        11.2500  21.0000 -13.0000 Du        
    406 ****        11.2500  21.0000 -12.7500 Du        
    407 ****        11.2500  21.0000 -12.5000 Du        
    408 ****        11.2500  21.0000 -12.2500 Du        
    409 ****        11.2500  21.2500 -13.2500 Du        
    410 ****        11.2500  21.2500 -13.0000 Du        
    411 ****        11.2500  21.2500 -12.7500 Du        
    412 ****        11.2500  21.2500 -12.5000 Du        
    413 ****        11.2500  21.2500 -12.2500 Du        
    414 ****        11.5000  19.0000 -15.0000 Du        
    415 ****        11.5000  19.0000 -14.7500 Du        
    416 ****        11.5000  19.0000 -14.5000 Du        
    417 ****        11.5000  19.2500 -15.0000 Du        
    418 ****        11.5000  19.2500 -14.7500 Du        
    419 ****        11.5000  19.2500 -14.5000 Du        
    420 ****        11.5000  19.2500 -14.2500 Du        
    421 ****        11.5000  19.5000 -15.0000 Du        
    422 ****        11.5000  19.5000 -14.7500 Du        
    423 ****        11.5000  19.5000 -14.5000 Du        
    424 ****        11.5000  19.5000 -14.2500 Du        
    425 ****        11.5000  19.5000 -14.0000 Du        
    426 ****        11.5000  19.7500 -15.0000 Du        
    427 ****        11.5000  19.7500 -14.7500 Du        
    428 ****        11.5000  19.7500 -14.5000 Du        
    429 ****        11.5000  19.7500 -14.2500 Du        
    430 ****        11.5000  19.7500 -14.0000 Du        
    431 ****        11.5000  19.7500 -13.7500 Du        
    432 ****        11.5000  20.0000 -14.7500 Du        
    433 ****        11.5000  20.0000 -14.5000 Du        
    434 ****        11.5000  20.0000 -14.2500 Du        
    435 ****        11.5000  20.0000 -14.0000 Du        
    436 ****        11.5000  20.0000 -13.7500 Du        
    437 ****        11.5000  20.0000 -13.5000 Du        
    438 ****        11.5000  20.2500 -14.7500 Du        
    439 ****        11.5000  20.2500 -14.5000 Du        
    440 ****        11.5000  20.2500 -14.2500 Du        
    441 ****        11.5000  20.2500 -14.0000 Du        
    442 ****        11.5000  20.2500 -13.7500 Du        
    443 ****        11.5000  20.2500 -13.5000 Du        
    444 ****        11.5000  20.2500 -13.2500 Du        
    445 ****        11.5000  20.5000 -14.2500 Du        
    446 ****        11.5000  20.5000 -14.0000 Du        
    447 ****        11.5000  20.5000 -13.7500 Du        
    448 ****        11.5000  20.5000 -13.5000 Du        
    449 ****        11.5000  20.5000 -13.2500 Du        
    450 ****        11.5000  20.5000 -13.0000 Du        
    451 ****        11.5000  20.5000 -12.7500 Du        
    452 ****        11.5000  20.7500 -14.2500 Du        
    453 ****        11.5000  20.7500 -14.0000 Du        
    454 ****        11.5000  20.7500 -13.7500 Du        
    455 ****        11.5000  20.7500 -13.5000 Du        
    456 ****        11.5000  20.7500 -13.2500 Du        
    457 ****        11.5000  20.7500 -13.0000 Du        
    458 ****        11.5000  20.7500 -12.7500 Du        
    459 ****        11.5000  20.7500 -12.5000 Du        
    460 ****        11.5000  20.7500 -12.2500 Du        
    461 ****        11.5000  21.0000 -13.5000 Du        
    462 ****        11.5000  21.0000 -13.2500 Du        
    463 ****        11.5000  21.0000 -13.0000 Du        
    464 ****        11.5000  21.0000 -12.7500 Du        
    465 ****        11.5000  21.0000 -12.5000 Du        
    466 ****        11.5000  21.0000 -12.2500 Du        
    467 ****        11.5000  21.2500 -13.5000 Du        
    468 ****        11.5000  21.2500 -13.2500 Du        
    469 ****        11.5000  21.2500 -13.0000 Du        
    470 ****        11.5000  21.2500 -12.7500 Du        
    471 ****        11.5000  21.2500 -12.5000 Du        
    472 ****        11.5000  21.2500 -12.2500 Du        
    473 ****        11.5000  21.5000 -12.2500 Du        
    474 ****        11.7500  18.7500 -15.0000 Du        
    475 ****        11.7500  18.7500 -14.7500 Du        
    476 ****        11.7500  18.7500 -14.5000 Du        
    477 ****        11.7500  19.0000 -15.0000 Du        
    478 ****        11.7500  19.0000 -14.7500 Du        
    479 ****        11.7500  19.0000 -14.5000 Du        
    480 ****        11.7500  19.0000 -14.2500 Du        
    481 ****        11.7500  19.2500 -15.0000 Du        
    482 ****        11.7500  19.2500 -14.7500 Du        
    483 ****        11.7500  19.2500 -14.5000 Du        
    484 ****        11.7500  19.2500 -14.2500 Du        
    485 ****        11.7500  19.2500 -14.0000 Du        
    486 ****        11.7500  19.5000 -15.0000 Du        
    487 ****        11.7500  19.5000 -14.7500 Du        
    488 ****        11.7500  19.5000 -14.5000 Du        
    489 ****        11.7500  19.5000 -14.2500 Du        
    490 ****        11.7500  19.5000 -14.0000 Du        
    491 ****        11.7500  19.5000 -13.7500 Du        
    492 ****        11.7500  19.7500 -14.7500 Du        
    493 ****        11.7500  19.7500 -14.5000 Du        
    494 ****        11.7500  19.7500 -14.2500 Du        
    495 ****        11.7500  19.7500 -14.0000 Du        
    496 ****        11.7500  19.7500 -13.7500 Du        
    497 ****        11.7500  20.0000 -14.7500 Du        
    498 ****        11.7500  20.0000 -14.5000 Du        
    499 ****        11.7500  20.0000 -14.2500 Du        
    500 ****        11.7500  20.0000 -14.0000 Du        
    501 ****        11.7500  20.0000 -13.7500 Du        
    502 ****        11.7500  20.0000 -13.5000 Du        
    503 ****        11.7500  20.0000 -13.2500 Du        
    504 ****        11.7500  20.2500 -14.5000 Du        
    505 ****        11.7500  20.2500 -14.2500 Du        
    506 ****        11.7500  20.2500 -14.0000 Du        
    507 ****        11.7500  20.2500 -13.7500 Du        
    508 ****        11.7500  20.2500 -13.5000 Du        
    509 ****        11.7500  20.2500 -13.2500 Du        
    510 ****        11.7500  20.2500 -13.0000 Du        
    511 ****        11.7500  20.5000 -14.2500 Du        
    512 ****        11.7500  20.5000 -14.0000 Du        
    513 ****        11.7500  20.5000 -13.7500 Du        
    514 ****        11.7500  20.5000 -13.5000 Du        
    515 ****        11.7500  20.5000 -13.2500 Du        
    516 ****        11.7500  20.5000 -13.0000 Du        
    517 ****        11.7500  20.5000 -12.7500 Du        
    518 ****        11.7500  20.7500 -14.2500 Du        
    519 ****        11.7500  20.7500 -14.0000 Du        
    520 ****        11.7500  20.7500 -13.7500 Du        
    521 ****        11.7500  20.7500 -13.5000 Du        
    522 ****        11.7500  20.7500 -13.2500 Du        
    523 ****        11.7500  20.7500 -13.0000 Du        
    524 ****        11.7500  20.7500 -12.7500 Du        
    525 ****        11.7500  20.7500 -12.5000 Du        
    526 ****        11.7500  20.7500 -12.2500 Du        
    527 ****        11.7500  21.0000 -14.0000 Du        
    528 ****        11.7500  21.0000 -13.5000 Du        
    529 ****        11.7500  21.0000 -13.2500 Du        
    530 ****        11.7500  21.0000 -13.0000 Du        
    531 ****        11.7500  21.0000 -12.7500 Du        
    532 ****        11.7500  21.0000 -12.5000 Du        
    533 ****        11.7500  21.0000 -12.2500 Du        
    534 ****        11.7500  21.2500 -13.5000 Du        
    535 ****        11.7500  21.2500 -13.2500 Du        
    536 ****        11.7500  21.2500 -13.0000 Du        
    537 ****        11.7500  21.2500 -12.7500 Du        
    538 ****        11.7500  21.2500 -12.5000 Du        
    539 ****        11.7500  21.2500 -12.2500 Du        
    540 ****        11.7500  21.5000 -12.5000 Du        
    541 ****        12.0000  18.7500 -14.7500 Du        
    542 ****        12.0000  18.7500 -14.5000 Du        
    543 ****        12.0000  19.0000 -14.7500 Du        
    544 ****        12.0000  19.0000 -14.5000 Du        
    545 ****        12.0000  19.0000 -14.2500 Du        
    546 ****        12.0000  19.2500 -14.7500 Du        
    547 ****        12.0000  19.2500 -14.5000 Du        
    548 ****        12.0000  19.2500 -14.2500 Du        
    549 ****        12.0000  19.2500 -14.0000 Du        
    550 ****        12.0000  19.5000 -14.7500 Du        
    551 ****        12.0000  19.5000 -14.5000 Du        
    552 ****        12.0000  19.5000 -14.2500 Du        
    553 ****        12.0000  19.5000 -14.0000 Du        
    554 ****        12.0000  19.5000 -13.7500 Du        
    555 ****        12.0000  19.7500 -14.7500 Du        
    556 ****        12.0000  19.7500 -14.5000 Du        
    557 ****        12.0000  19.7500 -14.2500 Du        
    558 ****        12.0000  19.7500 -14.0000 Du        
    559 ****        12.0000  19.7500 -13.7500 Du        
    560 ****        12.0000  19.7500 -13.5000 Du        
    561 ****        12.0000  20.0000 -14.5000 Du        
    562 ****        12.0000  20.0000 -14.2500 Du        
    563 ****        12.0000  20.0000 -14.0000 Du        
    564 ****        12.0000  20.0000 -13.7500 Du        
    565 ****        12.0000  20.0000 -13.5000 Du        
    566 ****        12.0000  20.0000 -13.2500 Du        
    567 ****        12.0000  20.2500 -14.5000 Du        
    568 ****        12.0000  20.2500 -14.2500 Du        
    569 ****        12.0000  20.2500 -14.0000 Du        
    570 ****        12.0000  20.2500 -13.7500 Du        
    571 ****        12.0000  20.2500 -13.5000 Du        
    572 ****        12.0000  20.2500 -13.2500 Du        
    573 ****        12.0000  20.2500 -13.0000 Du        
    574 ****        12.0000  20.5000 -14.2500 Du        
    575 ****        12.0000  20.5000 -14.0000 Du        
    576 ****        12.0000  20.5000 -13.7500 Du        
    577 ****        12.0000  20.5000 -13.5000 Du        
    578 ****        12.0000  20.5000 -13.2500 Du        
    579 ****        12.0000  20.5000 -13.0000 Du        
    580 ****        12.0000  20.5000 -12.7500 Du        
    581 ****        12.0000  20.5000 -12.5000 Du        
    582 ****        12.0000  20.7500 -14.0000 Du        
    583 ****        12.0000  20.7500 -13.7500 Du        
    584 ****        12.0000  20.7500 -13.5000 Du        
    585 ****        12.0000  20.7500 -13.2500 Du        
    586 ****        12.0000  20.7500 -13.0000 Du        
    587 ****        12.0000  20.7500 -12.7500 Du        
    588 ****        12.0000  20.7500 -12.5000 Du        
    589 ****        12.0000  20.7500 -12.2500 Du        
    590 ****        12.0000  21.0000 -14.0000 Du        
    591 ****        12.0000  21.0000 -13.7500 Du        
    592 ****        12.0000  21.0000 -13.5000 Du        
    593 ****        12.0000  21.0000 -13.2500 Du        
    594 ****        12.0000  21.0000 -13.0000 Du        
    595 ****        12.0000  21.0000 -12.7500 Du        
    596 ****        12.0000  21.0000 -12.5000 Du        
    597 ****        12.0000  21.0000 -12.2500 Du        
    598 ****        12.0000  21.2500 -13.5000 Du        
    599 ****        12.0000  21.2500 -13.2500 Du        
    600 ****        12.0000  21.2500 -13.0000 Du        
    601 ****        12.0000  21.2500 -12.7500 Du        
    602 ****        12.0000  21.2500 -12.5000 Du        
    603 ****        12.0000  21.2500 -12.2500 Du        
    604 ****        12.0000  21.5000 -12.5000 Du        
    605 ****        12.2500  19.0000 -14.5000 Du        
    606 ****        12.2500  19.0000 -14.2500 Du        
    607 ****        12.2500  19.2500 -14.5000 Du        
    608 ****        12.2500  19.2500 -14.2500 Du        
    609 ****        12.2500  19.2500 -14.0000 Du        
    610 ****        12.2500  19.5000 -14.5000 Du        
    611 ****        12.2500  19.5000 -14.2500 Du        
    612 ****        12.2500  19.5000 -14.0000 Du        
    613 ****        12.2500  19.5000 -13.7500 Du        
    614 ****        12.2500  19.7500 -14.5000 Du        
    615 ****        12.2500  19.7500 -14.2500 Du        
    616 ****        12.2500  19.7500 -14.0000 Du        
    617 ****        12.2500  19.7500 -13.7500 Du        
    618 ****        12.2500  19.7500 -13.5000 Du        
    619 ****        12.2500  20.0000 -14.5000 Du        
    620 ****        12.2500  20.0000 -14.2500 Du        
    621 ****        12.2500  20.0000 -14.0000 Du        
    622 ****        12.2500  20.0000 -13.7500 Du        
    623 ****        12.2500  20.0000 -13.5000 Du        
    624 ****        12.2500  20.0000 -13.2500 Du        
    625 ****        12.2500  20.2500 -14.2500 Du        
    626 ****        12.2500  20.2500 -14.0000 Du        
    627 ****        12.2500  20.2500 -13.7500 Du        
    628 ****        12.2500  20.2500 -13.5000 Du        
    629 ****        12.2500  20.2500 -13.2500 Du        
    630 ****        12.2500  20.2500 -13.0000 Du        
    631 ****        12.2500  20.5000 -14.0000 Du        
    632 ****        12.2500  20.5000 -13.7500 Du        
    633 ****        12.2500  20.5000 -13.5000 Du        
    634 ****        12.2500  20.5000 -13.2500 Du        
    635 ****        12.2500  20.5000 -13.0000 Du        
    636 ****        12.2500  20.5000 -12.7500 Du        
    637 ****        12.2500  20.7500 -14.0000 Du        
    638 ****        12.2500  20.7500 -13.7500 Du        
    639 ****        12.2500  20.7500 -13.5000 Du        
    640 ****        12.2500  20.7500 -13.2500 Du        
    641 ****        12.2500  20.7500 -13.0000 Du        
    642 ****        12.2500  20.7500 -12.7500 Du        
    643 ****        12.2500  20.7500 -12.5000 Du        
    644 ****        12.2500  20.7500 -12.2500 Du        
    645 ****        12.2500  21.0000 -13.7500 Du        
    646 ****        12.2500  21.0000 -13.5000 Du        
    647 ****        12.2500  21.0000 -13.2500 Du        
    648 ****        12.2500  21.0000 -13.0000 Du        
    649 ****        12.2500  21.0000 -12.7500 Du        
    650 ****        12.2500  21.0000 -12.5000 Du        
    651 ****        12.2500  21.0000 -12.2500 Du        
    652 ****        12.2500  21.2500 -13.5000 Du        
    653 ****        12.2500  21.2500 -13.2500 Du        
    654 ****        12.2500  21.2500 -13.0000 Du        
    655 ****        12.2500  21.2500 -12.7500 Du        
    656 ****        12.2500  21.2500 -12.5000 Du        
    657 ****        12.2500  21.2500 -12.2500 Du        
    658 ****        12.5000  19.2500 -14.2500 Du        
    659 ****        12.5000  19.2500 -14.0000 Du        
    660 ****        12.5000  19.5000 -14.2500 Du        
    661 ****        12.5000  19.5000 -14.0000 Du        
    662 ****        12.5000  19.7500 -14.2500 Du        
    663 ****        12.5000  19.7500 -14.0000 Du        
    664 ****        12.5000  19.7500 -13.7500 Du        
    665 ****        12.5000  19.7500 -13.5000 Du        
    666 ****        12.5000  20.0000 -14.2500 Du        
    667 ****        12.5000  20.0000 -14.0000 Du        
    668 ****        12.5000  20.0000 -13.7500 Du        
    669 ****        12.5000  20.0000 -13.5000 Du        
    670 ****        12.5000  20.0000 -13.2500 Du        
    671 ****        12.5000  20.2500 -14.2500 Du        
    672 ****        12.5000  20.2500 -14.0000 Du        
    673 ****        12.5000  20.2500 -13.7500 Du        
    674 ****        12.5000  20.2500 -13.5000 Du        
    675 ****        12.5000  20.2500 -13.2500 Du        
    676 ****        12.5000  20.2500 -13.0000 Du        
    677 ****        12.5000  20.5000 -14.2500 Du        
    678 ****        12.5000  20.5000 -14.0000 Du        
    679 ****        12.5000  20.5000 -13.7500 Du        
    680 ****        12.5000  20.5000 -13.5000 Du        
    681 ****        12.5000  20.5000 -13.2500 Du        
    682 ****        12.5000  20.5000 -13.0000 Du        
    683 ****        12.5000  20.5000 -12.7500 Du        
    684 ****        12.5000  20.7500 -14.0000 Du        
    685 ****        12.5000  20.7500 -13.7500 Du        
    686 ****        12.5000  20.7500 -13.5000 Du        
    687 ****        12.5000  20.7500 -13.2500 Du        
    688 ****        12.5000  20.7500 -13.0000 Du        
    689 ****        12.5000  20.7500 -12.7500 Du        
    690 ****        12.5000  20.7500 -12.5000 Du        
    691 ****        12.5000  20.7500 -12.2500 Du        
    692 ****        12.5000  21.0000 -13.7500 Du        
    693 ****        12.5000  21.0000 -13.5000 Du        
    694 ****        12.5000  21.0000 -13.2500 Du        
    695 ****        12.5000  21.0000 -13.0000 Du        
    696 ****        12.5000  21.0000 -12.7500 Du        
    697 ****        12.5000  21.0000 -12.5000 Du        
    698 ****        12.5000  21.0000 -12.2500 Du        
    699 ****        12.5000  21.2500 -13.5000 Du        
    700 ****        12.5000  21.2500 -13.2500 Du        
    701 ****        12.5000  21.2500 -13.0000 Du        
    702 ****        12.5000  21.2500 -12.7500 Du        
    703 ****        12.5000  21.2500 -12.5000 Du        
    704 ****        12.5000  21.5000 -13.0000 Du        
    705 ****        12.5000  21.5000 -12.7500 Du        
    706 ****        12.5000  21.5000 -12.5000 Du        
    707 ****        12.5000  28.5000  -9.0000 Du        
    708 ****        12.5000  28.7500  -9.0000 Du        
    709 ****        12.5000  29.0000  -9.0000 Du        
    710 ****        12.7500  19.5000 -14.0000 Du        
    711 ****        12.7500  19.7500 -14.2500 Du        
    712 ****        12.7500  19.7500 -14.0000 Du        
    713 ****        12.7500  19.7500 -13.7500 Du        
    714 ****        12.7500  19.7500 -13.5000 Du        
    715 ****        12.7500  20.0000 -14.2500 Du        
    716 ****        12.7500  20.0000 -14.0000 Du        
    717 ****        12.7500  20.0000 -13.7500 Du        
    718 ****        12.7500  20.0000 -13.5000 Du        
    719 ****        12.7500  20.0000 -13.2500 Du        
    720 ****        12.7500  20.2500 -14.2500 Du        
    721 ****        12.7500  20.2500 -14.0000 Du        
    722 ****        12.7500  20.2500 -13.7500 Du        
    723 ****        12.7500  20.2500 -13.5000 Du        
    724 ****        12.7500  20.2500 -13.2500 Du        
    725 ****        12.7500  20.2500 -13.0000 Du        
    726 ****        12.7500  20.5000 -14.0000 Du        
    727 ****        12.7500  20.5000 -13.7500 Du        
    728 ****        12.7500  20.5000 -13.5000 Du        
    729 ****        12.7500  20.5000 -13.2500 Du        
    730 ****        12.7500  20.5000 -13.0000 Du        
    731 ****        12.7500  20.5000 -12.7500 Du        
    732 ****        12.7500  20.7500 -14.0000 Du        
    733 ****        12.7500  20.7500 -13.7500 Du        
    734 ****        12.7500  20.7500 -13.5000 Du        
    735 ****        12.7500  20.7500 -13.2500 Du        
    736 ****        12.7500  20.7500 -13.0000 Du        
    737 ****        12.7500  20.7500 -12.7500 Du        
    738 ****        12.7500  20.7500 -12.5000 Du        
    739 ****        12.7500  20.7500 -12.2500 Du        
    740 ****        12.7500  21.0000 -14.0000 Du        
    741 ****        12.7500  21.0000 -13.7500 Du        
    742 ****        12.7500  21.0000 -13.5000 Du        
    743 ****        12.7500  21.0000 -13.2500 Du        
    744 ****        12.7500  21.0000 -13.0000 Du        
    745 ****        12.7500  21.0000 -12.7500 Du        
    746 ****        12.7500  21.0000 -12.5000 Du        
    747 ****        12.7500  21.0000 -12.2500 Du        
    748 ****        12.7500  21.2500 -13.5000 Du        
    749 ****        12.7500  21.2500 -13.2500 Du        
    750 ****        12.7500  21.2500 -13.0000 Du        
    751 ****        12.7500  21.2500 -12.7500 Du        
    752 ****        12.7500  21.2500 -12.5000 Du        
    753 ****        12.7500  21.5000 -13.2500 Du        
    754 ****        12.7500  21.5000 -13.0000 Du        
    755 ****        12.7500  21.5000 -12.7500 Du        
    756 ****        12.7500  21.5000 -12.5000 Du        
    757 ****        12.7500  28.0000  -9.2500 Du        
    758 ****        12.7500  28.2500  -9.5000 Du        
    759 ****        12.7500  28.2500  -9.2500 Du        
    760 ****        12.7500  28.2500  -9.0000 Du        
    761 ****        12.7500  28.5000  -9.2500 Du        
    762 ****        12.7500  28.5000  -9.0000 Du        
    763 ****        12.7500  28.5000  -8.7500 Du        
    764 ****        12.7500  28.7500  -9.2500 Du        
    765 ****        12.7500  28.7500  -9.0000 Du        
    766 ****        12.7500  28.7500  -8.7500 Du        
    767 ****        12.7500  29.0000  -9.0000 Du        
    768 ****        13.0000  19.7500 -14.0000 Du        
    769 ****        13.0000  19.7500 -13.7500 Du        
    770 ****        13.0000  20.0000 -14.0000 Du        
    771 ****        13.0000  20.0000 -13.7500 Du        
    772 ****        13.0000  20.0000 -13.5000 Du        
    773 ****        13.0000  20.0000 -13.2500 Du        
    774 ****        13.0000  20.2500 -14.0000 Du        
    775 ****        13.0000  20.2500 -13.7500 Du        
    776 ****        13.0000  20.2500 -13.5000 Du        
    777 ****        13.0000  20.2500 -13.2500 Du        
    778 ****        13.0000  20.2500 -13.0000 Du        
    779 ****        13.0000  20.5000 -14.0000 Du        
    780 ****        13.0000  20.5000 -13.7500 Du        
    781 ****        13.0000  20.5000 -13.5000 Du        
    782 ****        13.0000  20.5000 -13.2500 Du        
    783 ****        13.0000  20.5000 -13.0000 Du        
    784 ****        13.0000  20.5000 -12.7500 Du        
    785 ****        13.0000  20.7500 -14.0000 Du        
    786 ****        13.0000  20.7500 -13.7500 Du        
    787 ****        13.0000  20.7500 -13.5000 Du        
    788 ****        13.0000  20.7500 -13.2500 Du        
    789 ****        13.0000  20.7500 -13.0000 Du        
    790 ****        13.0000  20.7500 -12.7500 Du        
    791 ****        13.0000  20.7500 -12.5000 Du        
    792 ****        13.0000  21.0000 -14.0000 Du        
    793 ****        13.0000  21.0000 -13.7500 Du        
    794 ****        13.0000  21.0000 -13.5000 Du        
    795 ****        13.0000  21.0000 -13.2500 Du        
    796 ****        13.0000  21.0000 -13.0000 Du        
    797 ****        13.0000  21.0000 -12.7500 Du        
    798 ****        13.0000  21.0000 -12.5000 Du        
    799 ****        13.0000  21.0000 -12.2500 Du        
    800 ****        13.0000  21.2500 -13.5000 Du        
    801 ****        13.0000  21.2500 -13.2500 Du        
    802 ****        13.0000  21.2500 -13.0000 Du        
    803 ****        13.0000  21.2500 -12.7500 Du        
    804 ****        13.0000  21.2500 -12.5000 Du        
    805 ****        13.0000  21.5000 -13.2500 Du        
    806 ****        13.0000  21.5000 -13.0000 Du        
    807 ****        13.0000  21.5000 -12.7500 Du        
    808 ****        13.0000  21.5000 -12.5000 Du        
    809 ****        13.0000  21.7500 -13.0000 Du        
    810 ****        13.0000  27.7500  -9.5000 Du        
    811 ****        13.0000  27.7500  -9.2500 Du        
    812 ****        13.0000  28.0000  -9.5000 Du        
    813 ****        13.0000  28.0000  -9.2500 Du        
    814 ****        13.0000  28.0000  -9.0000 Du        
    815 ****        13.0000  28.2500  -9.5000 Du        
    816 ****        13.0000  28.2500  -9.2500 Du        
    817 ****        13.0000  28.2500  -9.0000 Du        
    818 ****        13.0000  28.2500  -8.7500 Du        
    819 ****        13.0000  28.2500  -8.5000 Du        
    820 ****        13.0000  28.5000  -9.2500 Du        
    821 ****        13.0000  28.5000  -9.0000 Du        
    822 ****        13.0000  28.5000  -8.7500 Du        
    823 ****        13.0000  28.7500  -9.2500 Du        
    824 ****        13.0000  28.7500  -9.0000 Du        
    825 ****        13.2500  19.7500 -14.0000 Du        
    826 ****        13.2500  19.7500 -13.7500 Du        
    827 ****        13.2500  20.0000 -14.0000 Du        
    828 ****        13.2500  20.0000 -13.7500 Du        
    829 ****        13.2500  20.0000 -13.5000 Du        
    830 ****        13.2500  20.0000 -13.2500 Du        
    831 ****        13.2500  20.2500 -14.0000 Du        
    832 ****        13.2500  20.2500 -13.7500 Du        
    833 ****        13.2500  20.2500 -13.5000 Du        
    834 ****        13.2500  20.2500 -13.2500 Du        
    835 ****        13.2500  20.2500 -13.0000 Du        
    836 ****        13.2500  20.5000 -14.0000 Du        
    837 ****        13.2500  20.5000 -13.7500 Du        
    838 ****        13.2500  20.5000 -13.5000 Du        
    839 ****        13.2500  20.5000 -13.2500 Du        
    840 ****        13.2500  20.5000 -13.0000 Du        
    841 ****        13.2500  20.5000 -12.7500 Du        
    842 ****        13.2500  20.7500 -14.0000 Du        
    843 ****        13.2500  20.7500 -13.7500 Du        
    844 ****        13.2500  20.7500 -13.5000 Du        
    845 ****        13.2500  20.7500 -13.2500 Du        
    846 ****        13.2500  20.7500 -13.0000 Du        
    847 ****        13.2500  20.7500 -12.7500 Du        
    848 ****        13.2500  20.7500 -12.5000 Du        
    849 ****        13.2500  21.0000 -14.0000 Du        
    850 ****        13.2500  21.0000 -13.7500 Du        
    851 ****        13.2500  21.0000 -13.5000 Du        
    852 ****        13.2500  21.0000 -13.2500 Du        
    853 ****        13.2500  21.0000 -13.0000 Du        
    854 ****        13.2500  21.0000 -12.7500 Du        
    855 ****        13.2500  21.0000 -12.5000 Du        
    856 ****        13.2500  21.0000 -12.2500 Du        
    857 ****        13.2500  21.2500 -13.7500 Du        
    858 ****        13.2500  21.2500 -13.5000 Du        
    859 ****        13.2500  21.2500 -13.2500 Du        
    860 ****        13.2500  21.2500 -13.0000 Du        
    861 ****        13.2500  21.2500 -12.7500 Du        
    862 ****        13.2500  21.2500 -12.5000 Du        
    863 ****        13.2500  21.5000 -13.2500 Du        
    864 ****        13.2500  21.5000 -13.0000 Du        
    865 ****        13.2500  21.5000 -12.7500 Du        
    866 ****        13.2500  21.5000 -12.5000 Du        
    867 ****        13.2500  21.7500 -13.0000 Du        
    868 ****        13.2500  21.7500 -12.7500 Du        
    869 ****        13.2500  27.0000  -9.5000 Du        
    870 ****        13.2500  27.2500  -9.5000 Du        
    871 ****        13.2500  27.2500  -9.2500 Du        
    872 ****        13.2500  27.5000  -9.5000 Du        
    873 ****        13.2500  27.5000  -9.2500 Du        
    874 ****        13.2500  27.7500  -9.5000 Du        
    875 ****        13.2500  27.7500  -9.2500 Du        
    876 ****        13.2500  27.7500  -9.0000 Du        
    877 ****        13.2500  28.0000  -9.5000 Du        
    878 ****        13.2500  28.0000  -9.2500 Du        
    879 ****        13.2500  28.0000  -9.0000 Du        
    880 ****        13.2500  28.0000  -8.7500 Du        
    881 ****        13.2500  28.2500  -9.5000 Du        
    882 ****        13.2500  28.2500  -9.2500 Du        
    883 ****        13.2500  28.2500  -9.0000 Du        
    884 ****        13.2500  28.2500  -8.7500 Du        
    885 ****        13.2500  28.5000  -9.2500 Du        
    886 ****        13.2500  28.5000  -9.0000 Du        
    887 ****        13.2500  28.7500  -9.2500 Du        
    888 ****        13.2500  28.7500  -9.0000 Du        
    889 ****        13.5000  20.0000 -14.0000 Du        
    890 ****        13.5000  20.0000 -13.7500 Du        
    891 ****        13.5000  20.0000 -13.5000 Du        
    892 ****        13.5000  20.0000 -13.2500 Du        
    893 ****        13.5000  20.2500 -14.0000 Du        
    894 ****        13.5000  20.2500 -13.7500 Du        
    895 ****        13.5000  20.2500 -13.5000 Du        
    896 ****        13.5000  20.2500 -13.2500 Du        
    897 ****        13.5000  20.2500 -13.0000 Du        
    898 ****        13.5000  20.2500 -12.7500 Du        
    899 ****        13.5000  20.5000 -14.0000 Du        
    900 ****        13.5000  20.5000 -13.7500 Du        
    901 ****        13.5000  20.5000 -13.5000 Du        
    902 ****        13.5000  20.5000 -13.2500 Du        
    903 ****        13.5000  20.5000 -13.0000 Du        
    904 ****        13.5000  20.5000 -12.7500 Du        
    905 ****        13.5000  20.5000 -12.5000 Du        
    906 ****        13.5000  20.7500 -14.0000 Du        
    907 ****        13.5000  20.7500 -13.7500 Du        
    908 ****        13.5000  20.7500 -13.5000 Du        
    909 ****        13.5000  20.7500 -13.2500 Du        
    910 ****        13.5000  20.7500 -13.0000 Du        
    911 ****        13.5000  20.7500 -12.7500 Du        
    912 ****        13.5000  20.7500 -12.5000 Du        
    913 ****        13.5000  20.7500 -12.2500 Du        
    914 ****        13.5000  21.0000 -14.0000 Du        
    915 ****        13.5000  21.0000 -13.7500 Du        
    916 ****        13.5000  21.0000 -13.5000 Du        
    917 ****        13.5000  21.0000 -13.2500 Du        
    918 ****        13.5000  21.0000 -13.0000 Du        
    919 ****        13.5000  21.0000 -12.7500 Du        
    920 ****        13.5000  21.0000 -12.5000 Du        
    921 ****        13.5000  21.0000 -12.2500 Du        
    922 ****        13.5000  21.2500 -13.7500 Du        
    923 ****        13.5000  21.2500 -13.5000 Du        
    924 ****        13.5000  21.2500 -13.2500 Du        
    925 ****        13.5000  21.2500 -13.0000 Du        
    926 ****        13.5000  21.2500 -12.7500 Du        
    927 ****        13.5000  21.2500 -12.5000 Du        
    928 ****        13.5000  21.2500 -12.2500 Du        
    929 ****        13.5000  21.5000 -13.5000 Du        
    930 ****        13.5000  21.5000 -13.2500 Du        
    931 ****        13.5000  21.5000 -13.0000 Du        
    932 ****        13.5000  21.5000 -12.7500 Du        
    933 ****        13.5000  21.5000 -12.5000 Du        
    934 ****        13.5000  21.7500 -13.2500 Du        
    935 ****        13.5000  21.7500 -13.0000 Du        
    936 ****        13.5000  21.7500 -12.7500 Du        
    937 ****        13.5000  21.7500 -12.5000 Du        
    938 ****        13.5000  26.0000  -9.5000 Du        
    939 ****        13.5000  26.0000  -9.2500 Du        
    940 ****        13.5000  26.2500  -9.5000 Du        
    941 ****        13.5000  26.2500  -9.2500 Du        
    942 ****        13.5000  26.2500  -9.0000 Du        
    943 ****        13.5000  26.5000  -9.5000 Du        
    944 ****        13.5000  26.5000  -9.2500 Du        
    945 ****        13.5000  26.7500  -9.5000 Du        
    946 ****        13.5000  26.7500  -9.2500 Du        
    947 ****        13.5000  26.7500  -9.0000 Du        
    948 ****        13.5000  27.0000  -9.5000 Du        
    949 ****        13.5000  27.0000  -9.2500 Du        
    950 ****        13.5000  27.0000  -9.0000 Du        
    951 ****        13.5000  27.2500  -9.5000 Du        
    952 ****        13.5000  27.2500  -9.2500 Du        
    953 ****        13.5000  27.2500  -9.0000 Du        
    954 ****        13.5000  27.5000  -9.5000 Du        
    955 ****        13.5000  27.5000  -9.2500 Du        
    956 ****        13.5000  27.5000  -9.0000 Du        
    957 ****        13.5000  27.7500  -9.5000 Du        
    958 ****        13.5000  27.7500  -9.2500 Du        
    959 ****        13.5000  27.7500  -9.0000 Du        
    960 ****        13.5000  28.0000  -9.5000 Du        
    961 ****        13.5000  28.0000  -9.2500 Du        
    962 ****        13.5000  28.0000  -9.0000 Du        
    963 ****        13.5000  28.2500  -9.2500 Du        
    964 ****        13.5000  28.2500  -9.0000 Du        
    965 ****        13.7500  20.0000 -14.0000 Du        
    966 ****        13.7500  20.0000 -13.7500 Du        
    967 ****        13.7500  20.0000 -13.5000 Du        
    968 ****        13.7500  20.0000 -13.2500 Du        
    969 ****        13.7500  20.0000 -13.0000 Du        
    970 ****        13.7500  20.2500 -14.0000 Du        
    971 ****        13.7500  20.2500 -13.7500 Du        
    972 ****        13.7500  20.2500 -13.5000 Du        
    973 ****        13.7500  20.2500 -13.2500 Du        
    974 ****        13.7500  20.2500 -13.0000 Du        
    975 ****        13.7500  20.2500 -12.7500 Du        
    976 ****        13.7500  20.5000 -14.0000 Du        
    977 ****        13.7500  20.5000 -13.7500 Du        
    978 ****        13.7500  20.5000 -13.5000 Du        
    979 ****        13.7500  20.5000 -13.2500 Du        
    980 ****        13.7500  20.5000 -13.0000 Du        
    981 ****        13.7500  20.5000 -12.7500 Du        
    982 ****        13.7500  20.5000 -12.5000 Du        
    983 ****        13.7500  20.7500 -14.0000 Du        
    984 ****        13.7500  20.7500 -13.7500 Du        
    985 ****        13.7500  20.7500 -13.5000 Du        
    986 ****        13.7500  20.7500 -13.2500 Du        
    987 ****        13.7500  20.7500 -13.0000 Du        
    988 ****        13.7500  20.7500 -12.7500 Du        
    989 ****        13.7500  20.7500 -12.5000 Du        
    990 ****        13.7500  20.7500 -12.2500 Du        
    991 ****        13.7500  21.0000 -14.0000 Du        
    992 ****        13.7500  21.0000 -13.7500 Du        
    993 ****        13.7500  21.0000 -13.5000 Du        
    994 ****        13.7500  21.0000 -13.2500 Du        
    995 ****        13.7500  21.0000 -13.0000 Du        
    996 ****        13.7500  21.0000 -12.7500 Du        
    997 ****        13.7500  21.0000 -12.5000 Du        
    998 ****        13.7500  21.0000 -12.2500 Du        
    999 ****        13.7500  21.2500 -13.7500 Du        
   1000 ****        13.7500  21.2500 -13.5000 Du        
   1001 ****        13.7500  21.2500 -13.2500 Du        
   1002 ****        13.7500  21.2500 -13.0000 Du        
   1003 ****        13.7500  21.2500 -12.7500 Du        
   1004 ****        13.7500  21.2500 -12.5000 Du        
   1005 ****        13.7500  21.2500 -12.2500 Du        
   1006 ****        13.7500  21.5000 -13.5000 Du        
   1007 ****        13.7500  21.5000 -13.2500 Du        
   1008 ****        13.7500  21.5000 -13.0000 Du        
   1009 ****        13.7500  21.5000 -12.7500 Du        
   1010 ****        13.7500  21.5000 -12.5000 Du        
   1011 ****        13.7500  21.5000 -12.2500 Du        
   1012 ****        13.7500  21.7500 -13.2500 Du        
   1013 ****        13.7500  21.7500 -13.0000 Du        
   1014 ****        13.7500  21.7500 -12.7500 Du        
   1015 ****        13.7500  21.7500 -12.5000 Du        
   1016 ****        13.7500  22.0000 -13.2500 Du        
   1017 ****        13.7500  22.0000 -13.0000 Du        
   1018 ****        13.7500  22.0000 -12.7500 Du        
   1019 ****        13.7500  25.7500  -9.5000 Du        
   1020 ****        13.7500  25.7500  -9.2500 Du        
   1021 ****        13.7500  25.7500  -9.0000 Du        
   1022 ****        13.7500  26.0000  -9.5000 Du        
   1023 ****        13.7500  26.0000  -9.2500 Du        
   1024 ****        13.7500  26.0000  -9.0000 Du        
   1025 ****        13.7500  26.0000  -8.7500 Du        
   1026 ****        13.7500  26.2500  -9.5000 Du        
   1027 ****        13.7500  26.2500  -9.2500 Du        
   1028 ****        13.7500  26.2500  -9.0000 Du        
   1029 ****        13.7500  26.2500  -8.7500 Du        
   1030 ****        13.7500  26.5000  -9.5000 Du        
   1031 ****        13.7500  26.5000  -9.2500 Du        
   1032 ****        13.7500  26.5000  -9.0000 Du        
   1033 ****        13.7500  26.7500  -9.5000 Du        
   1034 ****        13.7500  26.7500  -9.2500 Du        
   1035 ****        13.7500  26.7500  -9.0000 Du        
   1036 ****        13.7500  27.0000  -9.5000 Du        
   1037 ****        13.7500  27.0000  -9.2500 Du        
   1038 ****        13.7500  27.0000  -9.0000 Du        
   1039 ****        13.7500  27.2500  -9.5000 Du        
   1040 ****        13.7500  27.2500  -9.2500 Du        
   1041 ****        13.7500  27.2500  -9.0000 Du        
   1042 ****        13.7500  27.5000  -9.5000 Du        
   1043 ****        13.7500  27.5000  -9.2500 Du        
   1044 ****        13.7500  27.7500  -9.5000 Du        
   1045 ****        13.7500  27.7500  -9.2500 Du        
   1046 ****        13.7500  28.0000  -9.5000 Du        
   1047 ****        13.7500  28.0000  -9.2500 Du        
   1048 ****        14.0000  20.0000 -14.0000 Du        
   1049 ****        14.0000  20.0000 -13.7500 Du        
   1050 ****        14.0000  20.0000 -13.5000 Du        
   1051 ****        14.0000  20.0000 -13.2500 Du        
   1052 ****        14.0000  20.0000 -13.0000 Du        
   1053 ****        14.0000  20.2500 -14.0000 Du        
   1054 ****        14.0000  20.2500 -13.7500 Du        
   1055 ****        14.0000  20.2500 -13.5000 Du        
   1056 ****        14.0000  20.2500 -13.2500 Du        
   1057 ****        14.0000  20.2500 -13.0000 Du        
   1058 ****        14.0000  20.2500 -12.7500 Du        
   1059 ****        14.0000  20.2500 -12.5000 Du        
   1060 ****        14.0000  20.5000 -14.0000 Du        
   1061 ****        14.0000  20.5000 -13.7500 Du        
   1062 ****        14.0000  20.5000 -13.5000 Du        
   1063 ****        14.0000  20.5000 -13.2500 Du        
   1064 ****        14.0000  20.5000 -13.0000 Du        
   1065 ****        14.0000  20.5000 -12.7500 Du        
   1066 ****        14.0000  20.5000 -12.5000 Du        
   1067 ****        14.0000  20.7500 -14.0000 Du        
   1068 ****        14.0000  20.7500 -13.7500 Du        
   1069 ****        14.0000  20.7500 -13.5000 Du        
   1070 ****        14.0000  20.7500 -13.2500 Du        
   1071 ****        14.0000  20.7500 -13.0000 Du        
   1072 ****        14.0000  20.7500 -12.7500 Du        
   1073 ****        14.0000  20.7500 -12.5000 Du        
   1074 ****        14.0000  20.7500 -12.2500 Du        
   1075 ****        14.0000  21.0000 -14.0000 Du        
   1076 ****        14.0000  21.0000 -13.7500 Du        
   1077 ****        14.0000  21.0000 -13.5000 Du        
   1078 ****        14.0000  21.0000 -13.2500 Du        
   1079 ****        14.0000  21.0000 -13.0000 Du        
   1080 ****        14.0000  21.0000 -12.7500 Du        
   1081 ****        14.0000  21.0000 -12.5000 Du        
   1082 ****        14.0000  21.0000 -12.2500 Du        
   1083 ****        14.0000  21.0000 -12.0000 Du        
   1084 ****        14.0000  21.2500 -13.7500 Du        
   1085 ****        14.0000  21.2500 -13.5000 Du        
   1086 ****        14.0000  21.2500 -13.2500 Du        
   1087 ****        14.0000  21.2500 -13.0000 Du        
   1088 ****        14.0000  21.2500 -12.7500 Du        
   1089 ****        14.0000  21.2500 -12.5000 Du        
   1090 ****        14.0000  21.2500 -12.2500 Du        
   1091 ****        14.0000  21.2500 -12.0000 Du        
   1092 ****        14.0000  21.5000 -13.5000 Du        
   1093 ****        14.0000  21.5000 -13.2500 Du        
   1094 ****        14.0000  21.5000 -13.0000 Du        
   1095 ****        14.0000  21.5000 -12.7500 Du        
   1096 ****        14.0000  21.5000 -12.5000 Du        
   1097 ****        14.0000  21.5000 -12.2500 Du        
   1098 ****        14.0000  21.7500 -13.5000 Du        
   1099 ****        14.0000  21.7500 -13.2500 Du        
   1100 ****        14.0000  21.7500 -13.0000 Du        
   1101 ****        14.0000  21.7500 -12.7500 Du        
   1102 ****        14.0000  21.7500 -12.5000 Du        
   1103 ****        14.0000  21.7500 -12.2500 Du        
   1104 ****        14.0000  22.0000 -13.0000 Du        
   1105 ****        14.0000  22.0000 -12.7500 Du        
   1106 ****        14.0000  22.0000 -12.5000 Du        
   1107 ****        14.0000  25.5000  -9.5000 Du        
   1108 ****        14.0000  25.5000  -9.2500 Du        
   1109 ****        14.0000  25.5000  -9.0000 Du        
   1110 ****        14.0000  25.5000  -8.5000 Du        
   1111 ****        14.0000  25.7500  -9.5000 Du        
   1112 ****        14.0000  25.7500  -9.2500 Du        
   1113 ****        14.0000  25.7500  -9.0000 Du        
   1114 ****        14.0000  25.7500  -8.7500 Du        
   1115 ****        14.0000  25.7500  -8.5000 Du        
   1116 ****        14.0000  26.0000  -9.5000 Du        
   1117 ****        14.0000  26.0000  -9.2500 Du        
   1118 ****        14.0000  26.0000  -9.0000 Du        
   1119 ****        14.0000  26.0000  -8.7500 Du        
   1120 ****        14.0000  26.0000  -8.5000 Du        
   1121 ****        14.0000  26.2500  -9.5000 Du        
   1122 ****        14.0000  26.2500  -9.2500 Du        
   1123 ****        14.0000  26.2500  -9.0000 Du        
   1124 ****        14.0000  26.2500  -8.7500 Du        
   1125 ****        14.0000  26.5000  -9.5000 Du        
   1126 ****        14.0000  26.5000  -9.2500 Du        
   1127 ****        14.0000  26.5000  -9.0000 Du        
   1128 ****        14.0000  26.7500  -9.5000 Du        
   1129 ****        14.0000  26.7500  -9.2500 Du        
   1130 ****        14.0000  26.7500  -9.0000 Du        
   1131 ****        14.0000  27.0000  -9.5000 Du        
   1132 ****        14.0000  27.0000  -9.2500 Du        
   1133 ****        14.0000  27.2500  -9.2500 Du        
   1134 ****        14.2500  20.0000 -13.7500 Du        
   1135 ****        14.2500  20.0000 -13.5000 Du        
   1136 ****        14.2500  20.0000 -13.2500 Du        
   1137 ****        14.2500  20.0000 -13.0000 Du        
   1138 ****        14.2500  20.0000 -12.7500 Du        
   1139 ****        14.2500  20.2500 -14.0000 Du        
   1140 ****        14.2500  20.2500 -13.7500 Du        
   1141 ****        14.2500  20.2500 -13.5000 Du        
   1142 ****        14.2500  20.2500 -13.2500 Du        
   1143 ****        14.2500  20.2500 -13.0000 Du        
   1144 ****        14.2500  20.2500 -12.7500 Du        
   1145 ****        14.2500  20.2500 -12.5000 Du        
   1146 ****        14.2500  20.5000 -13.7500 Du        
   1147 ****        14.2500  20.5000 -13.5000 Du        
   1148 ****        14.2500  20.5000 -13.2500 Du        
   1149 ****        14.2500  20.5000 -13.0000 Du        
   1150 ****        14.2500  20.5000 -12.7500 Du        
   1151 ****        14.2500  20.5000 -12.5000 Du        
   1152 ****        14.2500  20.5000 -12.2500 Du        
   1153 ****        14.2500  20.7500 -13.7500 Du        
   1154 ****        14.2500  20.7500 -13.5000 Du        
   1155 ****        14.2500  20.7500 -13.2500 Du        
   1156 ****        14.2500  20.7500 -13.0000 Du        
   1157 ****        14.2500  20.7500 -12.7500 Du        
   1158 ****        14.2500  20.7500 -12.5000 Du        
   1159 ****        14.2500  20.7500 -12.2500 Du        
   1160 ****        14.2500  20.7500 -12.0000 Du        
   1161 ****        14.2500  21.0000 -13.7500 Du        
   1162 ****        14.2500  21.0000 -13.5000 Du        
   1163 ****        14.2500  21.0000 -13.2500 Du        
   1164 ****        14.2500  21.0000 -13.0000 Du        
   1165 ****        14.2500  21.0000 -12.7500 Du        
   1166 ****        14.2500  21.0000 -12.5000 Du        
   1167 ****        14.2500  21.0000 -12.2500 Du        
   1168 ****        14.2500  21.0000 -12.0000 Du        
   1169 ****        14.2500  21.2500 -13.7500 Du        
   1170 ****        14.2500  21.2500 -13.5000 Du        
   1171 ****        14.2500  21.2500 -13.2500 Du        
   1172 ****        14.2500  21.2500 -13.0000 Du        
   1173 ****        14.2500  21.2500 -12.7500 Du        
   1174 ****        14.2500  21.2500 -12.5000 Du        
   1175 ****        14.2500  21.2500 -12.2500 Du        
   1176 ****        14.2500  21.2500 -12.0000 Du        
   1177 ****        14.2500  21.5000 -13.5000 Du        
   1178 ****        14.2500  21.5000 -13.2500 Du        
   1179 ****        14.2500  21.5000 -13.0000 Du        
   1180 ****        14.2500  21.5000 -12.7500 Du        
   1181 ****        14.2500  21.5000 -12.5000 Du        
   1182 ****        14.2500  21.5000 -12.2500 Du        
   1183 ****        14.2500  21.5000 -12.0000 Du        
   1184 ****        14.2500  21.7500 -13.2500 Du        
   1185 ****        14.2500  21.7500 -13.0000 Du        
   1186 ****        14.2500  21.7500 -12.7500 Du        
   1187 ****        14.2500  21.7500 -12.5000 Du        
   1188 ****        14.2500  21.7500 -12.2500 Du        
   1189 ****        14.2500  21.7500 -12.0000 Du        
   1190 ****        14.2500  22.0000 -13.2500 Du        
   1191 ****        14.2500  22.0000 -13.0000 Du        
   1192 ****        14.2500  22.0000 -12.7500 Du        
   1193 ****        14.2500  25.2500  -9.5000 Du        
   1194 ****        14.2500  25.2500  -9.2500 Du        
   1195 ****        14.2500  25.2500  -9.0000 Du        
   1196 ****        14.2500  25.5000  -9.5000 Du        
   1197 ****        14.2500  25.5000  -9.2500 Du        
   1198 ****        14.2500  25.5000  -9.0000 Du        
   1199 ****        14.2500  25.5000  -8.7500 Du        
   1200 ****        14.2500  25.5000  -8.5000 Du        
   1201 ****        14.2500  25.5000  -8.2500 Du        
   1202 ****        14.2500  25.7500  -9.5000 Du        
   1203 ****        14.2500  25.7500  -9.2500 Du        
   1204 ****        14.2500  25.7500  -9.0000 Du        
   1205 ****        14.2500  25.7500  -8.7500 Du        
   1206 ****        14.2500  25.7500  -8.5000 Du        
   1207 ****        14.2500  25.7500  -8.2500 Du        
   1208 ****        14.2500  26.0000  -9.5000 Du        
   1209 ****        14.2500  26.0000  -9.2500 Du        
   1210 ****        14.2500  26.0000  -9.0000 Du        
   1211 ****        14.2500  26.0000  -8.7500 Du        
   1212 ****        14.2500  26.0000  -8.5000 Du        
   1213 ****        14.2500  26.2500  -9.5000 Du        
   1214 ****        14.2500  26.2500  -9.2500 Du        
   1215 ****        14.2500  26.2500  -9.0000 Du        
   1216 ****        14.2500  26.2500  -8.7500 Du        
   1217 ****        14.2500  26.5000  -9.5000 Du        
   1218 ****        14.2500  26.5000  -9.2500 Du        
   1219 ****        14.2500  26.5000  -9.0000 Du        
   1220 ****        14.2500  26.7500  -9.5000 Du        
   1221 ****        14.2500  26.7500  -9.2500 Du        
   1222 ****        14.2500  27.0000  -9.5000 Du        
   1223 ****        14.5000  20.0000 -13.7500 Du        
   1224 ****        14.5000  20.0000 -13.5000 Du        
   1225 ****        14.5000  20.0000 -13.2500 Du        
   1226 ****        14.5000  20.0000 -13.0000 Du        
   1227 ****        14.5000  20.0000 -12.7500 Du        
   1228 ****        14.5000  20.2500 -13.7500 Du        
   1229 ****        14.5000  20.2500 -13.5000 Du        
   1230 ****        14.5000  20.2500 -13.2500 Du        
   1231 ****        14.5000  20.2500 -13.0000 Du        
   1232 ****        14.5000  20.2500 -12.7500 Du        
   1233 ****        14.5000  20.2500 -12.5000 Du        
   1234 ****        14.5000  20.5000 -13.7500 Du        
   1235 ****        14.5000  20.5000 -13.5000 Du        
   1236 ****        14.5000  20.5000 -13.2500 Du        
   1237 ****        14.5000  20.5000 -13.0000 Du        
   1238 ****        14.5000  20.5000 -12.7500 Du        
   1239 ****        14.5000  20.5000 -12.5000 Du        
   1240 ****        14.5000  20.5000 -12.2500 Du        
   1241 ****        14.5000  20.7500 -13.7500 Du        
   1242 ****        14.5000  20.7500 -13.5000 Du        
   1243 ****        14.5000  20.7500 -13.2500 Du        
   1244 ****        14.5000  20.7500 -13.0000 Du        
   1245 ****        14.5000  20.7500 -12.7500 Du        
   1246 ****        14.5000  20.7500 -12.5000 Du        
   1247 ****        14.5000  20.7500 -12.2500 Du        
   1248 ****        14.5000  20.7500 -12.0000 Du        
   1249 ****        14.5000  21.0000 -13.7500 Du        
   1250 ****        14.5000  21.0000 -13.5000 Du        
   1251 ****        14.5000  21.0000 -13.2500 Du        
   1252 ****        14.5000  21.0000 -13.0000 Du        
   1253 ****        14.5000  21.0000 -12.7500 Du        
   1254 ****        14.5000  21.0000 -12.5000 Du        
   1255 ****        14.5000  21.0000 -12.2500 Du        
   1256 ****        14.5000  21.0000 -12.0000 Du        
   1257 ****        14.5000  21.2500 -13.5000 Du        
   1258 ****        14.5000  21.2500 -13.2500 Du        
   1259 ****        14.5000  21.2500 -13.0000 Du        
   1260 ****        14.5000  21.2500 -12.7500 Du        
   1261 ****        14.5000  21.2500 -12.5000 Du        
   1262 ****        14.5000  21.2500 -12.2500 Du        
   1263 ****        14.5000  21.2500 -12.0000 Du        
   1264 ****        14.5000  21.2500 -11.7500 Du        
   1265 ****        14.5000  21.5000 -13.5000 Du        
   1266 ****        14.5000  21.5000 -13.2500 Du        
   1267 ****        14.5000  21.5000 -13.0000 Du        
   1268 ****        14.5000  21.5000 -12.7500 Du        
   1269 ****        14.5000  21.5000 -12.5000 Du        
   1270 ****        14.5000  21.5000 -12.2500 Du        
   1271 ****        14.5000  21.5000 -12.0000 Du        
   1272 ****        14.5000  21.5000 -11.7500 Du        
   1273 ****        14.5000  21.7500 -13.2500 Du        
   1274 ****        14.5000  21.7500 -13.0000 Du        
   1275 ****        14.5000  21.7500 -12.7500 Du        
   1276 ****        14.5000  21.7500 -12.5000 Du        
   1277 ****        14.5000  21.7500 -12.2500 Du        
   1278 ****        14.5000  21.7500 -12.0000 Du        
   1279 ****        14.5000  22.0000 -13.2500 Du        
   1280 ****        14.5000  22.0000 -13.0000 Du        
   1281 ****        14.5000  22.0000 -12.7500 Du        
   1282 ****        14.5000  22.0000 -12.5000 Du        
   1283 ****        14.5000  22.0000 -12.2500 Du        
   1284 ****        14.5000  22.0000 -12.0000 Du        
   1285 ****        14.5000  22.2500 -13.0000 Du        
   1286 ****        14.5000  22.2500 -12.7500 Du        
   1287 ****        14.5000  22.2500 -12.5000 Du        
   1288 ****        14.5000  22.2500 -12.2500 Du        
   1289 ****        14.5000  22.2500 -12.0000 Du        
   1290 ****        14.5000  25.2500  -9.5000 Du        
   1291 ****        14.5000  25.2500  -9.2500 Du        
   1292 ****        14.5000  25.2500  -9.0000 Du        
   1293 ****        14.5000  25.2500  -8.7500 Du        
   1294 ****        14.5000  25.2500  -8.5000 Du        
   1295 ****        14.5000  25.5000  -9.5000 Du        
   1296 ****        14.5000  25.5000  -9.2500 Du        
   1297 ****        14.5000  25.5000  -9.0000 Du        
   1298 ****        14.5000  25.5000  -8.7500 Du        
   1299 ****        14.5000  25.5000  -8.5000 Du        
   1300 ****        14.5000  25.7500  -9.5000 Du        
   1301 ****        14.5000  25.7500  -9.2500 Du        
   1302 ****        14.5000  25.7500  -9.0000 Du        
   1303 ****        14.5000  25.7500  -8.7500 Du        
   1304 ****        14.5000  25.7500  -8.5000 Du        
   1305 ****        14.5000  26.0000  -9.5000 Du        
   1306 ****        14.5000  26.0000  -9.2500 Du        
   1307 ****        14.5000  26.0000  -9.0000 Du        
   1308 ****        14.5000  26.2500  -9.5000 Du        
   1309 ****        14.5000  26.2500  -9.2500 Du        
   1310 ****        14.7500  20.0000 -13.7500 Du        
   1311 ****        14.7500  20.0000 -13.5000 Du        
   1312 ****        14.7500  20.0000 -13.2500 Du        
   1313 ****        14.7500  20.0000 -13.0000 Du        
   1314 ****        14.7500  20.0000 -12.7500 Du        
   1315 ****        14.7500  20.0000 -12.5000 Du        
   1316 ****        14.7500  20.2500 -13.7500 Du        
   1317 ****        14.7500  20.2500 -13.5000 Du        
   1318 ****        14.7500  20.2500 -13.2500 Du        
   1319 ****        14.7500  20.2500 -13.0000 Du        
   1320 ****        14.7500  20.2500 -12.7500 Du        
   1321 ****        14.7500  20.2500 -12.5000 Du        
   1322 ****        14.7500  20.2500 -12.2500 Du        
   1323 ****        14.7500  20.5000 -13.7500 Du        
   1324 ****        14.7500  20.5000 -13.5000 Du        
   1325 ****        14.7500  20.5000 -13.2500 Du        
   1326 ****        14.7500  20.5000 -13.0000 Du        
   1327 ****        14.7500  20.5000 -12.7500 Du        
   1328 ****        14.7500  20.5000 -12.5000 Du        
   1329 ****        14.7500  20.5000 -12.2500 Du        
   1330 ****        14.7500  20.7500 -13.7500 Du        
   1331 ****        14.7500  20.7500 -13.5000 Du        
   1332 ****        14.7500  20.7500 -13.2500 Du        
   1333 ****        14.7500  20.7500 -13.0000 Du        
   1334 ****        14.7500  20.7500 -12.7500 Du        
   1335 ****        14.7500  20.7500 -12.5000 Du        
   1336 ****        14.7500  20.7500 -12.2500 Du        
   1337 ****        14.7500  20.7500 -12.0000 Du        
   1338 ****        14.7500  21.0000 -13.7500 Du        
   1339 ****        14.7500  21.0000 -13.5000 Du        
   1340 ****        14.7500  21.0000 -13.2500 Du        
   1341 ****        14.7500  21.0000 -13.0000 Du        
   1342 ****        14.7500  21.0000 -12.7500 Du        
   1343 ****        14.7500  21.0000 -12.5000 Du        
   1344 ****        14.7500  21.0000 -12.2500 Du        
   1345 ****        14.7500  21.0000 -12.0000 Du        
   1346 ****        14.7500  21.2500 -13.5000 Du        
   1347 ****        14.7500  21.2500 -13.2500 Du        
   1348 ****        14.7500  21.2500 -13.0000 Du        
   1349 ****        14.7500  21.2500 -12.7500 Du        
   1350 ****        14.7500  21.2500 -12.5000 Du        
   1351 ****        14.7500  21.2500 -12.2500 Du        
   1352 ****        14.7500  21.2500 -12.0000 Du        
   1353 ****        14.7500  21.2500 -11.7500 Du        
   1354 ****        14.7500  21.5000 -13.5000 Du        
   1355 ****        14.7500  21.5000 -13.2500 Du        
   1356 ****        14.7500  21.5000 -13.0000 Du        
   1357 ****        14.7500  21.5000 -12.7500 Du        
   1358 ****        14.7500  21.5000 -12.5000 Du        
   1359 ****        14.7500  21.5000 -12.2500 Du        
   1360 ****        14.7500  21.5000 -12.0000 Du        
   1361 ****        14.7500  21.5000 -11.7500 Du        
   1362 ****        14.7500  21.7500 -13.5000 Du        
   1363 ****        14.7500  21.7500 -13.2500 Du        
   1364 ****        14.7500  21.7500 -13.0000 Du        
   1365 ****        14.7500  21.7500 -12.7500 Du        
   1366 ****        14.7500  21.7500 -12.5000 Du        
   1367 ****        14.7500  21.7500 -12.2500 Du        
   1368 ****        14.7500  21.7500 -12.0000 Du        
   1369 ****        14.7500  21.7500 -11.7500 Du        
   1370 ****        14.7500  22.0000 -13.2500 Du        
   1371 ****        14.7500  22.0000 -13.0000 Du        
   1372 ****        14.7500  22.0000 -12.7500 Du        
   1373 ****        14.7500  22.0000 -12.5000 Du        
   1374 ****        14.7500  22.0000 -12.2500 Du        
   1375 ****        14.7500  22.0000 -12.0000 Du        
   1376 ****        14.7500  22.0000 -11.7500 Du        
   1377 ****        14.7500  22.2500 -13.2500 Du        
   1378 ****        14.7500  22.2500 -13.0000 Du        
   1379 ****        14.7500  22.2500 -12.7500 Du        
   1380 ****        14.7500  22.2500 -12.5000 Du        
   1381 ****        14.7500  22.2500 -12.2500 Du        
   1382 ****        14.7500  22.2500 -12.0000 Du        
   1383 ****        14.7500  22.2500 -11.7500 Du        
   1384 ****        14.7500  22.5000 -12.0000 Du        
   1385 ****        14.7500  25.0000  -9.7500 Du        
   1386 ****        14.7500  25.0000  -9.5000 Du        
   1387 ****        14.7500  25.0000  -9.2500 Du        
   1388 ****        14.7500  25.0000  -9.0000 Du        
   1389 ****        14.7500  25.2500  -9.7500 Du        
   1390 ****        14.7500  25.2500  -9.5000 Du        
   1391 ****        14.7500  25.2500  -9.2500 Du        
   1392 ****        14.7500  25.2500  -9.0000 Du        
   1393 ****        14.7500  25.2500  -8.7500 Du        
   1394 ****        14.7500  25.2500  -8.5000 Du        
   1395 ****        14.7500  25.2500  -8.2500 Du        
   1396 ****        14.7500  25.5000  -9.5000 Du        
   1397 ****        14.7500  25.5000  -9.2500 Du        
   1398 ****        14.7500  25.5000  -9.0000 Du        
   1399 ****        14.7500  25.5000  -8.7500 Du        
   1400 ****        14.7500  25.5000  -8.5000 Du        
   1401 ****        14.7500  25.7500  -9.5000 Du        
   1402 ****        14.7500  25.7500  -9.2500 Du        
   1403 ****        14.7500  25.7500  -9.0000 Du        
   1404 ****        14.7500  26.0000  -9.5000 Du        
   1405 ****        14.7500  26.0000  -9.2500 Du        
   1406 ****        15.0000  19.7500 -13.2500 Du        
   1407 ****        15.0000  19.7500 -13.0000 Du        
   1408 ****        15.0000  19.7500 -12.7500 Du        
   1409 ****        15.0000  20.0000 -13.5000 Du        
   1410 ****        15.0000  20.0000 -13.2500 Du        
   1411 ****        15.0000  20.0000 -13.0000 Du        
   1412 ****        15.0000  20.0000 -12.7500 Du        
   1413 ****        15.0000  20.0000 -12.5000 Du        
   1414 ****        15.0000  20.2500 -13.7500 Du        
   1415 ****        15.0000  20.2500 -13.5000 Du        
   1416 ****        15.0000  20.2500 -13.2500 Du        
   1417 ****        15.0000  20.2500 -13.0000 Du        
   1418 ****        15.0000  20.2500 -12.7500 Du        
   1419 ****        15.0000  20.2500 -12.5000 Du        
   1420 ****        15.0000  20.2500 -12.2500 Du        
   1421 ****        15.0000  20.5000 -13.5000 Du        
   1422 ****        15.0000  20.5000 -13.2500 Du        
   1423 ****        15.0000  20.5000 -13.0000 Du        
   1424 ****        15.0000  20.5000 -12.7500 Du        
   1425 ****        15.0000  20.5000 -12.5000 Du        
   1426 ****        15.0000  20.5000 -12.2500 Du        
   1427 ****        15.0000  20.7500 -13.5000 Du        
   1428 ****        15.0000  20.7500 -13.2500 Du        
   1429 ****        15.0000  20.7500 -13.0000 Du        
   1430 ****        15.0000  20.7500 -12.7500 Du        
   1431 ****        15.0000  20.7500 -12.5000 Du        
   1432 ****        15.0000  20.7500 -12.2500 Du        
   1433 ****        15.0000  20.7500 -12.0000 Du        
   1434 ****        15.0000  21.0000 -13.5000 Du        
   1435 ****        15.0000  21.0000 -13.2500 Du        
   1436 ****        15.0000  21.0000 -13.0000 Du        
   1437 ****        15.0000  21.0000 -12.7500 Du        
   1438 ****        15.0000  21.0000 -12.5000 Du        
   1439 ****        15.0000  21.0000 -12.2500 Du        
   1440 ****        15.0000  21.0000 -12.0000 Du        
   1441 ****        15.0000  21.2500 -13.5000 Du        
   1442 ****        15.0000  21.2500 -13.2500 Du        
   1443 ****        15.0000  21.2500 -13.0000 Du        
   1444 ****        15.0000  21.2500 -12.7500 Du        
   1445 ****        15.0000  21.2500 -12.5000 Du        
   1446 ****        15.0000  21.2500 -12.2500 Du        
   1447 ****        15.0000  21.2500 -12.0000 Du        
   1448 ****        15.0000  21.2500 -11.7500 Du        
   1449 ****        15.0000  21.5000 -13.5000 Du        
   1450 ****        15.0000  21.5000 -13.2500 Du        
   1451 ****        15.0000  21.5000 -13.0000 Du        
   1452 ****        15.0000  21.5000 -12.7500 Du        
   1453 ****        15.0000  21.5000 -12.5000 Du        
   1454 ****        15.0000  21.5000 -12.2500 Du        
   1455 ****        15.0000  21.5000 -12.0000 Du        
   1456 ****        15.0000  21.5000 -11.7500 Du        
   1457 ****        15.0000  21.7500 -13.5000 Du        
   1458 ****        15.0000  21.7500 -13.2500 Du        
   1459 ****        15.0000  21.7500 -13.0000 Du        
   1460 ****        15.0000  21.7500 -12.7500 Du        
   1461 ****        15.0000  21.7500 -12.5000 Du        
   1462 ****        15.0000  21.7500 -12.2500 Du        
   1463 ****        15.0000  21.7500 -12.0000 Du        
   1464 ****        15.0000  21.7500 -11.7500 Du        
   1465 ****        15.0000  21.7500 -11.5000 Du        
   1466 ****        15.0000  22.0000 -13.5000 Du        
   1467 ****        15.0000  22.0000 -13.2500 Du        
   1468 ****        15.0000  22.0000 -13.0000 Du        
   1469 ****        15.0000  22.0000 -12.7500 Du        
   1470 ****        15.0000  22.0000 -12.5000 Du        
   1471 ****        15.0000  22.0000 -12.2500 Du        
   1472 ****        15.0000  22.0000 -12.0000 Du        
   1473 ****        15.0000  22.0000 -11.7500 Du        
   1474 ****        15.0000  22.0000 -11.5000 Du        
   1475 ****        15.0000  22.2500 -13.2500 Du        
   1476 ****        15.0000  22.2500 -13.0000 Du        
   1477 ****        15.0000  22.2500 -12.7500 Du        
   1478 ****        15.0000  22.2500 -12.5000 Du        
   1479 ****        15.0000  22.2500 -12.2500 Du        
   1480 ****        15.0000  22.2500 -12.0000 Du        
   1481 ****        15.0000  22.2500 -11.7500 Du        
   1482 ****        15.0000  22.2500 -11.5000 Du        
   1483 ****        15.0000  22.5000 -12.2500 Du        
   1484 ****        15.0000  22.5000 -12.0000 Du        
   1485 ****        15.0000  22.5000 -11.7500 Du        
   1486 ****        15.0000  22.7500 -12.2500 Du        
   1487 ****        15.0000  22.7500 -12.0000 Du        
   1488 ****        15.0000  22.7500 -11.7500 Du        
   1489 ****        15.0000  24.7500 -10.0000 Du        
   1490 ****        15.0000  24.7500  -9.7500 Du        
   1491 ****        15.0000  25.0000 -10.0000 Du        
   1492 ****        15.0000  25.0000  -9.7500 Du        
   1493 ****        15.0000  25.0000  -9.5000 Du        
   1494 ****        15.0000  25.0000  -9.2500 Du        
   1495 ****        15.0000  25.0000  -9.0000 Du        
   1496 ****        15.0000  25.2500 -10.0000 Du        
   1497 ****        15.0000  25.2500  -9.7500 Du        
   1498 ****        15.0000  25.2500  -9.5000 Du        
   1499 ****        15.0000  25.2500  -9.2500 Du        
   1500 ****        15.0000  25.2500  -9.0000 Du        
   1501 ****        15.0000  25.2500  -8.7500 Du        
   1502 ****        15.0000  25.2500  -8.5000 Du        
   1503 ****        15.0000  25.5000  -9.5000 Du        
   1504 ****        15.0000  25.5000  -9.2500 Du        
   1505 ****        15.0000  25.5000  -9.0000 Du        
   1506 ****        15.0000  25.7500  -9.5000 Du        
   1507 ****        15.0000  25.7500  -9.2500 Du        
   1508 ****        15.2500  19.7500 -13.2500 Du        
   1509 ****        15.2500  19.7500 -13.0000 Du        
   1510 ****        15.2500  19.7500 -12.7500 Du        
   1511 ****        15.2500  20.0000 -13.5000 Du        
   1512 ****        15.2500  20.0000 -13.2500 Du        
   1513 ****        15.2500  20.0000 -13.0000 Du        
   1514 ****        15.2500  20.0000 -12.7500 Du        
   1515 ****        15.2500  20.0000 -12.5000 Du        
   1516 ****        15.2500  20.2500 -13.5000 Du        
   1517 ****        15.2500  20.2500 -13.2500 Du        
   1518 ****        15.2500  20.2500 -13.0000 Du        
   1519 ****        15.2500  20.2500 -12.7500 Du        
   1520 ****        15.2500  20.2500 -12.5000 Du        
   1521 ****        15.2500  20.2500 -12.2500 Du        
   1522 ****        15.2500  20.5000 -13.5000 Du        
   1523 ****        15.2500  20.5000 -13.2500 Du        
   1524 ****        15.2500  20.5000 -13.0000 Du        
   1525 ****        15.2500  20.5000 -12.7500 Du        
   1526 ****        15.2500  20.5000 -12.5000 Du        
   1527 ****        15.2500  20.5000 -12.2500 Du        
   1528 ****        15.2500  20.7500 -13.5000 Du        
   1529 ****        15.2500  20.7500 -13.2500 Du        
   1530 ****        15.2500  20.7500 -13.0000 Du        
   1531 ****        15.2500  20.7500 -12.7500 Du        
   1532 ****        15.2500  20.7500 -12.5000 Du        
   1533 ****        15.2500  20.7500 -12.2500 Du        
   1534 ****        15.2500  20.7500 -12.0000 Du        
   1535 ****        15.2500  21.0000 -13.5000 Du        
   1536 ****        15.2500  21.0000 -13.2500 Du        
   1537 ****        15.2500  21.0000 -13.0000 Du        
   1538 ****        15.2500  21.0000 -12.7500 Du        
   1539 ****        15.2500  21.0000 -12.5000 Du        
   1540 ****        15.2500  21.0000 -12.2500 Du        
   1541 ****        15.2500  21.0000 -12.0000 Du        
   1542 ****        15.2500  21.2500 -13.5000 Du        
   1543 ****        15.2500  21.2500 -13.2500 Du        
   1544 ****        15.2500  21.2500 -13.0000 Du        
   1545 ****        15.2500  21.2500 -12.7500 Du        
   1546 ****        15.2500  21.2500 -12.5000 Du        
   1547 ****        15.2500  21.2500 -12.2500 Du        
   1548 ****        15.2500  21.2500 -12.0000 Du        
   1549 ****        15.2500  21.2500 -11.7500 Du        
   1550 ****        15.2500  21.5000 -13.5000 Du        
   1551 ****        15.2500  21.5000 -13.2500 Du        
   1552 ****        15.2500  21.5000 -13.0000 Du        
   1553 ****        15.2500  21.5000 -12.7500 Du        
   1554 ****        15.2500  21.5000 -12.5000 Du        
   1555 ****        15.2500  21.5000 -12.2500 Du        
   1556 ****        15.2500  21.5000 -12.0000 Du        
   1557 ****        15.2500  21.5000 -11.7500 Du        
   1558 ****        15.2500  21.7500 -13.5000 Du        
   1559 ****        15.2500  21.7500 -13.2500 Du        
   1560 ****        15.2500  21.7500 -13.0000 Du        
   1561 ****        15.2500  21.7500 -12.7500 Du        
   1562 ****        15.2500  21.7500 -12.5000 Du        
   1563 ****        15.2500  21.7500 -12.2500 Du        
   1564 ****        15.2500  21.7500 -12.0000 Du        
   1565 ****        15.2500  21.7500 -11.7500 Du        
   1566 ****        15.2500  22.0000 -13.5000 Du        
   1567 ****        15.2500  22.0000 -13.2500 Du        
   1568 ****        15.2500  22.0000 -13.0000 Du        
   1569 ****        15.2500  22.0000 -12.7500 Du        
   1570 ****        15.2500  22.0000 -12.5000 Du        
   1571 ****        15.2500  22.0000 -12.2500 Du        
   1572 ****        15.2500  22.0000 -12.0000 Du        
   1573 ****        15.2500  22.0000 -11.7500 Du        
   1574 ****        15.2500  22.0000 -11.5000 Du        
   1575 ****        15.2500  22.2500 -13.2500 Du        
   1576 ****        15.2500  22.2500 -13.0000 Du        
   1577 ****        15.2500  22.2500 -12.7500 Du        
   1578 ****        15.2500  22.2500 -12.5000 Du        
   1579 ****        15.2500  22.2500 -12.2500 Du        
   1580 ****        15.2500  22.2500 -12.0000 Du        
   1581 ****        15.2500  22.2500 -11.7500 Du        
   1582 ****        15.2500  22.2500 -11.5000 Du        
   1583 ****        15.2500  22.2500 -11.2500 Du        
   1584 ****        15.2500  22.5000 -12.5000 Du        
   1585 ****        15.2500  22.5000 -12.2500 Du        
   1586 ****        15.2500  22.5000 -12.0000 Du        
   1587 ****        15.2500  22.5000 -11.7500 Du        
   1588 ****        15.2500  22.5000 -11.5000 Du        
   1589 ****        15.2500  22.7500 -12.2500 Du        
   1590 ****        15.2500  22.7500 -12.0000 Du        
   1591 ****        15.2500  22.7500 -11.7500 Du        
   1592 ****        15.2500  22.7500 -11.5000 Du        
   1593 ****        15.2500  22.7500 -11.2500 Du        
   1594 ****        15.2500  23.0000 -11.7500 Du        
   1595 ****        15.2500  23.0000 -11.2500 Du        
   1596 ****        15.2500  23.0000 -11.0000 Du        
   1597 ****        15.2500  23.2500 -11.0000 Du        
   1598 ****        15.2500  25.0000 -10.0000 Du        
   1599 ****        15.2500  25.0000  -9.7500 Du        
   1600 ****        15.2500  25.0000  -9.5000 Du        
   1601 ****        15.2500  25.0000  -9.2500 Du        
   1602 ****        15.2500  25.2500  -9.7500 Du        
   1603 ****        15.2500  25.2500  -9.5000 Du        
   1604 ****        15.2500  25.2500  -9.2500 Du        
   1605 ****        15.2500  25.2500  -9.0000 Du        
   1606 ****        15.5000  19.7500 -13.0000 Du        
   1607 ****        15.5000  19.7500 -12.7500 Du        
   1608 ****        15.5000  20.0000 -13.2500 Du        
   1609 ****        15.5000  20.0000 -13.0000 Du        
   1610 ****        15.5000  20.0000 -12.7500 Du        
   1611 ****        15.5000  20.0000 -12.5000 Du        
   1612 ****        15.5000  20.2500 -13.2500 Du        
   1613 ****        15.5000  20.2500 -13.0000 Du        
   1614 ****        15.5000  20.2500 -12.7500 Du        
   1615 ****        15.5000  20.2500 -12.5000 Du        
   1616 ****        15.5000  20.2500 -12.2500 Du        
   1617 ****        15.5000  20.5000 -13.2500 Du        
   1618 ****        15.5000  20.5000 -13.0000 Du        
   1619 ****        15.5000  20.5000 -12.7500 Du        
   1620 ****        15.5000  20.5000 -12.5000 Du        
   1621 ****        15.5000  20.5000 -12.2500 Du        
   1622 ****        15.5000  20.7500 -13.2500 Du        
   1623 ****        15.5000  20.7500 -13.0000 Du        
   1624 ****        15.5000  20.7500 -12.7500 Du        
   1625 ****        15.5000  20.7500 -12.5000 Du        
   1626 ****        15.5000  20.7500 -12.2500 Du        
   1627 ****        15.5000  21.0000 -13.2500 Du        
   1628 ****        15.5000  21.0000 -13.0000 Du        
   1629 ****        15.5000  21.0000 -12.7500 Du        
   1630 ****        15.5000  21.0000 -12.5000 Du        
   1631 ****        15.5000  21.0000 -12.2500 Du        
   1632 ****        15.5000  21.0000 -12.0000 Du        
   1633 ****        15.5000  21.2500 -13.5000 Du        
   1634 ****        15.5000  21.2500 -13.2500 Du        
   1635 ****        15.5000  21.2500 -13.0000 Du        
   1636 ****        15.5000  21.2500 -12.7500 Du        
   1637 ****        15.5000  21.2500 -12.5000 Du        
   1638 ****        15.5000  21.2500 -12.2500 Du        
   1639 ****        15.5000  21.2500 -12.0000 Du        
   1640 ****        15.5000  21.5000 -13.5000 Du        
   1641 ****        15.5000  21.5000 -13.2500 Du        
   1642 ****        15.5000  21.5000 -13.0000 Du        
   1643 ****        15.5000  21.5000 -12.7500 Du        
   1644 ****        15.5000  21.5000 -12.5000 Du        
   1645 ****        15.5000  21.5000 -12.2500 Du        
   1646 ****        15.5000  21.5000 -12.0000 Du        
   1647 ****        15.5000  21.5000 -11.7500 Du        
   1648 ****        15.5000  21.7500 -13.5000 Du        
   1649 ****        15.5000  21.7500 -13.2500 Du        
   1650 ****        15.5000  21.7500 -13.0000 Du        
   1651 ****        15.5000  21.7500 -12.7500 Du        
   1652 ****        15.5000  21.7500 -12.5000 Du        
   1653 ****        15.5000  21.7500 -12.2500 Du        
   1654 ****        15.5000  21.7500 -12.0000 Du        
   1655 ****        15.5000  21.7500 -11.7500 Du        
   1656 ****        15.5000  22.0000 -13.5000 Du        
   1657 ****        15.5000  22.0000 -13.2500 Du        
   1658 ****        15.5000  22.0000 -13.0000 Du        
   1659 ****        15.5000  22.0000 -12.7500 Du        
   1660 ****        15.5000  22.0000 -12.5000 Du        
   1661 ****        15.5000  22.0000 -12.2500 Du        
   1662 ****        15.5000  22.0000 -12.0000 Du        
   1663 ****        15.5000  22.0000 -11.7500 Du        
   1664 ****        15.5000  22.0000 -11.5000 Du        
   1665 ****        15.5000  22.2500 -13.2500 Du        
   1666 ****        15.5000  22.2500 -13.0000 Du        
   1667 ****        15.5000  22.2500 -12.7500 Du        
   1668 ****        15.5000  22.2500 -12.5000 Du        
   1669 ****        15.5000  22.2500 -12.2500 Du        
   1670 ****        15.5000  22.2500 -12.0000 Du        
   1671 ****        15.5000  22.2500 -11.7500 Du        
   1672 ****        15.5000  22.2500 -11.5000 Du        
   1673 ****        15.5000  22.2500 -11.2500 Du        
   1674 ****        15.5000  22.5000 -12.5000 Du        
   1675 ****        15.5000  22.5000 -12.2500 Du        
   1676 ****        15.5000  22.5000 -12.0000 Du        
   1677 ****        15.5000  22.5000 -11.7500 Du        
   1678 ****        15.5000  22.5000 -11.5000 Du        
   1679 ****        15.5000  22.5000 -11.2500 Du        
   1680 ****        15.5000  22.7500 -12.5000 Du        
   1681 ****        15.5000  22.7500 -12.2500 Du        
   1682 ****        15.5000  22.7500 -12.0000 Du        
   1683 ****        15.5000  22.7500 -11.7500 Du        
   1684 ****        15.5000  22.7500 -11.5000 Du        
   1685 ****        15.5000  22.7500 -11.2500 Du        
   1686 ****        15.5000  22.7500 -11.0000 Du        
   1687 ****        15.5000  23.0000 -12.2500 Du        
   1688 ****        15.5000  23.0000 -12.0000 Du        
   1689 ****        15.5000  23.0000 -11.7500 Du        
   1690 ****        15.5000  23.0000 -11.5000 Du        
   1691 ****        15.5000  23.0000 -11.2500 Du        
   1692 ****        15.5000  23.0000 -11.0000 Du        
   1693 ****        15.5000  23.0000 -10.7500 Du        
   1694 ****        15.5000  23.2500 -11.7500 Du        
   1695 ****        15.5000  23.2500 -11.5000 Du        
   1696 ****        15.5000  23.2500 -11.2500 Du        
   1697 ****        15.5000  23.2500 -11.0000 Du        
   1698 ****        15.5000  23.2500 -10.7500 Du        
   1699 ****        15.5000  23.7500 -10.5000 Du        
   1700 ****        15.5000  24.0000 -10.5000 Du        
   1701 ****        15.5000  25.2500  -9.7500 Du        
   1702 ****        15.5000  25.2500  -9.5000 Du        
   1703 ****        15.7500  19.7500 -12.7500 Du        
   1704 ****        15.7500  20.0000 -13.0000 Du        
   1705 ****        15.7500  20.0000 -12.7500 Du        
   1706 ****        15.7500  20.0000 -12.5000 Du        
   1707 ****        15.7500  20.2500 -13.0000 Du        
   1708 ****        15.7500  20.2500 -12.7500 Du        
   1709 ****        15.7500  20.2500 -12.5000 Du        
   1710 ****        15.7500  20.5000 -13.0000 Du        
   1711 ****        15.7500  20.5000 -12.7500 Du        
   1712 ****        15.7500  20.5000 -12.5000 Du        
   1713 ****        15.7500  20.7500 -13.0000 Du        
   1714 ****        15.7500  20.7500 -12.7500 Du        
   1715 ****        15.7500  20.7500 -12.5000 Du        
   1716 ****        15.7500  20.7500 -12.2500 Du        
   1717 ****        15.7500  21.0000 -13.2500 Du        
   1718 ****        15.7500  21.0000 -13.0000 Du        
   1719 ****        15.7500  21.0000 -12.7500 Du        
   1720 ****        15.7500  21.0000 -12.5000 Du        
   1721 ****        15.7500  21.0000 -12.2500 Du        
   1722 ****        15.7500  21.2500 -13.2500 Du        
   1723 ****        15.7500  21.2500 -13.0000 Du        
   1724 ****        15.7500  21.2500 -12.7500 Du        
   1725 ****        15.7500  21.2500 -12.5000 Du        
   1726 ****        15.7500  21.2500 -12.2500 Du        
   1727 ****        15.7500  21.2500 -12.0000 Du        
   1728 ****        15.7500  21.5000 -13.2500 Du        
   1729 ****        15.7500  21.5000 -13.0000 Du        
   1730 ****        15.7500  21.5000 -12.7500 Du        
   1731 ****        15.7500  21.5000 -12.5000 Du        
   1732 ****        15.7500  21.5000 -12.2500 Du        
   1733 ****        15.7500  21.5000 -12.0000 Du        
   1734 ****        15.7500  21.7500 -13.5000 Du        
   1735 ****        15.7500  21.7500 -13.2500 Du        
   1736 ****        15.7500  21.7500 -13.0000 Du        
   1737 ****        15.7500  21.7500 -12.7500 Du        
   1738 ****        15.7500  21.7500 -12.5000 Du        
   1739 ****        15.7500  21.7500 -12.2500 Du        
   1740 ****        15.7500  21.7500 -12.0000 Du        
   1741 ****        15.7500  21.7500 -11.7500 Du        
   1742 ****        15.7500  22.0000 -13.5000 Du        
   1743 ****        15.7500  22.0000 -13.2500 Du        
   1744 ****        15.7500  22.0000 -13.0000 Du        
   1745 ****        15.7500  22.0000 -12.7500 Du        
   1746 ****        15.7500  22.0000 -12.5000 Du        
   1747 ****        15.7500  22.0000 -12.2500 Du        
   1748 ****        15.7500  22.0000 -12.0000 Du        
   1749 ****        15.7500  22.0000 -11.7500 Du        
   1750 ****        15.7500  22.0000 -11.5000 Du        
   1751 ****        15.7500  22.2500 -13.5000 Du        
   1752 ****        15.7500  22.2500 -13.2500 Du        
   1753 ****        15.7500  22.2500 -13.0000 Du        
   1754 ****        15.7500  22.2500 -12.7500 Du        
   1755 ****        15.7500  22.2500 -12.5000 Du        
   1756 ****        15.7500  22.2500 -12.2500 Du        
   1757 ****        15.7500  22.2500 -12.0000 Du        
   1758 ****        15.7500  22.2500 -11.7500 Du        
   1759 ****        15.7500  22.2500 -11.5000 Du        
   1760 ****        15.7500  22.2500 -11.2500 Du        
   1761 ****        15.7500  22.5000 -13.0000 Du        
   1762 ****        15.7500  22.5000 -12.7500 Du        
   1763 ****        15.7500  22.5000 -12.5000 Du        
   1764 ****        15.7500  22.5000 -12.2500 Du        
   1765 ****        15.7500  22.5000 -12.0000 Du        
   1766 ****        15.7500  22.5000 -11.7500 Du        
   1767 ****        15.7500  22.5000 -11.5000 Du        
   1768 ****        15.7500  22.5000 -11.2500 Du        
   1769 ****        15.7500  22.7500 -12.5000 Du        
   1770 ****        15.7500  22.7500 -12.2500 Du        
   1771 ****        15.7500  22.7500 -12.0000 Du        
   1772 ****        15.7500  22.7500 -11.7500 Du        
   1773 ****        15.7500  22.7500 -11.5000 Du        
   1774 ****        15.7500  22.7500 -11.2500 Du        
   1775 ****        15.7500  22.7500 -11.0000 Du        
   1776 ****        15.7500  23.0000 -12.5000 Du        
   1777 ****        15.7500  23.0000 -12.2500 Du        
   1778 ****        15.7500  23.0000 -12.0000 Du        
   1779 ****        15.7500  23.0000 -11.7500 Du        
   1780 ****        15.7500  23.0000 -11.5000 Du        
   1781 ****        15.7500  23.0000 -11.2500 Du        
   1782 ****        15.7500  23.0000 -11.0000 Du        
   1783 ****        15.7500  23.0000 -10.7500 Du        
   1784 ****        15.7500  23.2500 -12.0000 Du        
   1785 ****        15.7500  23.2500 -11.7500 Du        
   1786 ****        15.7500  23.2500 -11.5000 Du        
   1787 ****        15.7500  23.2500 -11.2500 Du        
   1788 ****        15.7500  23.2500 -11.0000 Du        
   1789 ****        15.7500  23.2500 -10.7500 Du        
   1790 ****        15.7500  23.2500 -10.5000 Du        
   1791 ****        15.7500  23.5000 -11.2500 Du        
   1792 ****        15.7500  23.5000 -11.0000 Du        
   1793 ****        15.7500  23.5000 -10.7500 Du        
   1794 ****        15.7500  23.7500 -11.0000 Du        
   1795 ****        16.0000  20.2500 -12.7500 Du        
   1796 ****        16.0000  20.2500 -12.5000 Du        
   1797 ****        16.0000  20.5000 -12.7500 Du        
   1798 ****        16.0000  20.5000 -12.5000 Du        
   1799 ****        16.0000  20.7500 -12.7500 Du        
   1800 ****        16.0000  20.7500 -12.5000 Du        
   1801 ****        16.0000  21.0000 -13.0000 Du        
   1802 ****        16.0000  21.0000 -12.7500 Du        
   1803 ****        16.0000  21.0000 -12.5000 Du        
   1804 ****        16.0000  21.0000 -12.2500 Du        
   1805 ****        16.0000  21.2500 -13.0000 Du        
   1806 ****        16.0000  21.2500 -12.7500 Du        
   1807 ****        16.0000  21.2500 -12.5000 Du        
   1808 ****        16.0000  21.2500 -12.2500 Du        
   1809 ****        16.0000  21.5000 -13.2500 Du        
   1810 ****        16.0000  21.5000 -13.0000 Du        
   1811 ****        16.0000  21.5000 -12.7500 Du        
   1812 ****        16.0000  21.5000 -12.5000 Du        
   1813 ****        16.0000  21.5000 -12.2500 Du        
   1814 ****        16.0000  21.5000 -12.0000 Du        
   1815 ****        16.0000  21.7500 -13.2500 Du        
   1816 ****        16.0000  21.7500 -13.0000 Du        
   1817 ****        16.0000  21.7500 -12.7500 Du        
   1818 ****        16.0000  21.7500 -12.5000 Du        
   1819 ****        16.0000  21.7500 -12.2500 Du        
   1820 ****        16.0000  21.7500 -12.0000 Du        
   1821 ****        16.0000  21.7500 -11.7500 Du        
   1822 ****        16.0000  22.0000 -13.5000 Du        
   1823 ****        16.0000  22.0000 -13.2500 Du        
   1824 ****        16.0000  22.0000 -13.0000 Du        
   1825 ****        16.0000  22.0000 -12.7500 Du        
   1826 ****        16.0000  22.0000 -12.5000 Du        
   1827 ****        16.0000  22.0000 -12.2500 Du        
   1828 ****        16.0000  22.0000 -12.0000 Du        
   1829 ****        16.0000  22.0000 -11.7500 Du        
   1830 ****        16.0000  22.2500 -13.5000 Du        
   1831 ****        16.0000  22.2500 -13.2500 Du        
   1832 ****        16.0000  22.2500 -13.0000 Du        
   1833 ****        16.0000  22.2500 -12.7500 Du        
   1834 ****        16.0000  22.2500 -12.5000 Du        
   1835 ****        16.0000  22.2500 -12.2500 Du        
   1836 ****        16.0000  22.2500 -12.0000 Du        
   1837 ****        16.0000  22.2500 -11.7500 Du        
   1838 ****        16.0000  22.2500 -11.5000 Du        
   1839 ****        16.0000  22.5000 -13.2500 Du        
   1840 ****        16.0000  22.5000 -13.0000 Du        
   1841 ****        16.0000  22.5000 -12.7500 Du        
   1842 ****        16.0000  22.5000 -12.5000 Du        
   1843 ****        16.0000  22.5000 -12.2500 Du        
   1844 ****        16.0000  22.5000 -12.0000 Du        
   1845 ****        16.0000  22.5000 -11.7500 Du        
   1846 ****        16.0000  22.5000 -11.5000 Du        
   1847 ****        16.0000  22.5000 -11.2500 Du        
   1848 ****        16.0000  22.7500 -13.0000 Du        
   1849 ****        16.0000  22.7500 -12.7500 Du        
   1850 ****        16.0000  22.7500 -12.5000 Du        
   1851 ****        16.0000  22.7500 -12.2500 Du        
   1852 ****        16.0000  22.7500 -12.0000 Du        
   1853 ****        16.0000  22.7500 -11.7500 Du        
   1854 ****        16.0000  22.7500 -11.5000 Du        
   1855 ****        16.0000  22.7500 -11.2500 Du        
   1856 ****        16.0000  22.7500 -11.0000 Du        
   1857 ****        16.0000  23.0000 -12.5000 Du        
   1858 ****        16.0000  23.0000 -12.2500 Du        
   1859 ****        16.0000  23.0000 -12.0000 Du        
   1860 ****        16.0000  23.0000 -11.7500 Du        
   1861 ****        16.0000  23.0000 -11.5000 Du        
   1862 ****        16.0000  23.0000 -11.2500 Du        
   1863 ****        16.0000  23.0000 -11.0000 Du        
   1864 ****        16.0000  23.0000 -10.7500 Du        
   1865 ****        16.0000  23.2500 -12.2500 Du        
   1866 ****        16.0000  23.2500 -12.0000 Du        
   1867 ****        16.0000  23.2500 -11.7500 Du        
   1868 ****        16.0000  23.2500 -11.5000 Du        
   1869 ****        16.0000  23.2500 -11.2500 Du        
   1870 ****        16.0000  23.2500 -11.0000 Du        
   1871 ****        16.0000  23.2500 -10.7500 Du        
   1872 ****        16.0000  23.5000 -11.5000 Du        
   1873 ****        16.0000  23.5000 -11.2500 Du        
   1874 ****        16.0000  23.5000 -11.0000 Du        
   1875 ****        16.0000  23.5000 -10.7500 Du        
   1876 ****        16.0000  23.7500 -11.2500 Du        
   1877 ****        16.0000  23.7500 -11.0000 Du        
   1878 ****        16.2500  20.7500 -12.5000 Du        
   1879 ****        16.2500  21.0000 -12.7500 Du        
   1880 ****        16.2500  21.0000 -12.5000 Du        
   1881 ****        16.2500  21.0000 -12.2500 Du        
   1882 ****        16.2500  21.2500 -13.0000 Du        
   1883 ****        16.2500  21.2500 -12.7500 Du        
   1884 ****        16.2500  21.2500 -12.5000 Du        
   1885 ****        16.2500  21.2500 -12.2500 Du        
   1886 ****        16.2500  21.5000 -13.0000 Du        
   1887 ****        16.2500  21.5000 -12.7500 Du        
   1888 ****        16.2500  21.5000 -12.5000 Du        
   1889 ****        16.2500  21.5000 -12.2500 Du        
   1890 ****        16.2500  21.5000 -12.0000 Du        
   1891 ****        16.2500  21.7500 -13.2500 Du        
   1892 ****        16.2500  21.7500 -13.0000 Du        
   1893 ****        16.2500  21.7500 -12.7500 Du        
   1894 ****        16.2500  21.7500 -12.5000 Du        
   1895 ****        16.2500  21.7500 -12.2500 Du        
   1896 ****        16.2500  21.7500 -12.0000 Du        
   1897 ****        16.2500  22.0000 -13.2500 Du        
   1898 ****        16.2500  22.0000 -13.0000 Du        
   1899 ****        16.2500  22.0000 -12.7500 Du        
   1900 ****        16.2500  22.0000 -12.5000 Du        
   1901 ****        16.2500  22.0000 -12.2500 Du        
   1902 ****        16.2500  22.0000 -12.0000 Du        
   1903 ****        16.2500  22.0000 -11.7500 Du        
   1904 ****        16.2500  22.2500 -13.5000 Du        
   1905 ****        16.2500  22.2500 -13.2500 Du        
   1906 ****        16.2500  22.2500 -13.0000 Du        
   1907 ****        16.2500  22.2500 -12.7500 Du        
   1908 ****        16.2500  22.2500 -12.5000 Du        
   1909 ****        16.2500  22.2500 -12.2500 Du        
   1910 ****        16.2500  22.2500 -12.0000 Du        
   1911 ****        16.2500  22.2500 -11.7500 Du        
   1912 ****        16.2500  22.2500 -11.5000 Du        
   1913 ****        16.2500  22.5000 -13.2500 Du        
   1914 ****        16.2500  22.5000 -13.0000 Du        
   1915 ****        16.2500  22.5000 -12.7500 Du        
   1916 ****        16.2500  22.5000 -12.5000 Du        
   1917 ****        16.2500  22.5000 -12.2500 Du        
   1918 ****        16.2500  22.5000 -12.0000 Du        
   1919 ****        16.2500  22.5000 -11.7500 Du        
   1920 ****        16.2500  22.5000 -11.5000 Du        
   1921 ****        16.2500  22.5000 -11.2500 Du        
   1922 ****        16.2500  22.7500 -13.2500 Du        
   1923 ****        16.2500  22.7500 -13.0000 Du        
   1924 ****        16.2500  22.7500 -12.7500 Du        
   1925 ****        16.2500  22.7500 -12.5000 Du        
   1926 ****        16.2500  22.7500 -12.2500 Du        
   1927 ****        16.2500  22.7500 -12.0000 Du        
   1928 ****        16.2500  22.7500 -11.7500 Du        
   1929 ****        16.2500  22.7500 -11.5000 Du        
   1930 ****        16.2500  22.7500 -11.2500 Du        
   1931 ****        16.2500  22.7500 -11.0000 Du        
   1932 ****        16.2500  23.0000 -12.7500 Du        
   1933 ****        16.2500  23.0000 -12.5000 Du        
   1934 ****        16.2500  23.0000 -12.2500 Du        
   1935 ****        16.2500  23.0000 -12.0000 Du        
   1936 ****        16.2500  23.0000 -11.7500 Du        
   1937 ****        16.2500  23.0000 -11.5000 Du        
   1938 ****        16.2500  23.0000 -11.2500 Du        
   1939 ****        16.2500  23.0000 -11.0000 Du        
   1940 ****        16.2500  23.0000 -10.7500 Du        
   1941 ****        16.2500  23.2500 -12.2500 Du        
   1942 ****        16.2500  23.2500 -12.0000 Du        
   1943 ****        16.2500  23.2500 -11.7500 Du        
   1944 ****        16.2500  23.2500 -11.5000 Du        
   1945 ****        16.2500  23.2500 -11.2500 Du        
   1946 ****        16.2500  23.2500 -11.0000 Du        
   1947 ****        16.2500  23.2500 -10.7500 Du        
   1948 ****        16.2500  23.5000 -11.5000 Du        
   1949 ****        16.2500  23.5000 -11.2500 Du        
   1950 ****        16.2500  23.5000 -11.0000 Du        
   1951 ****        16.2500  23.7500 -11.2500 Du        
   1952 ****        16.2500  23.7500 -11.0000 Du        
   1953 ****        16.5000  21.0000 -12.5000 Du        
   1954 ****        16.5000  21.2500 -12.7500 Du        
   1955 ****        16.5000  21.2500 -12.5000 Du        
   1956 ****        16.5000  21.2500 -12.2500 Du        
   1957 ****        16.5000  21.5000 -12.7500 Du        
   1958 ****        16.5000  21.5000 -12.5000 Du        
   1959 ****        16.5000  21.5000 -12.2500 Du        
   1960 ****        16.5000  21.7500 -13.0000 Du        
   1961 ****        16.5000  21.7500 -12.7500 Du        
   1962 ****        16.5000  21.7500 -12.5000 Du        
   1963 ****        16.5000  21.7500 -12.2500 Du        
   1964 ****        16.5000  21.7500 -12.0000 Du        
   1965 ****        16.5000  22.0000 -13.2500 Du        
   1966 ****        16.5000  22.0000 -13.0000 Du        
   1967 ****        16.5000  22.0000 -12.7500 Du        
   1968 ****        16.5000  22.0000 -12.5000 Du        
   1969 ****        16.5000  22.0000 -12.2500 Du        
   1970 ****        16.5000  22.0000 -12.0000 Du        
   1971 ****        16.5000  22.0000 -11.7500 Du        
   1972 ****        16.5000  22.2500 -13.2500 Du        
   1973 ****        16.5000  22.2500 -13.0000 Du        
   1974 ****        16.5000  22.2500 -12.7500 Du        
   1975 ****        16.5000  22.2500 -12.5000 Du        
   1976 ****        16.5000  22.2500 -12.2500 Du        
   1977 ****        16.5000  22.2500 -12.0000 Du        
   1978 ****        16.5000  22.2500 -11.7500 Du        
   1979 ****        16.5000  22.2500 -11.5000 Du        
   1980 ****        16.5000  22.5000 -13.2500 Du        
   1981 ****        16.5000  22.5000 -13.0000 Du        
   1982 ****        16.5000  22.5000 -12.7500 Du        
   1983 ****        16.5000  22.5000 -12.5000 Du        
   1984 ****        16.5000  22.5000 -12.2500 Du        
   1985 ****        16.5000  22.5000 -12.0000 Du        
   1986 ****        16.5000  22.5000 -11.7500 Du        
   1987 ****        16.5000  22.5000 -11.5000 Du        
   1988 ****        16.5000  22.5000 -11.2500 Du        
   1989 ****        16.5000  22.7500 -13.2500 Du        
   1990 ****        16.5000  22.7500 -13.0000 Du        
   1991 ****        16.5000  22.7500 -12.7500 Du        
   1992 ****        16.5000  22.7500 -12.5000 Du        
   1993 ****        16.5000  22.7500 -12.2500 Du        
   1994 ****        16.5000  22.7500 -12.0000 Du        
   1995 ****        16.5000  22.7500 -11.7500 Du        
   1996 ****        16.5000  22.7500 -11.5000 Du        
   1997 ****        16.5000  22.7500 -11.2500 Du        
   1998 ****        16.5000  23.0000 -12.7500 Du        
   1999 ****        16.5000  23.0000 -12.5000 Du        
   2000 ****        16.5000  23.0000 -12.2500 Du        
   2001 ****        16.5000  23.0000 -12.0000 Du        
   2002 ****        16.5000  23.0000 -11.7500 Du        
   2003 ****        16.5000  23.0000 -11.5000 Du        
   2004 ****        16.5000  23.0000 -11.2500 Du        
   2005 ****        16.5000  23.0000 -11.0000 Du        
   2006 ****        16.5000  23.2500 -12.2500 Du        
   2007 ****        16.5000  23.2500 -12.0000 Du        
   2008 ****        16.5000  23.2500 -11.7500 Du        
   2009 ****        16.5000  23.2500 -11.5000 Du        
   2010 ****        16.5000  23.2500 -11.2500 Du        
   2011 ****        16.5000  23.2500 -11.0000 Du        
   2012 ****        16.5000  23.5000 -11.5000 Du        
   2013 ****        16.5000  23.5000 -11.2500 Du        
   2014 ****        16.5000  23.7500 -11.5000 Du        
   2015 ****        16.5000  23.7500 -11.2500 Du        
   2016 ****        16.7500  21.5000 -12.5000 Du        
   2017 ****        16.7500  21.5000 -12.2500 Du        
   2018 ****        16.7500  21.7500 -12.7500 Du        
   2019 ****        16.7500  21.7500 -12.5000 Du        
   2020 ****        16.7500  21.7500 -12.2500 Du        
   2021 ****        16.7500  21.7500 -12.0000 Du        
   2022 ****        16.7500  22.0000 -13.0000 Du        
   2023 ****        16.7500  22.0000 -12.7500 Du        
   2024 ****        16.7500  22.0000 -12.5000 Du        
   2025 ****        16.7500  22.0000 -12.2500 Du        
   2026 ****        16.7500  22.0000 -12.0000 Du        
   2027 ****        16.7500  22.2500 -13.2500 Du        
   2028 ****        16.7500  22.2500 -13.0000 Du        
   2029 ****        16.7500  22.2500 -12.7500 Du        
   2030 ****        16.7500  22.2500 -12.5000 Du        
   2031 ****        16.7500  22.2500 -12.2500 Du        
   2032 ****        16.7500  22.2500 -12.0000 Du        
   2033 ****        16.7500  22.2500 -11.7500 Du        
   2034 ****        16.7500  22.5000 -13.2500 Du        
   2035 ****        16.7500  22.5000 -13.0000 Du        
   2036 ****        16.7500  22.5000 -12.7500 Du        
   2037 ****        16.7500  22.5000 -12.5000 Du        
   2038 ****        16.7500  22.5000 -12.2500 Du        
   2039 ****        16.7500  22.5000 -12.0000 Du        
   2040 ****        16.7500  22.5000 -11.7500 Du        
   2041 ****        16.7500  22.5000 -11.5000 Du        
   2042 ****        16.7500  22.7500 -13.2500 Du        
   2043 ****        16.7500  22.7500 -13.0000 Du        
   2044 ****        16.7500  22.7500 -12.7500 Du        
   2045 ****        16.7500  22.7500 -12.5000 Du        
   2046 ****        16.7500  22.7500 -12.2500 Du        
   2047 ****        16.7500  22.7500 -12.0000 Du        
   2048 ****        16.7500  22.7500 -11.7500 Du        
   2049 ****        16.7500  22.7500 -11.5000 Du        
   2050 ****        16.7500  22.7500 -11.2500 Du        
   2051 ****        16.7500  23.0000 -13.0000 Du        
   2052 ****        16.7500  23.0000 -12.7500 Du        
   2053 ****        16.7500  23.0000 -12.5000 Du        
   2054 ****        16.7500  23.0000 -12.2500 Du        
   2055 ****        16.7500  23.0000 -12.0000 Du        
   2056 ****        16.7500  23.0000 -11.7500 Du        
   2057 ****        16.7500  23.0000 -11.5000 Du        
   2058 ****        16.7500  23.0000 -11.2500 Du        
   2059 ****        16.7500  23.2500 -12.5000 Du        
   2060 ****        16.7500  23.2500 -12.2500 Du        
   2061 ****        16.7500  23.2500 -12.0000 Du        
   2062 ****        16.7500  23.2500 -11.7500 Du        
   2063 ****        16.7500  23.2500 -11.5000 Du        
   2064 ****        16.7500  23.2500 -11.2500 Du        
   2065 ****        17.0000  22.0000 -12.2500 Du        
   2066 ****        17.0000  22.2500 -12.7500 Du        
   2067 ****        17.0000  22.2500 -12.5000 Du        
   2068 ****        17.0000  22.2500 -12.2500 Du        
   2069 ****        17.0000  22.2500 -12.0000 Du        
   2070 ****        17.0000  22.5000 -12.7500 Du        
   2071 ****        17.0000  22.5000 -12.5000 Du        
   2072 ****        17.0000  22.5000 -12.2500 Du        
   2073 ****        17.0000  22.5000 -12.0000 Du        
   2074 ****        17.0000  22.7500 -13.2500 Du        
   2075 ****        17.0000  22.7500 -13.0000 Du        
   2076 ****        17.0000  22.7500 -12.7500 Du        
   2077 ****        17.0000  22.7500 -12.5000 Du        
   2078 ****        17.0000  22.7500 -12.2500 Du        
   2079 ****        17.0000  22.7500 -12.0000 Du        
   2080 ****        17.0000  22.7500 -11.7500 Du        
   2081 ****        17.0000  23.0000 -13.0000 Du        
   2082 ****        17.0000  23.0000 -12.7500 Du        
   2083 ****        17.0000  23.0000 -12.5000 Du        
   2084 ****        17.0000  23.0000 -12.2500 Du        
   2085 ****        17.0000  23.0000 -12.0000 Du        
   2086 ****        17.0000  23.0000 -11.7500 Du        
   2087 ****        17.0000  23.2500 -12.5000 Du        
   2088 ****        17.0000  23.2500 -12.2500 Du        
   2089 ****        17.0000  23.2500 -12.0000 Du        
   2090 ****        17.0000  23.2500 -11.7500 Du        
