#       Name:                CT1002167954
#       Creating user name   hitesit
#       Creation time:       Sun Apr 16 02:22:13 2023


#       File generated by GOLD software.
#

@<TRIPOS>MOLECULE
CT1002167954|ligand_prepared|mol2|1|dock5
    29    30     1
SMALL
NO_CHARGES


@<TRIPOS>ATOM
      1 C1          13.7007  21.9438 -12.4141 C.3            1 RES1               0.0000
      2 C2          14.0801  23.0378 -11.3953 C.ar           1 RES1               0.0000
      3 C3          14.5590  22.1937 -13.6507 C.2            1 RES1               0.0000
      4 C4          13.9717  20.6095 -11.7279 C.2            1 RES1               0.0000
      5 C5          12.2129  21.9711 -12.8351 C.3            1 RES1               0.0000
      6 C6          13.1103  23.8916 -10.8781 C.ar           1 RES1               0.0000
      7 C7          15.3928  23.2035 -10.9618 C.ar           1 RES1               0.0000
      8 N8          15.5980  21.3410 -13.8814 N.am           1 RES1               0.0000
      9 O9          14.3515  23.1477 -14.3903 O.2            1 RES1               0.0000
     10 N10         14.9635  19.8142 -12.2394 N.am           1 RES1               0.0000
     11 O11         13.3465  20.2471 -10.7390 O.2            1 RES1               0.0000
     12 C12         11.8432  20.9007 -13.8499 C.3            1 RES1               0.0000
     13 C13         13.4403  24.8735  -9.9587 C.ar           1 RES1               0.0000
     14 C14         15.7207  24.1863 -10.0425 C.ar           1 RES1               0.0000
     15 C15         15.8095  20.1332 -13.2664 C.2            1 RES1               0.0000
     16 C16         14.7455  25.0212  -9.5400 C.ar           1 RES1               0.0000
     17 O17         16.7131  19.3880 -13.6342 O.2            1 RES1               0.0000
     18 H18         11.5905  21.8403 -11.9413 H              1 RES1               0.0000
     19 H19         11.9845  22.9557 -13.2615 H              1 RES1               0.0000
     20 H20         12.0784  23.7919 -11.1978 H              1 RES1               0.0000
     21 H21         16.1768  22.5588 -11.3444 H              1 RES1               0.0000
     22 H22         16.2809  21.6279 -14.5754 H              1 RES1               0.0000
     23 H23         15.0820  18.8996 -11.8154 H              1 RES1               0.0000
     24 H24         10.7888  20.9643 -14.1109 H              1 RES1               0.0000
     25 H25         12.4255  21.0160 -14.7617 H              1 RES1               0.0000
     26 H26         12.0338  19.9072 -13.4493 H              1 RES1               0.0000
     27 H27         12.6693  25.5289  -9.5673 H              1 RES1               0.0000
     28 H28         16.7493  24.2994  -9.7162 H              1 RES1               0.0000
     29 H29         15.0037  25.7902  -8.8195 H              1 RES1               0.0000
@<TRIPOS>BOND
    1    1    2 1     
    2    1    3 1     
    3    1    4 1     
    4    1    5 1     
    5    2    6 ar    
    6    2    7 ar    
    7    3    8 1     
    8    3    9 2     
    9    4   10 1     
   10    4   11 2     
   11    5   12 1     
   12    5   18 1     
   13    5   19 1     
   14    6   13 ar    
   15    6   20 1     
   16    7   14 ar    
   17    7   21 1     
   18    8   15 1     
   19    8   22 1     
   20   10   15 1     
   21   10   23 1     
   22   12   24 1     
   23   12   25 1     
   24   12   26 1     
   25   13   16 ar    
   26   13   27 1     
   27   14   16 ar    
   28   14   28 1     
   29   15   17 2     
   30   16   29 1     
@<TRIPOS>SUBSTRUCTURE
      1 RES1           1
@<TRIPOS>SET
DONOR_HYDROGENS      STATIC     ATOMS    <user>   **** ""
2 22 23
ATOM$RED        STATIC     ATOMS    COLORGROUP SYSTEM
2 22 23
@<TRIPOS>COMMENT
> <Gold.Version>
2022.3.0

> <Gold.Id.Protein>
unknown|4i1b_cavity_clean|pdb

> <Gold.Protein.RotatedTorsions>
[ 2175 2168 2166 2163 ] final   -3.72 input   59.99 | X-H torsion
[  175  171  170  167 ] final  155.64 input   60.02 | X-H torsion
[ 2273 2266 2264 2261 ] final   32.21 input   60.00 | X-H torsion

> <Gold.Protein.ActiveResidues>
 SER13   GLN14   ILE106  GLU111  GLN126  THR137  LYS138  GLY139  GLY140  GLN141 
 ASP142  ILE143  THR144  ASP145 

> <Gold.Protein.RotatedAtoms>
    9.7772   21.0363  -10.5238 H   0  0  0  0  0  0  0  0  0  0  0  0  # atno 175  bound_to 171 
   19.6270   16.3806  -15.8242 H   0  0  0  0  0  0  0  0  0  0  0  0  # atno 2175 bound_to 2168
   16.1277   20.4078   -9.4504 H   0  0  0  0  0  0  0  0  0  0  0  0  # atno 2273 bound_to 2266
   19.7637   14.9338  -16.5572 LP  0  0  0  0  0  0  0  0  0  0  0  0  # atno 2422 bound_to 2168
   20.3449   16.2771  -17.2813 LP  0  0  0  0  0  0  0  0  0  0  0  0  # atno 2423 bound_to 2168
    8.6538   20.0064   -9.9528 LP  0  0  0  0  0  0  0  0  0  0  0  0  # atno 2434 bound_to 171 
   10.1389   20.0565   -9.2757 LP  0  0  0  0  0  0  0  0  0  0  0  0  # atno 2435 bound_to 171 
   16.4728   19.6031  -10.8222 LP  0  0  0  0  0  0  0  0  0  0  0  0  # atno 2464 bound_to 2266
   17.6795   20.1626   -9.8749 LP  0  0  0  0  0  0  0  0  0  0  0  0  # atno 2465 bound_to 2266

> <Gold.Score>
     Fitness  S(hb_ext) S(vdw_ext)  S(hb_int)    S(int)      intcor
     28.12       3.33      18.66       0.00      -0.87      -0.76

> <Gold.Goldscore.Fitness>
28.1164

> <Gold.Goldscore.Internal.Vdw>
-1.2599

> <Gold.Goldscore.Internal.Torsion>
-0.3682

> <Gold.Goldscore.External.Vdw>
18.6595

> <Gold.Goldscore.Internal.HBond>
0.0000

> <Gold.Goldscore.External.HBond>
3.3291

> <Gold.Goldscore.Internal.Correction>
-0.7585

> <Gold.Goldscore.Hbonds>
donor molecule, donor type, donor heavy atom, donor atom, acceptor molecule, acceptor atom, score
      P1  H  2198  2202       L1    17  0.68
      P1  H  2260  2267       L1    11  0.99

> <Gold.Goldscore.Internal.Vdw.Weighted>
-1.2599

> <Gold.Goldscore.Internal.Torsion.Weighted>
-0.3682

> <Gold.Goldscore.External.Vdw.Weighted>
25.6568

> <Gold.Goldscore.Internal.HBond.Weighted>
0.0000

> <Gold.Goldscore.External.HBond.Weighted>
3.3291

> <Gold.Goldscore.Internal.Correction.Weighted>
-0.7585

> <Gold.Rescore>
     Score     S(PLP)   S(hbond)     S(cho)   S(metal)  DE(clash)   DE(tors)     intcor
     13.93      -7.74       2.09       0.00       0.00       0.00       0.04       ----

> <Gold.PLP.Fitness>
13.9278

> <Gold.PLP.PLP>
-7.7402

> <Gold.PLP.part.hbond>
-4.4271

> <Gold.PLP.part.metal>
0.0000

> <Gold.PLP.part.buried>
5.4294

> <Gold.PLP.part.nonpolar>
-19.5684

> <Gold.PLP.part.repulsive>
11.8984

> <Gold.PLP.ligand.clash>
0.0000

> <Gold.PLP.ligand.torsion>
0.0442

> <Gold.PLP.Chemscore.Hbond>
2.0920

> <Gold.PLP.Chemscore.CHOScore>
0.0000

> <Gold.PLP.Chemscore.Metal>
0.0000

> <Gold.Chemscore.Hbonds>
donor molecule, donor type, donor heavy atom, donor atom, acceptor molecule, acceptor atom, score
      L1  H    10    23       P1  2232  0.11
      P1  H  2274  2282       L1    11  0.16
      P1  H  2198  2202       L1    17  0.57
      P1  H  2260  2267       L1    11  1.00

> <Gold.PLP.Chemscore.Internal.Correction>
   9.000000E+99

