#       Name:                CT1002167954
#       Creating user name   hitesit
#       Creation time:       Sun Apr 16 02:22:15 2023


#       File generated by GOLD software.
#

@<TRIPOS>MOLECULE
CT1002167954|ligand_prepared|mol2|1|dock7
    29    30     1
SMALL
NO_CHARGES


@<TRIPOS>ATOM
      1 C1          11.3533  20.7975 -14.0296 C.3            1 RES1               0.0000
      2 C2          12.7428  20.6148 -13.3858 C.ar           1 RES1               0.0000
      3 C3          11.4519  22.0344 -14.9177 C.2            1 RES1               0.0000
      4 C4          11.0621  19.5080 -14.7892 C.2            1 RES1               0.0000
      5 C5          10.2145  21.0170 -13.0065 C.3            1 RES1               0.0000
      6 C6          13.7263  19.8647 -14.0237 C.ar           1 RES1               0.0000
      7 C7          13.0563  21.1913 -12.1578 C.ar           1 RES1               0.0000
      8 N8          11.4950  21.8416 -16.2671 N.am           1 RES1               0.0000
      9 O9          11.5306  23.1595 -14.4399 O.2            1 RES1               0.0000
     10 N10         10.9732  19.5733 -16.1550 N.am           1 RES1               0.0000
     11 O11         10.9252  18.4329 -14.2184 O.2            1 RES1               0.0000
     12 C12          8.8218  20.8582 -13.5958 C.3            1 RES1               0.0000
     13 C13         14.9788  19.6994 -13.4561 C.ar           1 RES1               0.0000
     14 C14         14.3095  21.0246 -11.5918 C.ar           1 RES1               0.0000
     15 C15         11.2069  20.6761 -16.9306 C.2            1 RES1               0.0000
     16 C16         15.2714  20.2795 -12.2401 C.ar           1 RES1               0.0000
     17 O17         11.1612  20.6434 -18.1570 O.2            1 RES1               0.0000
     18 H18         10.3345  20.2995 -12.1855 H              1 RES1               0.0000
     19 H19         10.3071  22.0260 -12.5862 H              1 RES1               0.0000
     20 H20         13.5135  19.3986 -14.9800 H              1 RES1               0.0000
     21 H21         12.3149  21.7807 -11.6292 H              1 RES1               0.0000
     22 H22         11.7665  22.6376 -16.8354 H              1 RES1               0.0000
     23 H23         10.7082  18.7210 -16.6384 H              1 RES1               0.0000
     24 H24          8.0605  21.0224 -12.8361 H              1 RES1               0.0000
     25 H25          8.6589  21.5737 -14.3991 H              1 RES1               0.0000
     26 H26          8.6862  19.8574 -14.0007 H              1 RES1               0.0000
     27 H27         15.7319  19.1109 -13.9697 H              1 RES1               0.0000
     28 H28         14.5352  21.4824 -10.6344 H              1 RES1               0.0000
     29 H29         16.2528  20.1502 -11.7959 H              1 RES1               0.0000
@<TRIPOS>BOND
    1    1    2 1     
    2    1    3 1     
    3    1    4 1     
    4    1    5 1     
    5    2    6 ar    
    6    2    7 ar    
    7    3    8 1     
    8    3    9 2     
    9    4   10 1     
   10    4   11 2     
   11    5   12 1     
   12    5   18 1     
   13    5   19 1     
   14    6   13 ar    
   15    6   20 1     
   16    7   14 ar    
   17    7   21 1     
   18    8   15 1     
   19    8   22 1     
   20   10   15 1     
   21   10   23 1     
   22   12   24 1     
   23   12   25 1     
   24   12   26 1     
   25   13   16 ar    
   26   13   27 1     
   27   14   16 ar    
   28   14   28 1     
   29   15   17 2     
   30   16   29 1     
@<TRIPOS>SUBSTRUCTURE
      1 RES1           1
@<TRIPOS>SET
DONOR_HYDROGENS      STATIC     ATOMS    <user>   **** ""
2 22 23
ATOM$RED        STATIC     ATOMS    COLORGROUP SYSTEM
2 22 23
@<TRIPOS>COMMENT
> <Gold.Version>
2022.3.0

> <Gold.Id.Protein>
unknown|4i1b_cavity_clean|pdb

> <Gold.Protein.RotatedTorsions>
[ 2175 2168 2166 2163 ] final   26.15 input   59.99 | X-H torsion
[  175  171  170  167 ] final   73.12 input   60.02 | X-H torsion
[ 2273 2266 2264 2261 ] final   66.20 input   60.00 | X-H torsion

> <Gold.Protein.ActiveResidues>
 SER13   GLN14   ILE106  GLU111  GLN126  THR137  LYS138  GLY139  GLY140  GLN141 
 ASP142  ILE143  THR144  ASP145 

> <Gold.Protein.RotatedAtoms>
    8.7120   20.4273  -10.3817 H   0  0  0  0  0  0  0  0  0  0  0  0  # atno 175  bound_to 171 
   19.8309   16.6958  -16.1277 H   0  0  0  0  0  0  0  0  0  0  0  0  # atno 2175 bound_to 2168
   16.6222   20.5273   -9.2487 H   0  0  0  0  0  0  0  0  0  0  0  0  # atno 2273 bound_to 2266
   19.5756   15.0883  -16.1366 LP  0  0  0  0  0  0  0  0  0  0  0  0  # atno 2422 bound_to 2168
   20.3277   15.8053  -17.3964 LP  0  0  0  0  0  0  0  0  0  0  0  0  # atno 2423 bound_to 2168
    9.6166   19.7578   -9.2060 LP  0  0  0  0  0  0  0  0  0  0  0  0  # atno 2434 bound_to 171 
   10.2486   20.9182  -10.1655 LP  0  0  0  0  0  0  0  0  0  0  0  0  # atno 2435 bound_to 171 
   16.0194   19.7614  -10.5520 LP  0  0  0  0  0  0  0  0  0  0  0  0  # atno 2464 bound_to 2266
   17.6350   19.8840  -10.3482 LP  0  0  0  0  0  0  0  0  0  0  0  0  # atno 2465 bound_to 2266

> <Gold.Score>
     Fitness  S(hb_ext) S(vdw_ext)  S(hb_int)    S(int)      intcor
     29.88       0.06      22.02       0.00      -0.46      -0.76

> <Gold.Goldscore.Fitness>
29.8834

> <Gold.Goldscore.Internal.Vdw>
-0.5404

> <Gold.Goldscore.Internal.Torsion>
-0.6719

> <Gold.Goldscore.External.Vdw>
22.0203

> <Gold.Goldscore.Internal.HBond>
0.0000

> <Gold.Goldscore.External.HBond>
0.0623

> <Gold.Goldscore.Internal.Correction>
-0.7556

> <Gold.Goldscore.Hbonds>
donor molecule, donor type, donor heavy atom, donor atom, acceptor molecule, acceptor atom, score
      P1  H  2013  2021       L1    11  0.02
      L1  H    10    23       P1  2014  0.01

> <Gold.Goldscore.Internal.Vdw.Weighted>
-0.5404

> <Gold.Goldscore.Internal.Torsion.Weighted>
-0.6719

> <Gold.Goldscore.External.Vdw.Weighted>
30.2779

> <Gold.Goldscore.Internal.HBond.Weighted>
0.0000

> <Gold.Goldscore.External.HBond.Weighted>
0.0623

> <Gold.Goldscore.Internal.Correction.Weighted>
-0.7556

> <Gold.Rescore>
     Score     S(PLP)   S(hbond)     S(cho)   S(metal)  DE(clash)   DE(tors)     intcor
     28.11     -26.62       0.75       0.00       0.00       0.00       0.38       ----

> <Gold.PLP.Fitness>
28.1109

> <Gold.PLP.PLP>
-26.6206

> <Gold.PLP.part.hbond>
-1.0000

> <Gold.PLP.part.metal>
0.0000

> <Gold.PLP.part.buried>
1.6939

> <Gold.PLP.part.nonpolar>
-26.4297

> <Gold.PLP.part.repulsive>
0.3333

> <Gold.PLP.ligand.clash>
0.0000

> <Gold.PLP.ligand.torsion>
0.3828

> <Gold.PLP.Chemscore.Hbond>
0.7520

> <Gold.PLP.Chemscore.CHOScore>
0.0000

> <Gold.PLP.Chemscore.Metal>
0.0000

> <Gold.Chemscore.Hbonds>
donor molecule, donor type, donor heavy atom, donor atom, acceptor molecule, acceptor atom, score
      P1  H  2013  2021       L1    11  0.66

> <Gold.PLP.Chemscore.Internal.Correction>
   9.000000E+99

