#       Name:                CT1002167954
#       Creating user name   hitesit
#       Creation time:       Sun Apr 16 02:22:13 2023


#       File generated by GOLD software.
#

@<TRIPOS>MOLECULE
CT1002167954|ligand_prepared|mol2|1|dock4
    29    30     1
SMALL
NO_CHARGES


@<TRIPOS>ATOM
      1 C1          13.3426  21.8107 -12.5105 C.3            1 RES1               0.0000
      2 C2          13.5402  22.9681 -11.5104 C.ar           1 RES1               0.0000
      3 C3          14.2012  22.1442 -13.7270 C.2            1 RES1               0.0000
      4 C4          13.7642  20.5399 -11.7810 C.2            1 RES1               0.0000
      5 C5          11.8791  21.6308 -12.9767 C.3            1 RES1               0.0000
      6 C6          14.7663  23.1585 -10.8803 C.ar           1 RES1               0.0000
      7 C7          12.5084  23.8535 -11.2105 C.ar           1 RES1               0.0000
      8 N8          15.3507  21.4320 -13.9035 N.am           1 RES1               0.0000
      9 O9          13.8945  23.0453 -14.4979 O.2            1 RES1               0.0000
     10 N10         14.8687  19.8720 -12.2410 N.am           1 RES1               0.0000
     11 O11         13.1596  20.1202 -10.8019 O.2            1 RES1               0.0000
     12 C12         11.6647  20.4191 -13.8700 C.3            1 RES1               0.0000
     13 C13         14.9551  24.1982  -9.9849 C.ar           1 RES1               0.0000
     14 C14         12.6993  24.8925 -10.3145 C.ar           1 RES1               0.0000
     15 C15         15.6991  20.2772 -13.2502 C.2            1 RES1               0.0000
     16 C16         13.9220  25.0661  -9.7018 C.ar           1 RES1               0.0000
     17 O17         16.7048  19.6503 -13.5705 O.2            1 RES1               0.0000
     18 H18         11.2361  21.5361 -12.0929 H              1 RES1               0.0000
     19 H19         11.5690  22.5307 -13.5220 H              1 RES1               0.0000
     20 H20         15.5902  22.4841 -11.0887 H              1 RES1               0.0000
     21 H21         11.5376  23.7356 -11.6798 H              1 RES1               0.0000
     22 H22         16.0126  21.7912 -14.5840 H              1 RES1               0.0000
     23 H23         15.0926  18.9910 -11.7892 H              1 RES1               0.0000
     24 H24         10.6215  20.3396 -14.1684 H              1 RES1               0.0000
     25 H25         12.2703  20.4921 -14.7710 H              1 RES1               0.0000
     26 H26         11.9393  19.5034 -13.3504 H              1 RES1               0.0000
     27 H27         15.9189  24.3297  -9.5042 H              1 RES1               0.0000
     28 H28         11.8832  25.5727 -10.0943 H              1 RES1               0.0000
     29 H29         14.0702  25.8807  -9.0006 H              1 RES1               0.0000
@<TRIPOS>BOND
    1    1    2 1     
    2    1    3 1     
    3    1    4 1     
    4    1    5 1     
    5    2    6 ar    
    6    2    7 ar    
    7    3    8 1     
    8    3    9 2     
    9    4   10 1     
   10    4   11 2     
   11    5   12 1     
   12    5   18 1     
   13    5   19 1     
   14    6   13 ar    
   15    6   20 1     
   16    7   14 ar    
   17    7   21 1     
   18    8   15 1     
   19    8   22 1     
   20   10   15 1     
   21   10   23 1     
   22   12   24 1     
   23   12   25 1     
   24   12   26 1     
   25   13   16 ar    
   26   13   27 1     
   27   14   16 ar    
   28   14   28 1     
   29   15   17 2     
   30   16   29 1     
@<TRIPOS>SUBSTRUCTURE
      1 RES1           1
@<TRIPOS>SET
DONOR_HYDROGENS      STATIC     ATOMS    <user>   **** ""
2 22 23
ATOM$RED        STATIC     ATOMS    COLORGROUP SYSTEM
2 22 23
@<TRIPOS>COMMENT
> <Gold.Version>
2022.3.0

> <Gold.Id.Protein>
unknown|4i1b_cavity_clean|pdb

> <Gold.Protein.RotatedTorsions>
[ 2175 2168 2166 2163 ] final   69.76 input   59.99 | X-H torsion
[  175  171  170  167 ] final -142.56 input   60.02 | X-H torsion
[ 2273 2266 2264 2261 ] final   31.30 input   60.00 | X-H torsion

> <Gold.Protein.ActiveResidues>
 SER13   GLN14   ILE106  GLU111  GLN126  THR137  LYS138  GLY139  GLY140  GLN141 
 ASP142  ILE143  THR144  ASP145 

> <Gold.Protein.RotatedAtoms>
   10.3939   20.7097   -9.8620 H   0  0  0  0  0  0  0  0  0  0  0  0  # atno 175  bound_to 171 
   20.1510   16.7501  -16.7432 H   0  0  0  0  0  0  0  0  0  0  0  0  # atno 2175 bound_to 2168
   16.1167   20.4027   -9.4592 H   0  0  0  0  0  0  0  0  0  0  0  0  # atno 2273 bound_to 2266
   19.4691   15.6596  -15.7457 LP  0  0  0  0  0  0  0  0  0  0  0  0  # atno 2422 bound_to 2168
   20.1120   15.1793  -17.1679 LP  0  0  0  0  0  0  0  0  0  0  0  0  # atno 2423 bound_to 2168
    8.9300   20.6969  -10.5730 LP  0  0  0  0  0  0  0  0  0  0  0  0  # atno 2434 bound_to 171 
    9.2419   19.6949   -9.3218 LP  0  0  0  0  0  0  0  0  0  0  0  0  # atno 2435 bound_to 171 
   16.4872   19.6008  -10.8260 LP  0  0  0  0  0  0  0  0  0  0  0  0  # atno 2464 bound_to 2266
   17.6762   20.1701   -9.8622 LP  0  0  0  0  0  0  0  0  0  0  0  0  # atno 2465 bound_to 2266

> <Gold.Score>
     Fitness  S(hb_ext) S(vdw_ext)  S(hb_int)    S(int)      intcor
     30.54       2.75      20.21       0.00      -0.01      -0.76

> <Gold.Goldscore.Fitness>
30.5413

> <Gold.Goldscore.Internal.Vdw>
-0.3618

> <Gold.Goldscore.Internal.Torsion>
-0.4036

> <Gold.Goldscore.External.Vdw>
20.2142

> <Gold.Goldscore.Internal.HBond>
0.0000

> <Gold.Goldscore.External.HBond>
2.7536

> <Gold.Goldscore.Internal.Correction>
-0.7585

> <Gold.Goldscore.Hbonds>
donor molecule, donor type, donor heavy atom, donor atom, acceptor molecule, acceptor atom, score
      P1  H   171   175       L1    11  0.12
      P1  H  2198  2202       L1    17  0.52
      P1  H  2260  2267       L1    11  0.73

> <Gold.Goldscore.Internal.Vdw.Weighted>
-0.3618

> <Gold.Goldscore.Internal.Torsion.Weighted>
-0.4036

> <Gold.Goldscore.External.Vdw.Weighted>
27.7946

> <Gold.Goldscore.Internal.HBond.Weighted>
0.0000

> <Gold.Goldscore.External.HBond.Weighted>
2.7536

> <Gold.Goldscore.Internal.Correction.Weighted>
-0.7585

> <Gold.Rescore>
     Score     S(PLP)   S(hbond)     S(cho)   S(metal)  DE(clash)   DE(tors)     intcor
     19.45     -15.83       1.31       0.00       0.00       0.00       0.16       ----

> <Gold.PLP.Fitness>
19.4530

> <Gold.PLP.PLP>
-15.8327

> <Gold.PLP.part.hbond>
-5.0450

> <Gold.PLP.part.metal>
0.0000

> <Gold.PLP.part.buried>
1.1045

> <Gold.PLP.part.nonpolar>
-17.6644

> <Gold.PLP.part.repulsive>
5.4642

> <Gold.PLP.ligand.clash>
0.0000

> <Gold.PLP.ligand.torsion>
0.1616

> <Gold.PLP.Chemscore.Hbond>
1.3145

> <Gold.PLP.Chemscore.CHOScore>
0.0000

> <Gold.PLP.Chemscore.Metal>
0.0000

> <Gold.Chemscore.Hbonds>
donor molecule, donor type, donor heavy atom, donor atom, acceptor molecule, acceptor atom, score
      L1  H    10    23       P1  2232  0.04
      P1  H  2274  2282       L1    11  0.11
      P1  H  2198  2202       L1    17  0.63
      P1  H  2260  2267       L1    11  1.00

> <Gold.PLP.Chemscore.Internal.Correction>
   9.000000E+99

