#       Name:                CT1002167954
#       Creating user name   hitesit
#       Creation time:       Sun Apr 16 02:22:15 2023


#       File generated by GOLD software.
#

@<TRIPOS>MOLECULE
CT1002167954|ligand_prepared|mol2|1|dock8
    29    30     1
SMALL
NO_CHARGES


@<TRIPOS>ATOM
      1 C1          11.7652  20.4541 -13.8397 C.3            1 RES1               0.0000
      2 C2          13.2414  20.5224 -13.3982 C.ar           1 RES1               0.0000
      3 C3          11.5756  21.5604 -14.8734 C.2            1 RES1               0.0000
      4 C4          11.5481  19.0476 -14.3867 C.2            1 RES1               0.0000
      5 C5          10.7577  20.6798 -12.6884 C.3            1 RES1               0.0000
      6 C6          13.7145  21.6119 -12.6731 C.ar           1 RES1               0.0000
      7 C7          14.1398  19.5041 -13.7059 C.ar           1 RES1               0.0000
      8 N8          11.4595  21.1903 -16.1808 N.am           1 RES1               0.0000
      9 O9          11.5676  22.7419 -14.5507 O.2            1 RES1               0.0000
     10 N10         11.2658  18.9141 -15.7210 N.am           1 RES1               0.0000
     11 O11         11.6353  18.0526 -13.6778 O.2            1 RES1               0.0000
     12 C12          9.3026  20.5819 -13.1189 C.3            1 RES1               0.0000
     13 C13         15.0371  21.6796 -12.2675 C.ar           1 RES1               0.0000
     14 C14         15.4621  19.5740 -13.2995 C.ar           1 RES1               0.0000
     15 C15         11.2420  19.9194 -16.6490 C.2            1 RES1               0.0000
     16 C16         15.9116  20.6607 -12.5800 C.ar           1 RES1               0.0000
     17 O17         11.0342  19.7135 -17.8413 O.2            1 RES1               0.0000
     18 H18         10.9448  19.9355 -11.9045 H              1 RES1               0.0000
     19 H19         10.9320  21.6729 -12.2562 H              1 RES1               0.0000
     20 H20         13.0417  22.4244 -12.4200 H              1 RES1               0.0000
     21 H21         13.8086  18.6401 -14.2719 H              1 RES1               0.0000
     22 H22         11.5422  21.9265 -16.8747 H              1 RES1               0.0000
     23 H23         11.0536  17.9787 -16.0532 H              1 RES1               0.0000
     24 H24          8.6382  20.7482 -12.2736 H              1 RES1               0.0000
     25 H25          9.0748  21.3251 -13.8802 H              1 RES1               0.0000
     26 H26          9.0876  19.5980 -13.5307 H              1 RES1               0.0000
     27 H27         15.3863  22.5377 -11.7026 H              1 RES1               0.0000
     28 H28         16.1470  18.7700 -13.5482 H              1 RES1               0.0000
     29 H29         16.9475  20.7138 -12.2618 H              1 RES1               0.0000
@<TRIPOS>BOND
    1    1    2 1     
    2    1    3 1     
    3    1    4 1     
    4    1    5 1     
    5    2    6 ar    
    6    2    7 ar    
    7    3    8 1     
    8    3    9 2     
    9    4   10 1     
   10    4   11 2     
   11    5   12 1     
   12    5   18 1     
   13    5   19 1     
   14    6   13 ar    
   15    6   20 1     
   16    7   14 ar    
   17    7   21 1     
   18    8   15 1     
   19    8   22 1     
   20   10   15 1     
   21   10   23 1     
   22   12   24 1     
   23   12   25 1     
   24   12   26 1     
   25   13   16 ar    
   26   13   27 1     
   27   14   16 ar    
   28   14   28 1     
   29   15   17 2     
   30   16   29 1     
@<TRIPOS>SUBSTRUCTURE
      1 RES1           1
@<TRIPOS>SET
DONOR_HYDROGENS      STATIC     ATOMS    <user>   **** ""
2 22 23
ATOM$RED        STATIC     ATOMS    COLORGROUP SYSTEM
2 22 23
@<TRIPOS>COMMENT
> <Gold.Version>
2022.3.0

> <Gold.Id.Protein>
unknown|4i1b_cavity_clean|pdb

> <Gold.Protein.RotatedTorsions>
[ 2175 2168 2166 2163 ] final  -98.41 input   59.99 | X-H torsion
[  175  171  170  167 ] final  -12.18 input   60.02 | X-H torsion
[ 2273 2266 2264 2261 ] final  128.99 input   60.00 | X-H torsion

> <Gold.Protein.ActiveResidues>
 SER13   GLN14   ILE106  GLU111  GLN126  THR137  LYS138  GLY139  GLY140  GLN141 
 ASP142  ILE143  THR144  ASP145 

> <Gold.Protein.RotatedAtoms>
    9.0958   19.7105   -9.4075 H   0  0  0  0  0  0  0  0  0  0  0  0  # atno 175  bound_to 171 
   19.6038   15.0547  -16.1974 H   0  0  0  0  0  0  0  0  0  0  0  0  # atno 2175 bound_to 2168
   17.5200   20.3349   -9.5782 H   0  0  0  0  0  0  0  0  0  0  0  0  # atno 2273 bound_to 2266
   20.3380   15.8794  -17.3932 LP  0  0  0  0  0  0  0  0  0  0  0  0  # atno 2422 bound_to 2168
   19.7939   16.6661  -16.0697 LP  0  0  0  0  0  0  0  0  0  0  0  0  # atno 2423 bound_to 2168
   10.4186   20.6006   -9.7339 LP  0  0  0  0  0  0  0  0  0  0  0  0  # atno 2434 bound_to 171 
    9.0602   20.7971  -10.6186 LP  0  0  0  0  0  0  0  0  0  0  0  0  # atno 2435 bound_to 171 
   15.9000   20.2558   -9.7116 LP  0  0  0  0  0  0  0  0  0  0  0  0  # atno 2464 bound_to 2266
   16.8502   19.5833  -10.8568 LP  0  0  0  0  0  0  0  0  0  0  0  0  # atno 2465 bound_to 2266

> <Gold.Score>
     Fitness  S(hb_ext) S(vdw_ext)  S(hb_int)    S(int)      intcor
     29.23       0.00      22.84       0.00      -2.19      -0.76

> <Gold.Goldscore.Fitness>
29.2253

> <Gold.Goldscore.Internal.Vdw>
-2.5721

> <Gold.Goldscore.Internal.Torsion>
-0.3687

> <Gold.Goldscore.External.Vdw>
22.8441

> <Gold.Goldscore.Internal.HBond>
0.0000

> <Gold.Goldscore.External.HBond>
0.0000

> <Gold.Goldscore.Internal.Correction>
-0.7556

> <Gold.Goldscore.Internal.Vdw.Weighted>
-2.5721

> <Gold.Goldscore.Internal.Torsion.Weighted>
-0.3687

> <Gold.Goldscore.External.Vdw.Weighted>
31.4106

> <Gold.Goldscore.Internal.HBond.Weighted>
0.0000

> <Gold.Goldscore.External.HBond.Weighted>
0.0000

> <Gold.Goldscore.Internal.Correction.Weighted>
-0.7556

> <Gold.Rescore>
     Score     S(PLP)   S(hbond)     S(cho)   S(metal)  DE(clash)   DE(tors)     intcor
     25.19     -25.20       0.50       0.00       0.00       1.31       0.11       ----

> <Gold.PLP.Fitness>
25.1857

> <Gold.PLP.PLP>
-25.2015

> <Gold.PLP.part.hbond>
-1.0000

> <Gold.PLP.part.metal>
0.0000

> <Gold.PLP.part.buried>
3.8708

> <Gold.PLP.part.nonpolar>
-28.7421

> <Gold.PLP.part.repulsive>
0.3374

> <Gold.PLP.ligand.clash>
1.3051

> <Gold.PLP.ligand.torsion>
0.1113

> <Gold.PLP.Chemscore.Hbond>
0.5040

> <Gold.PLP.Chemscore.CHOScore>
0.0000

> <Gold.PLP.Chemscore.Metal>
0.0000

> <Gold.PLP.Chemscore.Internal.Correction>
   9.000000E+99

