#       Name:                CT1002167954
#       Creating user name   hitesit
#       Creation time:       Sun Apr 16 02:22:12 2023


#       File generated by GOLD software.
#

@<TRIPOS>MOLECULE
CT1002167954|ligand_prepared|mol2|1|dock3
    29    30     1
SMALL
NO_CHARGES


@<TRIPOS>ATOM
      1 C1          13.4450  21.1480 -12.8502 C.3            1 RES1               0.0000
      2 C2          14.6025  21.9046 -12.1671 C.ar           1 RES1               0.0000
      3 C3          12.4605  20.7817 -11.7435 C.2            1 RES1               0.0000
      4 C4          12.8764  22.0962 -13.9000 C.2            1 RES1               0.0000
      5 C5          13.8839  19.8497 -13.5667 C.3            1 RES1               0.0000
      6 C6          14.3559  23.0539 -11.4222 C.ar           1 RES1               0.0000
      7 C7          15.9195  21.4646 -12.2705 C.ar           1 RES1               0.0000
      8 N8          11.2937  21.4847 -11.6777 N.am           1 RES1               0.0000
      9 O9          12.7212  19.9161 -10.9171 O.2            1 RES1               0.0000
     10 N10         11.5969  22.5547 -13.7254 N.am           1 RES1               0.0000
     11 O11         13.5306  22.4636 -14.8682 O.2            1 RES1               0.0000
     12 C12         12.7310  19.0616 -14.1682 C.3            1 RES1               0.0000
     13 C13         15.3880  23.7371 -10.8006 C.ar           1 RES1               0.0000
     14 C14         16.9502  22.1495 -11.6482 C.ar           1 RES1               0.0000
     15 C15         10.7907  22.3162 -12.6459 C.2            1 RES1               0.0000
     16 C16         16.6856  23.2852 -10.9128 C.ar           1 RES1               0.0000
     17 O17          9.6716  22.8085 -12.5351 O.2            1 RES1               0.0000
     18 H18         14.5895  20.1087 -14.3658 H              1 RES1               0.0000
     19 H19         14.4113  19.2106 -12.8478 H              1 RES1               0.0000
     20 H20         13.3414  23.4259 -11.3247 H              1 RES1               0.0000
     21 H21         16.1513  20.5742 -12.8448 H              1 RES1               0.0000
     22 H22         10.7444  21.3828 -10.8303 H              1 RES1               0.0000
     23 H23         11.2095  23.1267 -14.4691 H              1 RES1               0.0000
     24 H24         13.0939  18.1607 -14.6586 H              1 RES1               0.0000
     25 H25         12.0223  18.7658 -13.3975 H              1 RES1               0.0000
     26 H26         12.1994  19.6585 -14.9064 H              1 RES1               0.0000
     27 H27         15.1746  24.6311 -10.2240 H              1 RES1               0.0000
     28 H28         17.9700  21.7906 -11.7397 H              1 RES1               0.0000
     29 H29         17.4939  23.8203 -10.4254 H              1 RES1               0.0000
@<TRIPOS>BOND
    1    1    2 1     
    2    1    3 1     
    3    1    4 1     
    4    1    5 1     
    5    2    6 ar    
    6    2    7 ar    
    7    3    8 1     
    8    3    9 2     
    9    4   10 1     
   10    4   11 2     
   11    5   12 1     
   12    5   18 1     
   13    5   19 1     
   14    6   13 ar    
   15    6   20 1     
   16    7   14 ar    
   17    7   21 1     
   18    8   15 1     
   19    8   22 1     
   20   10   15 1     
   21   10   23 1     
   22   12   24 1     
   23   12   25 1     
   24   12   26 1     
   25   13   16 ar    
   26   13   27 1     
   27   14   16 ar    
   28   14   28 1     
   29   15   17 2     
   30   16   29 1     
@<TRIPOS>SUBSTRUCTURE
      1 RES1           1
@<TRIPOS>SET
DONOR_HYDROGENS      STATIC     ATOMS    <user>   **** ""
2 22 23
ATOM$RED        STATIC     ATOMS    COLORGROUP SYSTEM
2 22 23
@<TRIPOS>COMMENT
> <Gold.Version>
2022.3.0

> <Gold.Id.Protein>
unknown|4i1b_cavity_clean|pdb

> <Gold.Protein.RotatedTorsions>
[ 2175 2168 2166 2163 ] final   83.05 input   59.99 | X-H torsion
[  175  171  170  167 ] final   47.82 input   60.02 | X-H torsion
[ 2273 2266 2264 2261 ] final   79.36 input   60.00 | X-H torsion

> <Gold.Protein.ActiveResidues>
 SER13   GLN14   ILE106  GLU111  GLN126  THR137  LYS138  GLY139  GLY140  GLN141 
 ASP142  ILE143  THR144  ASP145 

> <Gold.Protein.RotatedAtoms>
    8.6350   20.1373  -10.1021 H   0  0  0  0  0  0  0  0  0  0  0  0  # atno 175  bound_to 171 
   20.2294   16.6631  -16.9256 H   0  0  0  0  0  0  0  0  0  0  0  0  # atno 2175 bound_to 2168
   16.8368   20.5310   -9.2431 H   0  0  0  0  0  0  0  0  0  0  0  0  # atno 2273 bound_to 2266
   19.4860   15.8744  -15.7112 LP  0  0  0  0  0  0  0  0  0  0  0  0  # atno 2422 bound_to 2168
   20.0162   15.0522  -17.0187 LP  0  0  0  0  0  0  0  0  0  0  0  0  # atno 2423 bound_to 2168
    9.9880   19.9377   -9.2200 LP  0  0  0  0  0  0  0  0  0  0  0  0  # atno 2434 bound_to 171 
    9.9547   21.0303  -10.4331 LP  0  0  0  0  0  0  0  0  0  0  0  0  # atno 2435 bound_to 171 
   15.9055   19.8544  -10.3935 LP  0  0  0  0  0  0  0  0  0  0  0  0  # atno 2464 bound_to 2266
   17.5328   19.7872  -10.5123 LP  0  0  0  0  0  0  0  0  0  0  0  0  # atno 2465 bound_to 2266

> <Gold.Score>
     Fitness  S(hb_ext) S(vdw_ext)  S(hb_int)    S(int)      intcor
     30.27       2.02      20.61       0.00      -0.10      -0.76

> <Gold.Goldscore.Fitness>
30.2664

> <Gold.Goldscore.Internal.Vdw>
-0.4676

> <Gold.Goldscore.Internal.Torsion>
-0.3879

> <Gold.Goldscore.External.Vdw>
20.6101

> <Gold.Goldscore.Internal.HBond>
0.0000

> <Gold.Goldscore.External.HBond>
2.0245

> <Gold.Goldscore.Internal.Correction>
-0.7585

> <Gold.Goldscore.Hbonds>
donor molecule, donor type, donor heavy atom, donor atom, acceptor molecule, acceptor atom, score
      P1  H  2274  2282       L1     9  0.04
      P1  H  2260  2267       L1     9  0.34
      L1  H     8    22       P1   171  0.64

> <Gold.Goldscore.Internal.Vdw.Weighted>
-0.4676

> <Gold.Goldscore.Internal.Torsion.Weighted>
-0.3879

> <Gold.Goldscore.External.Vdw.Weighted>
28.3389

> <Gold.Goldscore.Internal.HBond.Weighted>
0.0000

> <Gold.Goldscore.External.HBond.Weighted>
2.0245

> <Gold.Goldscore.Internal.Correction.Weighted>
-0.7585

> <Gold.Rescore>
     Score     S(PLP)   S(hbond)     S(cho)   S(metal)  DE(clash)   DE(tors)     intcor
     26.41     -21.04       1.84       0.00       0.00       0.00       0.08       ----

> <Gold.PLP.Fitness>
26.4085

> <Gold.PLP.PLP>
-21.0405

> <Gold.PLP.part.hbond>
-3.5116

> <Gold.PLP.part.metal>
0.0000

> <Gold.PLP.part.buried>
3.7090

> <Gold.PLP.part.nonpolar>
-21.7478

> <Gold.PLP.part.repulsive>
1.1389

> <Gold.PLP.ligand.clash>
0.0000

> <Gold.PLP.ligand.torsion>
0.0760

> <Gold.PLP.Chemscore.Hbond>
1.8400

> <Gold.PLP.Chemscore.CHOScore>
0.0000

> <Gold.PLP.Chemscore.Metal>
0.0000

> <Gold.Chemscore.Hbonds>
donor molecule, donor type, donor heavy atom, donor atom, acceptor molecule, acceptor atom, score
      L1  H     8    22       P1   171  1.00
      P1  H  2260  2267       L1     9  0.90

> <Gold.PLP.Chemscore.Internal.Correction>
   9.000000E+99

