#       Name:                CT1002167954
#       Creating user name   hitesit
#       Creation time:       Sun Apr 16 02:22:11 2023


#       File generated by GOLD software.
#

@<TRIPOS>MOLECULE
CT1002167954|ligand_prepared|mol2|1|dock1
    29    30     1
SMALL
NO_CHARGES


@<TRIPOS>ATOM
      1 C1          13.4060  21.1929 -12.6698 C.3            1 RES1               0.0000
      2 C2          14.5785  21.9577 -12.0223 C.ar           1 RES1               0.0000
      3 C3          12.4971  20.7535 -11.5256 C.2            1 RES1               0.0000
      4 C4          12.7515  22.1632 -13.6469 C.2            1 RES1               0.0000
      5 C5          13.8404  19.9376 -13.4619 C.3            1 RES1               0.0000
      6 C6          14.3657  23.1815 -11.3949 C.ar           1 RES1               0.0000
      7 C7          15.8755  21.4518 -12.0420 C.ar           1 RES1               0.0000
      8 N8          11.3163  21.4170 -11.3663 N.am           1 RES1               0.0000
      9 O9          12.8293  19.8648 -10.7509 O.2            1 RES1               0.0000
     10 N10         11.4714  22.5748 -13.3825 N.am           1 RES1               0.0000
     11 O11         13.3386  22.5880 -14.6343 O.2            1 RES1               0.0000
     12 C12         12.6978  19.2448 -14.1875 C.3            1 RES1               0.0000
     13 C13         15.4112  23.8732 -10.8058 C.ar           1 RES1               0.0000
     14 C14         16.9196  22.1452 -11.4526 C.ar           1 RES1               0.0000
     15 C15         10.7353  22.2696 -12.2702 C.2            1 RES1               0.0000
     16 C16         16.6886  23.3554 -10.8339 C.ar           1 RES1               0.0000
     17 O17          9.6107  22.7224 -12.0772 O.2            1 RES1               0.0000
     18 H18         14.6003  20.2295 -14.1972 H              1 RES1               0.0000
     19 H19         14.3019  19.2244 -12.7678 H              1 RES1               0.0000
     20 H20         13.3677  23.6059 -11.3650 H              1 RES1               0.0000
     21 H21         16.0809  20.5020 -12.5240 H              1 RES1               0.0000
     22 H22         10.8194  21.2652 -10.4943 H              1 RES1               0.0000
     23 H23         11.0260  23.1630 -14.0796 H              1 RES1               0.0000
     24 H24         13.0570  18.3709 -14.7270 H              1 RES1               0.0000
     25 H25         11.9351  18.9185 -13.4834 H              1 RES1               0.0000
     26 H26         12.2317  19.9177 -14.9043 H              1 RES1               0.0000
     27 H27         15.2244  24.8259 -10.3214 H              1 RES1               0.0000
     28 H28         17.9234  21.7342 -11.4776 H              1 RES1               0.0000
     29 H29         17.5073  23.8973 -10.3720 H              1 RES1               0.0000
@<TRIPOS>BOND
    1    1    2 1     
    2    1    3 1     
    3    1    4 1     
    4    1    5 1     
    5    2    6 ar    
    6    2    7 ar    
    7    3    8 1     
    8    3    9 2     
    9    4   10 1     
   10    4   11 2     
   11    5   12 1     
   12    5   18 1     
   13    5   19 1     
   14    6   13 ar    
   15    6   20 1     
   16    7   14 ar    
   17    7   21 1     
   18    8   15 1     
   19    8   22 1     
   20   10   15 1     
   21   10   23 1     
   22   12   24 1     
   23   12   25 1     
   24   12   26 1     
   25   13   16 ar    
   26   13   27 1     
   27   14   16 ar    
   28   14   28 1     
   29   15   17 2     
   30   16   29 1     
@<TRIPOS>SUBSTRUCTURE
      1 RES1           1
@<TRIPOS>SET
DONOR_HYDROGENS      STATIC     ATOMS    <user>   **** ""
2 22 23
ATOM$RED        STATIC     ATOMS    COLORGROUP SYSTEM
2 22 23
@<TRIPOS>COMMENT
> <Gold.Version>
2022.3.0

> <Gold.Id.Protein>
unknown|4i1b_cavity_clean|pdb

> <Gold.Protein.RotatedTorsions>
[ 2175 2168 2166 2163 ] final   59.15 input   59.99 | X-H torsion
[  175  171  170  167 ] final   63.71 input   60.02 | X-H torsion
[ 2273 2266 2264 2261 ] final  142.53 input   60.00 | X-H torsion

> <Gold.Protein.ActiveResidues>
 SER13   GLN14   ILE106  GLU111  GLN126  THR137  LYS138  GLY139  GLY140  GLN141 
 ASP142  ILE143  THR144  ASP145 

> <Gold.Protein.RotatedAtoms>
    8.6637   20.3177  -10.2855 H   0  0  0  0  0  0  0  0  0  0  0  0  # atno 175  bound_to 171 
   20.0791   16.7857  -16.5898 H   0  0  0  0  0  0  0  0  0  0  0  0  # atno 2175 bound_to 2168
   17.6264   20.2369   -9.7450 H   0  0  0  0  0  0  0  0  0  0  0  0  # atno 2273 bound_to 2266
   19.4726   15.4956  -15.8043 LP  0  0  0  0  0  0  0  0  0  0  0  0  # atno 2422 bound_to 2168
   20.1810   15.3076  -17.2636 LP  0  0  0  0  0  0  0  0  0  0  0  0  # atno 2423 bound_to 2168
    9.7608   19.8125   -9.1948 LP  0  0  0  0  0  0  0  0  0  0  0  0  # atno 2434 bound_to 171 
   10.1530   20.9739  -10.2736 LP  0  0  0  0  0  0  0  0  0  0  0  0  # atno 2435 bound_to 171 
   16.0152   20.3525   -9.5477 LP  0  0  0  0  0  0  0  0  0  0  0  0  # atno 2464 bound_to 2266
   16.6278   19.5854  -10.8526 LP  0  0  0  0  0  0  0  0  0  0  0  0  # atno 2465 bound_to 2266

> <Gold.Score>
     Fitness  S(hb_ext) S(vdw_ext)  S(hb_int)    S(int)      intcor
     29.84       1.52      20.61       0.00      -0.01      -0.76

> <Gold.Goldscore.Fitness>
29.8423

> <Gold.Goldscore.Internal.Vdw>
-0.3713

> <Gold.Goldscore.Internal.Torsion>
-0.3972

> <Gold.Goldscore.External.Vdw>
20.6059

> <Gold.Goldscore.Internal.HBond>
0.0000

> <Gold.Goldscore.External.HBond>
1.5191

> <Gold.Goldscore.Internal.Correction>
-0.7585

> <Gold.Goldscore.Hbonds>
donor molecule, donor type, donor heavy atom, donor atom, acceptor molecule, acceptor atom, score
      P1  H  2274  2282       L1     9  0.05
      P1  H  2260  2267       L1     9  0.36
      L1  H     8    22       P1   171  0.35

> <Gold.Goldscore.Internal.Vdw.Weighted>
-0.3713

> <Gold.Goldscore.Internal.Torsion.Weighted>
-0.3972

> <Gold.Goldscore.External.Vdw.Weighted>
28.3332

> <Gold.Goldscore.Internal.HBond.Weighted>
0.0000

> <Gold.Goldscore.External.HBond.Weighted>
1.5191

> <Gold.Goldscore.Internal.Correction.Weighted>
-0.7585

> <Gold.Rescore>
     Score     S(PLP)   S(hbond)     S(cho)   S(metal)  DE(clash)   DE(tors)     intcor
     26.24     -21.19       1.74       0.00       0.00       0.00       0.09       ----

> <Gold.PLP.Fitness>
26.2406

> <Gold.PLP.PLP>
-21.1889

> <Gold.PLP.part.hbond>
-4.0000

> <Gold.PLP.part.metal>
0.0000

> <Gold.PLP.part.buried>
2.9034

> <Gold.PLP.part.nonpolar>
-20.3503

> <Gold.PLP.part.repulsive>
1.1273

> <Gold.PLP.ligand.clash>
0.0000

> <Gold.PLP.ligand.torsion>
0.0901

> <Gold.PLP.Chemscore.Hbond>
1.7440

> <Gold.PLP.Chemscore.CHOScore>
0.0000

> <Gold.PLP.Chemscore.Metal>
0.0000

> <Gold.Chemscore.Hbonds>
donor molecule, donor type, donor heavy atom, donor atom, acceptor molecule, acceptor atom, score
      L1  H     8    22       P1   171  0.94
      P1  H  2274  2282       L1     9  0.27
      P1  H  2260  2267       L1     9  0.90

> <Gold.PLP.Chemscore.Internal.Correction>
   9.000000E+99

