#       Name:                CT1002167954
#       Creating user name   hitesit
#       Creation time:       Sun Apr 16 02:22:16 2023


#       File generated by GOLD software.
#

@<TRIPOS>MOLECULE
CT1002167954|ligand_prepared|mol2|1|dock9
    29    30     1
SMALL
NO_CHARGES


@<TRIPOS>ATOM
      1 C1          14.1631  21.4121 -13.4586 C.3            1 RES1               0.0000
      2 C2          13.0281  20.7946 -14.3007 C.ar           1 RES1               0.0000
      3 C3          14.4688  22.7707 -14.0822 C.2            1 RES1               0.0000
      4 C4          13.6403  21.4876 -12.0283 C.2            1 RES1               0.0000
      5 C5          15.4618  20.5726 -13.4489 C.3            1 RES1               0.0000
      6 C6          12.7552  19.4317 -14.2313 C.ar           1 RES1               0.0000
      7 C7          12.2451  21.5740 -15.1481 C.ar           1 RES1               0.0000
      8 N8          14.0490  23.8822 -13.4127 N.am           1 RES1               0.0000
      9 O9          15.0348  22.8642 -15.1644 O.2            1 RES1               0.0000
     10 N10         13.4513  22.7285 -11.4784 N.am           1 RES1               0.0000
     11 O11         13.3747  20.4840 -11.3783 O.2            1 RES1               0.0000
     12 C12         16.6383  21.2708 -12.7852 C.3            1 RES1               0.0000
     13 C13         11.7346  18.8688 -14.9796 C.ar           1 RES1               0.0000
     14 C14         11.2251  21.0090 -15.8957 C.ar           1 RES1               0.0000
     15 C15         13.6028  23.9294 -12.1164 C.2            1 RES1               0.0000
     16 C16         10.9687  19.6570 -15.8119 C.ar           1 RES1               0.0000
     17 O17         13.3609  25.0025 -11.5714 O.2            1 RES1               0.0000
     18 H18         15.2686  19.6294 -12.9232 H              1 RES1               0.0000
     19 H19         15.7332  20.3301 -14.4838 H              1 RES1               0.0000
     20 H20         13.3489  18.7952 -13.5837 H              1 RES1               0.0000
     21 H21         12.4295  22.6397 -15.2309 H              1 RES1               0.0000
     22 H22         14.0685  24.7594 -13.9231 H              1 RES1               0.0000
     23 H23         13.1719  22.7598 -10.5031 H              1 RES1               0.0000
     24 H24         17.5235  20.6386 -12.8056 H              1 RES1               0.0000
     25 H25         16.8742  22.2008 -13.2981 H              1 RES1               0.0000
     26 H26         16.4124  21.5043 -11.7468 H              1 RES1               0.0000
     27 H27         11.5377  17.8040 -14.9110 H              1 RES1               0.0000
     28 H28         10.6253  21.6331 -16.5499 H              1 RES1               0.0000
     29 H29         10.1690  19.2159 -16.3976 H              1 RES1               0.0000
@<TRIPOS>BOND
    1    1    2 1     
    2    1    3 1     
    3    1    4 1     
    4    1    5 1     
    5    2    6 ar    
    6    2    7 ar    
    7    3    8 1     
    8    3    9 2     
    9    4   10 1     
   10    4   11 2     
   11    5   12 1     
   12    5   18 1     
   13    5   19 1     
   14    6   13 ar    
   15    6   20 1     
   16    7   14 ar    
   17    7   21 1     
   18    8   15 1     
   19    8   22 1     
   20   10   15 1     
   21   10   23 1     
   22   12   24 1     
   23   12   25 1     
   24   12   26 1     
   25   13   16 ar    
   26   13   27 1     
   27   14   16 ar    
   28   14   28 1     
   29   15   17 2     
   30   16   29 1     
@<TRIPOS>SUBSTRUCTURE
      1 RES1           1
@<TRIPOS>SET
DONOR_HYDROGENS      STATIC     ATOMS    <user>   **** ""
2 22 23
ATOM$RED        STATIC     ATOMS    COLORGROUP SYSTEM
2 22 23
@<TRIPOS>COMMENT
> <Gold.Version>
2022.3.0

> <Gold.Id.Protein>
unknown|4i1b_cavity_clean|pdb

> <Gold.Protein.RotatedTorsions>
[ 2175 2168 2166 2163 ] final  -26.97 input   59.99 | X-H torsion
[  175  171  170  167 ] final -136.03 input   60.02 | X-H torsion
[ 2273 2266 2264 2261 ] final  101.52 input   60.00 | X-H torsion

> <Gold.Protein.ActiveResidues>
 SER13   GLN14   ILE106  GLU111  GLN126  THR137  LYS138  GLY139  GLY140  GLN141 
 ASP142  ILE143  THR144  ASP145 

> <Gold.Protein.RotatedAtoms>
   10.4086   20.6421   -9.7808 H   0  0  0  0  0  0  0  0  0  0  0  0  # atno 175  bound_to 171 
   19.5186   16.0345  -15.7194 H   0  0  0  0  0  0  0  0  0  0  0  0  # atno 2175 bound_to 2168
   17.1828   20.4815   -9.3281 H   0  0  0  0  0  0  0  0  0  0  0  0  # atno 2273 bound_to 2266
   19.9402   14.9850  -16.8898 LP  0  0  0  0  0  0  0  0  0  0  0  0  # atno 2422 bound_to 2168
   20.2775   16.5743  -17.0543 LP  0  0  0  0  0  0  0  0  0  0  0  0  # atno 2423 bound_to 2168
    9.0099   20.7614  -10.6043 LP  0  0  0  0  0  0  0  0  0  0  0  0  # atno 2434 bound_to 171 
    9.1471   19.6984   -9.3723 LP  0  0  0  0  0  0  0  0  0  0  0  0  # atno 2435 bound_to 171 
   15.8170   20.0326  -10.0907 LP  0  0  0  0  0  0  0  0  0  0  0  0  # atno 2464 bound_to 2266
   17.2727   19.6589  -10.7295 LP  0  0  0  0  0  0  0  0  0  0  0  0  # atno 2465 bound_to 2266

> <Gold.Score>
     Fitness  S(hb_ext) S(vdw_ext)  S(hb_int)    S(int)      intcor
     27.89       3.56      18.53       0.00      -1.15      -0.76

> <Gold.Goldscore.Fitness>
27.8861

> <Gold.Goldscore.Internal.Vdw>
-1.4319

> <Gold.Goldscore.Internal.Torsion>
-0.4772

> <Gold.Goldscore.External.Vdw>
18.5306

> <Gold.Goldscore.Internal.HBond>
0.0000

> <Gold.Goldscore.External.HBond>
3.5600

> <Gold.Goldscore.Internal.Correction>
-0.7556

> <Gold.Goldscore.Hbonds>
donor molecule, donor type, donor heavy atom, donor atom, acceptor molecule, acceptor atom, score
      P1  H  2205  2209       L1     9  0.54
      P1  H  2260  2267       L1    11  0.87
      L1  H    10    23       P1  2281  0.13

> <Gold.Goldscore.Internal.Vdw.Weighted>
-1.4319

> <Gold.Goldscore.Internal.Torsion.Weighted>
-0.4772

> <Gold.Goldscore.External.Vdw.Weighted>
25.4796

> <Gold.Goldscore.Internal.HBond.Weighted>
0.0000

> <Gold.Goldscore.External.HBond.Weighted>
3.5600

> <Gold.Goldscore.Internal.Correction.Weighted>
-0.7556

> <Gold.Rescore>
     Score     S(PLP)   S(hbond)     S(cho)   S(metal)  DE(clash)   DE(tors)     intcor
     28.45     -22.15       2.63       0.00       0.00       0.84       0.37       ----

> <Gold.PLP.Fitness>
28.4477

> <Gold.PLP.PLP>
-22.1545

> <Gold.PLP.part.hbond>
-2.3277

> <Gold.PLP.part.metal>
0.0000

> <Gold.PLP.part.buried>
2.0060

> <Gold.PLP.part.nonpolar>
-25.5265

> <Gold.PLP.part.repulsive>
3.8106

> <Gold.PLP.ligand.clash>
0.8354

> <Gold.PLP.ligand.torsion>
0.3743

> <Gold.PLP.Chemscore.Hbond>
2.6257

> <Gold.PLP.Chemscore.CHOScore>
0.0000

> <Gold.PLP.Chemscore.Metal>
0.0000

> <Gold.Chemscore.Hbonds>
donor molecule, donor type, donor heavy atom, donor atom, acceptor molecule, acceptor atom, score
      L1  H    10    23       P1  2281  0.58
      P1  H  2205  2209       L1     9  0.54
      P1  H  2260  2267       L1    11  0.98

> <Gold.PLP.Chemscore.Internal.Correction>
   9.000000E+99

