#       Name:                CT1002167954
#       Creating user name   hitesit
#       Creation time:       Sun Apr 16 02:22:14 2023


#       File generated by GOLD software.
#

@<TRIPOS>MOLECULE
CT1002167954|ligand_prepared|mol2|1|dock6
    29    30     1
SMALL
NO_CHARGES


@<TRIPOS>ATOM
      1 C1          14.5314  22.0977 -13.0330 C.3            1 RES1               0.0000
      2 C2          13.4510  21.0255 -13.2820 C.ar           1 RES1               0.0000
      3 C3          14.1731  23.2823 -13.9255 C.2            1 RES1               0.0000
      4 C4          14.4887  22.4078 -11.5407 C.2            1 RES1               0.0000
      5 C5          15.9644  21.6341 -13.3838 C.3            1 RES1               0.0000
      6 C6          12.1563  21.1994 -12.8023 C.ar           1 RES1               0.0000
      7 C7          13.7329  19.8607 -13.9907 C.ar           1 RES1               0.0000
      8 N8          13.6513  24.3904 -13.3256 N.am           1 RES1               0.0000
      9 O9          14.3094  23.2303 -15.1416 O.2            1 RES1               0.0000
     10 N10         14.0941  23.6627 -11.1567 N.am           1 RES1               0.0000
     11 O11         14.7772  21.5717 -10.6935 O.2            1 RES1               0.0000
     12 C12         17.0451  22.6255 -12.9822 C.3            1 RES1               0.0000
     13 C13         11.1779  20.2448 -13.0255 C.ar           1 RES1               0.0000
     14 C14         12.7530  18.9072 -14.2126 C.ar           1 RES1               0.0000
     15 C15         13.6441  24.6583 -11.9803 C.2            1 RES1               0.0000
     16 C16         11.4754  19.0984 -13.7311 C.ar           1 RES1               0.0000
     17 O17         13.2546  25.7422 -11.5552 O.2            1 RES1               0.0000
     18 H18         16.1587  20.6778 -12.8828 H              1 RES1               0.0000
     19 H19         16.0256  21.4643 -14.4658 H              1 RES1               0.0000
     20 H20         11.9041  22.0941 -12.2428 H              1 RES1               0.0000
     21 H21         14.7314  19.6885 -14.3779 H              1 RES1               0.0000
     22 H22         13.2272  25.0839 -13.9335 H              1 RES1               0.0000
     23 H23         14.1404  23.8742 -10.1650 H              1 RES1               0.0000
     24 H24         18.0308  22.2514 -13.2509 H              1 RES1               0.0000
     25 H25         16.8973  23.5807 -13.4818 H              1 RES1               0.0000
     26 H26         17.0297  22.7988 -11.9081 H              1 RES1               0.0000
     27 H27         10.1743  20.3994 -12.6433 H              1 RES1               0.0000
     28 H28         12.9918  18.0062 -14.7679 H              1 RES1               0.0000
     29 H29         10.7087  18.3509 -13.9062 H              1 RES1               0.0000
@<TRIPOS>BOND
    1    1    2 1     
    2    1    3 1     
    3    1    4 1     
    4    1    5 1     
    5    2    6 ar    
    6    2    7 ar    
    7    3    8 1     
    8    3    9 2     
    9    4   10 1     
   10    4   11 2     
   11    5   12 1     
   12    5   18 1     
   13    5   19 1     
   14    6   13 ar    
   15    6   20 1     
   16    7   14 ar    
   17    7   21 1     
   18    8   15 1     
   19    8   22 1     
   20   10   15 1     
   21   10   23 1     
   22   12   24 1     
   23   12   25 1     
   24   12   26 1     
   25   13   16 ar    
   26   13   27 1     
   27   14   16 ar    
   28   14   28 1     
   29   15   17 2     
   30   16   29 1     
@<TRIPOS>SUBSTRUCTURE
      1 RES1           1
@<TRIPOS>SET
DONOR_HYDROGENS      STATIC     ATOMS    <user>   **** ""
2 22 23
ATOM$RED        STATIC     ATOMS    COLORGROUP SYSTEM
2 22 23
@<TRIPOS>COMMENT
> <Gold.Version>
2022.3.0

> <Gold.Id.Protein>
unknown|4i1b_cavity_clean|pdb

> <Gold.Protein.RotatedTorsions>
[ 2175 2168 2166 2163 ] final -170.42 input   59.99 | X-H torsion
[  175  171  170  167 ] final  -89.42 input   60.02 | X-H torsion
[ 2273 2266 2264 2261 ] final   29.39 input   60.00 | X-H torsion

> <Gold.Protein.ActiveResidues>
 SER13   GLN14   ILE106  GLU111  GLN126  THR137  LYS138  GLY139  GLY140  GLN141 
 ASP142  ILE143  THR144  ASP145 

> <Gold.Protein.RotatedAtoms>
   10.1888   20.1136   -9.3103 H   0  0  0  0  0  0  0  0  0  0  0  0  # atno 175  bound_to 171 
   20.1141   15.1854  -17.1645 H   0  0  0  0  0  0  0  0  0  0  0  0  # atno 2175 bound_to 2168
   16.0945   20.3916   -9.4778 H   0  0  0  0  0  0  0  0  0  0  0  0  # atno 2273 bound_to 2266
   20.1492   16.7571  -16.7430 LP  0  0  0  0  0  0  0  0  0  0  0  0  # atno 2422 bound_to 2168
   19.4691   15.6567  -15.7464 LP  0  0  0  0  0  0  0  0  0  0  0  0  # atno 2423 bound_to 2168
    9.7029   21.0341  -10.5615 LP  0  0  0  0  0  0  0  0  0  0  0  0  # atno 2434 bound_to 171 
    8.6755   19.9577   -9.8888 LP  0  0  0  0  0  0  0  0  0  0  0  0  # atno 2435 bound_to 171 
   16.5173   19.5966  -10.8334 LP  0  0  0  0  0  0  0  0  0  0  0  0  # atno 2464 bound_to 2266
   17.6685   20.1854   -9.8361 LP  0  0  0  0  0  0  0  0  0  0  0  0  # atno 2465 bound_to 2266

> <Gold.Score>
     Fitness  S(hb_ext) S(vdw_ext)  S(hb_int)    S(int)      intcor
     24.87       0.28      17.88       0.00      -0.00      -0.76

> <Gold.Goldscore.Fitness>
24.8717

> <Gold.Goldscore.Internal.Vdw>
-0.3161

> <Gold.Goldscore.Internal.Torsion>
-0.4433

> <Gold.Goldscore.External.Vdw>
17.8848

> <Gold.Goldscore.Internal.HBond>
0.0000

> <Gold.Goldscore.External.HBond>
0.2839

> <Gold.Goldscore.Internal.Correction>
-0.7556

> <Gold.Goldscore.Hbonds>
donor molecule, donor type, donor heavy atom, donor atom, acceptor molecule, acceptor atom, score
      P1  H  2205  2209       L1     9  0.05
      P1  H  2260  2267       L1    11  0.09

> <Gold.Goldscore.Internal.Vdw.Weighted>
-0.3161

> <Gold.Goldscore.Internal.Torsion.Weighted>
-0.4433

> <Gold.Goldscore.External.Vdw.Weighted>
24.5917

> <Gold.Goldscore.Internal.HBond.Weighted>
0.0000

> <Gold.Goldscore.External.HBond.Weighted>
0.2839

> <Gold.Goldscore.Internal.Correction.Weighted>
-0.7556

> <Gold.Rescore>
     Score     S(PLP)   S(hbond)     S(cho)   S(metal)  DE(clash)   DE(tors)     intcor
     20.77     -18.46       1.58       0.00       0.00       0.08       1.17       ----

> <Gold.PLP.Fitness>
20.7660

> <Gold.PLP.PLP>
-18.4642

> <Gold.PLP.part.hbond>
-2.0000

> <Gold.PLP.part.metal>
0.0000

> <Gold.PLP.part.buried>
0.9061

> <Gold.PLP.part.nonpolar>
-22.2184

> <Gold.PLP.part.repulsive>
5.1596

> <Gold.PLP.ligand.clash>
0.0840

> <Gold.PLP.ligand.torsion>
1.1749

> <Gold.PLP.Chemscore.Hbond>
1.5786

> <Gold.PLP.Chemscore.CHOScore>
0.0000

> <Gold.PLP.Chemscore.Metal>
0.0000

> <Gold.Chemscore.Hbonds>
donor molecule, donor type, donor heavy atom, donor atom, acceptor molecule, acceptor atom, score
      P1  H  2266  2273       L1    11  0.38

> <Gold.PLP.Chemscore.Internal.Correction>
   9.000000E+99

