#       Name:                CT1002167954
#       Creating user name   hitesit
#       Creation time:       Sun Apr 16 20:20:13 2023


#       File generated by GOLD software.
#

@<TRIPOS>MOLECULE
CT1002167954|ligand_prepared|mol2|1|dock4
    29    30     1
SMALL
NO_CHARGES


@<TRIPOS>ATOM
      1 C1         205.6799  46.5745  69.9352 C.3            1 RES1               0.0000
      2 C2         205.9438  47.3293  68.6163 C.ar           1 RES1               0.0000
      3 C3         204.3022  45.9338  69.7939 C.2            1 RES1               0.0000
      4 C4         206.8190  45.5728  70.0888 C.2            1 RES1               0.0000
      5 C5         205.6723  47.4848  71.1853 C.3            1 RES1               0.0000
      6 C6         206.6932  46.7419  67.6014 C.ar           1 RES1               0.0000
      7 C7         205.4431  48.6102  68.3993 C.ar           1 RES1               0.0000
      8 N8         204.2497  44.5852  69.5982 N.am           1 RES1               0.0000
      9 O9         203.2793  46.6071  69.8142 O.2            1 RES1               0.0000
     10 N10        206.5125  44.2384  70.0332 N.am           1 RES1               0.0000
     11 O11        207.9816  45.9272  70.2408 O.2            1 RES1               0.0000
     12 C12        205.6001  46.7221  72.4988 C.3            1 RES1               0.0000
     13 C13        206.9310  47.4095  66.4115 C.ar           1 RES1               0.0000
     14 C14        205.6822  49.2762  67.2086 C.ar           1 RES1               0.0000
     15 C15        205.2839  43.6995  69.7642 C.2            1 RES1               0.0000
     16 C16        206.4254  48.6768  66.2140 C.ar           1 RES1               0.0000
     17 O17        205.0979  42.4891  69.6766 O.2            1 RES1               0.0000
     18 H18        206.5827  48.0968  71.1820 H              1 RES1               0.0000
     19 H19        204.8122  48.1629  71.1231 H              1 RES1               0.0000
     20 H20        207.1013  45.7462  67.7397 H              1 RES1               0.0000
     21 H21        204.8566  49.1018  69.1681 H              1 RES1               0.0000
     22 H22        203.3591  44.1995  69.3009 H              1 RES1               0.0000
     23 H23        207.2704  43.5864  70.2088 H              1 RES1               0.0000
     24 H24        205.5976  47.4078  73.3434 H              1 RES1               0.0000
     25 H25        204.6939  46.1218  72.5470 H              1 RES1               0.0000
     26 H26        206.4539  46.0561  72.6054 H              1 RES1               0.0000
     27 H27        207.5176  46.9339  65.6324 H              1 RES1               0.0000
     28 H28        205.2829  50.2737  67.0578 H              1 RES1               0.0000
     29 H29        206.6115  49.1994  65.2816 H              1 RES1               0.0000
@<TRIPOS>BOND
    1    1    2 1     
    2    1    3 1     
    3    1    4 1     
    4    1    5 1     
    5    2    6 ar    
    6    2    7 ar    
    7    3    8 1     
    8    3    9 2     
    9    4   10 1     
   10    4   11 2     
   11    5   12 1     
   12    5   18 1     
   13    5   19 1     
   14    6   13 ar    
   15    6   20 1     
   16    7   14 ar    
   17    7   21 1     
   18    8   15 1     
   19    8   22 1     
   20   10   15 1     
   21   10   23 1     
   22   12   24 1     
   23   12   25 1     
   24   12   26 1     
   25   13   16 ar    
   26   13   27 1     
   27   14   16 ar    
   28   14   28 1     
   29   15   17 2     
   30   16   29 1     
@<TRIPOS>SUBSTRUCTURE
      1 RES1           1
@<TRIPOS>SET
DONOR_HYDROGENS      STATIC     ATOMS    <user>   **** ""
2 22 23
ATOM$RED        STATIC     ATOMS    COLORGROUP SYSTEM
2 22 23
@<TRIPOS>COMMENT
> <Gold.Version>
2022.3.0

> <Gold.Id.Protein>
unknown|4v3u_clean|pdb

> <Gold.Protein.RotatedTorsions>
[ 9551 9506 9505 9503 ] final  -65.67 input   60.01 | X-H torsion
[ 7905 7872 7871 7868 ] final -163.46 input   60.03 | X-H torsion
[ 7981 7919 7918 7917 ] final -173.63 input   59.99 | X-H torsion

> <Gold.Protein.ActiveResidues>
 ASP403  THR404  ILE407  TYR408  ALA410  LYS411  TRP414  GLN425  TRP426  SER427 
 LYS428  LEU429  GLN430  VAL431  PHE432  ASP433  TYR453  SER462  ALA463  ILE464 

> <Gold.Protein.RotatedAtoms>
  203.8604   44.6191   60.1757 H   0  0  0  0  0  0  0  0  0  0  0  0  # atno 7905 bound_to 7872
  200.7841   46.5647   67.8383 H   0  0  0  0  0  0  0  0  0  0  0  0  # atno 7981 bound_to 7919
  200.8504   46.7405   66.1909 H   0  0  0  0  0  0  0  0  0  0  0  0  # atno 7982 bound_to 7919
  201.1105   45.2546   66.8758 H   0  0  0  0  0  0  0  0  0  0  0  0  # atno 7983 bound_to 7919
  208.7370   45.6724   72.2453 H   0  0  0  0  0  0  0  0  0  0  0  0  # atno 9551 bound_to 9506
  208.0222   46.7436   73.2404 LP  0  0  0  0  0  0  0  0  0  0  0  0  # atno 27216 bound_to 9506
  207.3186   45.2988   72.9505 LP  0  0  0  0  0  0  0  0  0  0  0  0  # atno 27217 bound_to 9506
  204.0451   44.7303   61.7884 LP  0  0  0  0  0  0  0  0  0  0  0  0  # atno 27226 bound_to 7872
  204.1230   43.2743   61.0530 LP  0  0  0  0  0  0  0  0  0  0  0  0  # atno 27227 bound_to 7872

> <Gold.Score>
     Fitness  S(hb_ext) S(vdw_ext)  S(hb_int)    S(int)      intcor
     26.90       1.50      19.16       0.00      -0.95      -0.76

> <Gold.Goldscore.Fitness>
26.8952

> <Gold.Goldscore.Internal.Vdw>
-1.2479

> <Gold.Goldscore.Internal.Torsion>
-0.4621

> <Gold.Goldscore.External.Vdw>
19.1572

> <Gold.Goldscore.Internal.HBond>
0.0000

> <Gold.Goldscore.External.HBond>
1.4991

> <Gold.Goldscore.Internal.Correction>
-0.7650

> <Gold.Goldscore.Hbonds>
donor molecule, donor type, donor heavy atom, donor atom, acceptor molecule, acceptor atom, score
      L1  H    10    23       P1 10078  0.75

> <Gold.Goldscore.Internal.Vdw.Weighted>
-1.2479

> <Gold.Goldscore.Internal.Torsion.Weighted>
-0.4621

> <Gold.Goldscore.External.Vdw.Weighted>
26.3412

> <Gold.Goldscore.Internal.HBond.Weighted>
0.0000

> <Gold.Goldscore.External.HBond.Weighted>
1.4991

> <Gold.Goldscore.Internal.Correction.Weighted>
-0.7650

> <Gold.Rescore>
     Score     S(PLP)   S(hbond)     S(cho)   S(metal)  DE(clash)   DE(tors)     intcor
     22.67     -23.15       0.85       0.00       0.00       0.95       1.04       ----

> <Gold.PLP.Fitness>
22.6669

> <Gold.PLP.PLP>
-23.1492

> <Gold.PLP.part.hbond>
-2.0750

> <Gold.PLP.part.metal>
0.0000

> <Gold.PLP.part.buried>
2.3005

> <Gold.PLP.part.nonpolar>
-24.2231

> <Gold.PLP.part.repulsive>
0.4836

> <Gold.PLP.ligand.clash>
0.9540

> <Gold.PLP.ligand.torsion>
1.0437

> <Gold.PLP.Chemscore.Hbond>
0.8530

> <Gold.PLP.Chemscore.CHOScore>
0.0000

> <Gold.PLP.Chemscore.Metal>
0.0000

> <Gold.Chemscore.Hbonds>
donor molecule, donor type, donor heavy atom, donor atom, acceptor molecule, acceptor atom, score
      P1  H  9506  9551       L1    11  0.43

> <Gold.PLP.Chemscore.Internal.Correction>
   9.000000E+99

