#       Name:                CT1002167954
#       Creating user name   hitesit
#       Creation time:       Sun Apr 16 20:20:15 2023


#       File generated by GOLD software.
#

@<TRIPOS>MOLECULE
CT1002167954|ligand_prepared|mol2|1|dock8
    29    30     1
SMALL
NO_CHARGES


@<TRIPOS>ATOM
      1 C1         205.1053  46.4012  70.1804 C.3            1 RES1               0.0000
      2 C2         203.5891  46.1250  70.1191 C.ar           1 RES1               0.0000
      3 C3         205.6901  45.3698  71.1408 C.2            1 RES1               0.0000
      4 C4         205.6190  46.2808  68.7499 C.2            1 RES1               0.0000
      5 C5         205.4626  47.8136  70.6991 C.3            1 RES1               0.0000
      6 C6         203.1089  44.8210  70.0431 C.ar           1 RES1               0.0000
      7 C7         202.6601  47.1618  70.1403 C.ar           1 RES1               0.0000
      8 N8         206.4092  44.3429  70.6040 N.am           1 RES1               0.0000
      9 O9         205.4901  45.4347  72.3475 O.2            1 RES1               0.0000
     10 N10        206.4860  45.2593  68.4629 N.am           1 RES1               0.0000
     11 O11        205.2678  47.0515  67.8650 O.2            1 RES1               0.0000
     12 C12        206.9504  48.0224  70.9334 C.3            1 RES1               0.0000
     13 C13        201.7491  44.5627  69.9931 C.ar           1 RES1               0.0000
     14 C14        201.3006  46.9013  70.0900 C.ar           1 RES1               0.0000
     15 C15        206.8804  44.2665  69.3179 C.2            1 RES1               0.0000
     16 C16        200.8441  45.6024  70.0170 C.ar           1 RES1               0.0000
     17 O17        207.6201  43.3503  68.9707 O.2            1 RES1               0.0000
     18 H18        205.1120  48.5560  69.9717 H              1 RES1               0.0000
     19 H19        204.9288  47.9892  71.6413 H              1 RES1               0.0000
     20 H20        203.8061  43.9901  70.0208 H              1 RES1               0.0000
     21 H21        202.9963  48.1916  70.1964 H              1 RES1               0.0000
     22 H22        206.6157  43.5592  71.2152 H              1 RES1               0.0000
     23 H23        206.8734  45.2369  67.5249 H              1 RES1               0.0000
     24 H24        207.1461  49.0291  71.2967 H              1 RES1               0.0000
     25 H25        207.3276  47.3168  71.6707 H              1 RES1               0.0000
     26 H26        207.5098  47.8803  70.0110 H              1 RES1               0.0000
     27 H27        201.3949  43.5388  69.9343 H              1 RES1               0.0000
     28 H28        200.5920  47.7227  70.1084 H              1 RES1               0.0000
     29 H29        199.7789  45.3998  69.9782 H              1 RES1               0.0000
@<TRIPOS>BOND
    1    1    2 1     
    2    1    3 1     
    3    1    4 1     
    4    1    5 1     
    5    2    6 ar    
    6    2    7 ar    
    7    3    8 1     
    8    3    9 2     
    9    4   10 1     
   10    4   11 2     
   11    5   12 1     
   12    5   18 1     
   13    5   19 1     
   14    6   13 ar    
   15    6   20 1     
   16    7   14 ar    
   17    7   21 1     
   18    8   15 1     
   19    8   22 1     
   20   10   15 1     
   21   10   23 1     
   22   12   24 1     
   23   12   25 1     
   24   12   26 1     
   25   13   16 ar    
   26   13   27 1     
   27   14   16 ar    
   28   14   28 1     
   29   15   17 2     
   30   16   29 1     
@<TRIPOS>SUBSTRUCTURE
      1 RES1           1
@<TRIPOS>SET
DONOR_HYDROGENS      STATIC     ATOMS    <user>   **** ""
2 22 23
ATOM$RED        STATIC     ATOMS    COLORGROUP SYSTEM
2 22 23
@<TRIPOS>COMMENT
> <Gold.Version>
2022.3.0

> <Gold.Id.Protein>
unknown|4v3u_clean|pdb

> <Gold.Protein.RotatedTorsions>
[ 9551 9506 9505 9503 ] final   97.82 input   60.01 | X-H torsion
[ 7905 7872 7871 7868 ] final -110.11 input   60.03 | X-H torsion
[ 7981 7919 7918 7917 ] final   97.34 input   59.99 | X-H torsion

> <Gold.Protein.ActiveResidues>
 ASP403  THR404  ILE407  TYR408  ALA410  LYS411  TRP414  GLN425  TRP426  SER427 
 LYS428  LEU429  GLN430  VAL431  PHE432  ASP433  TYR453  SER462  ALA463  ILE464 

> <Gold.Protein.RotatedAtoms>
  203.9568   43.7844   60.1713 H   0  0  0  0  0  0  0  0  0  0  0  0  # atno 7905 bound_to 7872
  201.0632   45.3343   67.3788 H   0  0  0  0  0  0  0  0  0  0  0  0  # atno 7981 bound_to 7919
  200.7251   46.9523   67.5097 H   0  0  0  0  0  0  0  0  0  0  0  0  # atno 7982 bound_to 7919
  200.9568   46.2734   66.0164 H   0  0  0  0  0  0  0  0  0  0  0  0  # atno 7983 bound_to 7919
  207.2339   45.8905   73.3075 H   0  0  0  0  0  0  0  0  0  0  0  0  # atno 9551 bound_to 9506
  208.2656   45.1614   72.2813 LP  0  0  0  0  0  0  0  0  0  0  0  0  # atno 27216 bound_to 9506
  208.5888   46.6614   72.8400 LP  0  0  0  0  0  0  0  0  0  0  0  0  # atno 27217 bound_to 9506
  203.9071   45.1443   61.0631 LP  0  0  0  0  0  0  0  0  0  0  0  0  # atno 27226 bound_to 7872
  204.1640   43.7012   61.7829 LP  0  0  0  0  0  0  0  0  0  0  0  0  # atno 27227 bound_to 7872

> <Gold.Score>
     Fitness  S(hb_ext) S(vdw_ext)  S(hb_int)    S(int)      intcor
     22.90       0.10      16.72       0.00      -0.19      -0.76

> <Gold.Goldscore.Fitness>
22.8986

> <Gold.Goldscore.Internal.Vdw>
-0.4915

> <Gold.Goldscore.Internal.Torsion>
-0.4623

> <Gold.Goldscore.External.Vdw>
16.7234

> <Gold.Goldscore.Internal.HBond>
0.0000

> <Gold.Goldscore.External.HBond>
0.0966

> <Gold.Goldscore.Internal.Correction>
-0.7610

> <Gold.Goldscore.Hbonds>
donor molecule, donor type, donor heavy atom, donor atom, acceptor molecule, acceptor atom, score
      P1  H  9506  9551       L1     9  0.05

> <Gold.Goldscore.Internal.Vdw.Weighted>
-0.4915

> <Gold.Goldscore.Internal.Torsion.Weighted>
-0.4623

> <Gold.Goldscore.External.Vdw.Weighted>
22.9947

> <Gold.Goldscore.Internal.HBond.Weighted>
0.0000

> <Gold.Goldscore.External.HBond.Weighted>
0.0966

> <Gold.Goldscore.Internal.Correction.Weighted>
-0.7610

> <Gold.Rescore>
     Score     S(PLP)   S(hbond)     S(cho)   S(metal)  DE(clash)   DE(tors)     intcor
     28.20     -28.73       0.00       0.00       0.00       0.00       0.27       ----

> <Gold.PLP.Fitness>
28.1982

> <Gold.PLP.PLP>
-28.7346

> <Gold.PLP.part.hbond>
-1.5676

> <Gold.PLP.part.metal>
0.0000

> <Gold.PLP.part.buried>
3.1194

> <Gold.PLP.part.nonpolar>
-31.5899

> <Gold.PLP.part.repulsive>
0.4589

> <Gold.PLP.ligand.clash>
0.0000

> <Gold.PLP.ligand.torsion>
0.2682

> <Gold.PLP.Chemscore.Hbond>
0.0000

> <Gold.PLP.Chemscore.CHOScore>
0.0000

> <Gold.PLP.Chemscore.Metal>
0.0000

> <Gold.Chemscore.Hbonds>
donor molecule, donor type, donor heavy atom, donor atom, acceptor molecule, acceptor atom, score
      P1  H  8075  8129       L1    17  0.14
      P1  H  9506  9551       L1     9  0.66

> <Gold.PLP.Chemscore.Internal.Correction>
   9.000000E+99

