#       Name:                CT1002167954
#       Creating user name   hitesit
#       Creation time:       Sun Apr 16 20:20:14 2023


#       File generated by GOLD software.
#

@<TRIPOS>MOLECULE
CT1002167954|ligand_prepared|mol2|1|dock5
    29    30     1
SMALL
NO_CHARGES


@<TRIPOS>ATOM
      1 C1         206.4358  47.3787  69.5549 C.3            1 RES1               0.0000
      2 C2         205.4756  46.3569  70.1972 C.ar           1 RES1               0.0000
      3 C3         207.8356  46.7823  69.6700 C.2            1 RES1               0.0000
      4 C4         205.9572  47.5704  68.1201 C.2            1 RES1               0.0000
      5 C5         206.4324  48.7609  70.2485 C.3            1 RES1               0.0000
      6 C6         205.1326  45.1874  69.5254 C.ar           1 RES1               0.0000
      7 C7         204.9279  46.5682  71.4598 C.ar           1 RES1               0.0000
      8 N8         208.4073  46.2885  68.5345 N.am           1 RES1               0.0000
      9 O9         208.4129  46.7104  70.7478 O.2            1 RES1               0.0000
     10 N10        206.7807  47.1532  67.1074 N.am           1 RES1               0.0000
     11 O11        204.8673  48.0639  67.8577 O.2            1 RES1               0.0000
     12 C12        207.2573  49.8127  69.5235 C.3            1 RES1               0.0000
     13 C13        204.2754  44.2612  70.0962 C.ar           1 RES1               0.0000
     14 C14        204.0707  45.6408  72.0287 C.ar           1 RES1               0.0000
     15 C15        207.9706  46.4929  67.2502 C.2            1 RES1               0.0000
     16 C16        203.7443  44.4870  71.3482 C.ar           1 RES1               0.0000
     17 O17        208.6283  46.1008  66.2906 O.2            1 RES1               0.0000
     18 H18        205.3969  49.1151  70.3247 H              1 RES1               0.0000
     19 H19        206.8233  48.6460  71.2670 H              1 RES1               0.0000
     20 H20        205.5388  44.9936  68.5382 H              1 RES1               0.0000
     21 H21        205.1697  47.4693  72.0130 H              1 RES1               0.0000
     22 H22        209.2360  45.7142  68.6510 H              1 RES1               0.0000
     23 H23        206.4787  47.3534  66.1592 H              1 RES1               0.0000
     24 H24        207.2209  50.7631  70.0519 H              1 RES1               0.0000
     25 H25        208.2983  49.5045  69.4518 H              1 RES1               0.0000
     26 H26        206.8804  49.9709  68.5152 H              1 RES1               0.0000
     27 H27        204.0206  43.3554  69.5560 H              1 RES1               0.0000
     28 H28        203.6545  45.8229  73.0140 H              1 RES1               0.0000
     29 H29        203.0731  43.7611  71.7953 H              1 RES1               0.0000
@<TRIPOS>BOND
    1    1    2 1     
    2    1    3 1     
    3    1    4 1     
    4    1    5 1     
    5    2    6 ar    
    6    2    7 ar    
    7    3    8 1     
    8    3    9 2     
    9    4   10 1     
   10    4   11 2     
   11    5   12 1     
   12    5   18 1     
   13    5   19 1     
   14    6   13 ar    
   15    6   20 1     
   16    7   14 ar    
   17    7   21 1     
   18    8   15 1     
   19    8   22 1     
   20   10   15 1     
   21   10   23 1     
   22   12   24 1     
   23   12   25 1     
   24   12   26 1     
   25   13   16 ar    
   26   13   27 1     
   27   14   16 ar    
   28   14   28 1     
   29   15   17 2     
   30   16   29 1     
@<TRIPOS>SUBSTRUCTURE
      1 RES1           1
@<TRIPOS>SET
DONOR_HYDROGENS      STATIC     ATOMS    <user>   **** ""
2 22 23
ATOM$RED        STATIC     ATOMS    COLORGROUP SYSTEM
2 22 23
@<TRIPOS>COMMENT
> <Gold.Version>
2022.3.0

> <Gold.Id.Protein>
unknown|4v3u_clean|pdb

> <Gold.Protein.RotatedTorsions>
[ 9551 9506 9505 9503 ] final  173.23 input   60.01 | X-H torsion
[ 7905 7872 7871 7868 ] final  107.87 input   60.03 | X-H torsion
[ 7981 7919 7918 7917 ] final   54.58 input   59.99 | X-H torsion

> <Gold.Protein.ActiveResidues>
 ASP403  THR404  ILE407  TYR408  ALA410  LYS411  TRP414  GLN425  TRP426  SER427 
 LYS428  LEU429  GLN430  VAL431  PHE432  ASP433  TYR453  SER462  ALA463  ILE464 

> <Gold.Protein.RotatedAtoms>
  203.9626   45.0528   61.4056 H   0  0  0  0  0  0  0  0  0  0  0  0  # atno 7905 bound_to 7872
  201.1147   45.2944   66.6836 H   0  0  0  0  0  0  0  0  0  0  0  0  # atno 7981 bound_to 7919
  200.8169   46.3813   67.9000 H   0  0  0  0  0  0  0  0  0  0  0  0  # atno 7982 bound_to 7919
  200.8134   46.8842   66.3214 H   0  0  0  0  0  0  0  0  0  0  0  0  # atno 7983 bound_to 7919
  208.0075   46.7329   73.2466 H   0  0  0  0  0  0  0  0  0  0  0  0  # atno 9551 bound_to 9506
  207.3268   45.2869   72.9393 LP  0  0  0  0  0  0  0  0  0  0  0  0  # atno 27216 bound_to 9506
  208.7487   45.6876   72.2433 LP  0  0  0  0  0  0  0  0  0  0  0  0  # atno 27217 bound_to 9506
  204.1628   43.4431   61.5317 LP  0  0  0  0  0  0  0  0  0  0  0  0  # atno 27226 bound_to 7872
  203.9025   44.1246   60.0707 LP  0  0  0  0  0  0  0  0  0  0  0  0  # atno 27227 bound_to 7872

> <Gold.Score>
     Fitness  S(hb_ext) S(vdw_ext)  S(hb_int)    S(int)      intcor
     24.44       0.08      17.77       0.00      -0.07      -0.76

> <Gold.Goldscore.Fitness>
24.4389

> <Gold.Goldscore.Internal.Vdw>
-0.3937

> <Gold.Goldscore.Internal.Torsion>
-0.4337

> <Gold.Goldscore.External.Vdw>
17.7658

> <Gold.Goldscore.Internal.HBond>
0.0000

> <Gold.Goldscore.External.HBond>
0.0774

> <Gold.Goldscore.Internal.Correction>
-0.7610

> <Gold.Goldscore.Hbonds>
donor molecule, donor type, donor heavy atom, donor atom, acceptor molecule, acceptor atom, score
      P1  H  7999  8053       L1    17  0.04

> <Gold.Goldscore.Internal.Vdw.Weighted>
-0.3937

> <Gold.Goldscore.Internal.Torsion.Weighted>
-0.4337

> <Gold.Goldscore.External.Vdw.Weighted>
24.4279

> <Gold.Goldscore.Internal.HBond.Weighted>
0.0000

> <Gold.Goldscore.External.HBond.Weighted>
0.0774

> <Gold.Goldscore.Internal.Correction.Weighted>
-0.7610

> <Gold.Rescore>
     Score     S(PLP)   S(hbond)     S(cho)   S(metal)  DE(clash)   DE(tors)     intcor
     25.97     -24.18       0.86       0.00       0.00       0.00       0.40       ----

> <Gold.PLP.Fitness>
25.9664

> <Gold.PLP.PLP>
-24.1837

> <Gold.PLP.part.hbond>
-2.0674

> <Gold.PLP.part.metal>
0.0000

> <Gold.PLP.part.buried>
-3.0481

> <Gold.PLP.part.nonpolar>
-21.0992

> <Gold.PLP.part.repulsive>
1.9962

> <Gold.PLP.ligand.clash>
0.0000

> <Gold.PLP.ligand.torsion>
0.4047

> <Gold.PLP.Chemscore.Hbond>
0.8640

> <Gold.PLP.Chemscore.CHOScore>
0.0000

> <Gold.PLP.Chemscore.Metal>
0.0000

> <Gold.Chemscore.Hbonds>
donor molecule, donor type, donor heavy atom, donor atom, acceptor molecule, acceptor atom, score
      P1  H  7999  8053       L1    17  0.78

> <Gold.PLP.Chemscore.Internal.Correction>
   9.000000E+99

