#       Name:                CT1002167954
#       Creating user name   hitesit
#       Creation time:       Sun Apr 16 20:20:12 2023


#       File generated by GOLD software.
#

@<TRIPOS>MOLECULE
CT1002167954|ligand_prepared|mol2|1|dock2
    29    30     1
SMALL
NO_CHARGES


@<TRIPOS>ATOM
      1 C1         211.4602  48.4022  67.5427 C.3            1 RES1               0.0000
      2 C2         210.1825  47.8104  68.1720 C.ar           1 RES1               0.0000
      3 C3         211.5147  49.8638  67.9776 C.2            1 RES1               0.0000
      4 C4         212.6201  47.5565  68.0568 C.2            1 RES1               0.0000
      5 C5         211.4781  48.3486  65.9973 C.3            1 RES1               0.0000
      6 C6         209.4475  46.8374  67.5014 C.ar           1 RES1               0.0000
      7 C7         209.7286  48.2249  69.4213 C.ar           1 RES1               0.0000
      8 N8         212.4301  50.2063  68.9287 N.am           1 RES1               0.0000
      9 O9         210.7396  50.6954  67.5217 O.2            1 RES1               0.0000
     10 N10        213.5394  48.1577  68.8760 N.am           1 RES1               0.0000
     11 O11        212.7370  46.3707  67.7732 O.2            1 RES1               0.0000
     12 C12        212.5382  49.2367  65.3651 C.3            1 RES1               0.0000
     13 C13        208.3019  46.2961  68.0607 C.ar           1 RES1               0.0000
     14 C14        208.5825  47.6824  69.9788 C.ar           1 RES1               0.0000
     15 C15        213.4801  49.4362  69.3601 C.2            1 RES1               0.0000
     16 C16        207.8689  46.7178  69.2998 C.ar           1 RES1               0.0000
     17 O17        214.3164  49.8882  70.1368 O.2            1 RES1               0.0000
     18 H18        211.6517  47.3123  65.6819 H              1 RES1               0.0000
     19 H19        210.4931  48.6527  65.6220 H              1 RES1               0.0000
     20 H20        209.7715  46.4948  66.5243 H              1 RES1               0.0000
     21 H21        210.2735  48.9833  69.9732 H              1 RES1               0.0000
     22 H22        212.3241  51.1194  69.3591 H              1 RES1               0.0000
     23 H23        214.3423  47.6006  69.1503 H              1 RES1               0.0000
     24 H24        212.5074  49.1617  64.2802 H              1 RES1               0.0000
     25 H25        212.3811  50.2784  65.6373 H              1 RES1               0.0000
     26 H26        213.5328  48.9460  65.6969 H              1 RES1               0.0000
     27 H27        207.7431  45.5382  67.5217 H              1 RES1               0.0000
     28 H28        208.2451  48.0178  70.9539 H              1 RES1               0.0000
     29 H29        206.9716  46.2933  69.7379 H              1 RES1               0.0000
@<TRIPOS>BOND
    1    1    2 1     
    2    1    3 1     
    3    1    4 1     
    4    1    5 1     
    5    2    6 ar    
    6    2    7 ar    
    7    3    8 1     
    8    3    9 2     
    9    4   10 1     
   10    4   11 2     
   11    5   12 1     
   12    5   18 1     
   13    5   19 1     
   14    6   13 ar    
   15    6   20 1     
   16    7   14 ar    
   17    7   21 1     
   18    8   15 1     
   19    8   22 1     
   20   10   15 1     
   21   10   23 1     
   22   12   24 1     
   23   12   25 1     
   24   12   26 1     
   25   13   16 ar    
   26   13   27 1     
   27   14   16 ar    
   28   14   28 1     
   29   15   17 2     
   30   16   29 1     
@<TRIPOS>SUBSTRUCTURE
      1 RES1           1
@<TRIPOS>SET
DONOR_HYDROGENS      STATIC     ATOMS    <user>   **** ""
2 22 23
ATOM$RED        STATIC     ATOMS    COLORGROUP SYSTEM
2 22 23
@<TRIPOS>COMMENT
> <Gold.Version>
2022.3.0

> <Gold.Id.Protein>
unknown|4v3u_clean|pdb

> <Gold.Protein.RotatedTorsions>
[ 9551 9506 9505 9503 ] final   -5.13 input   60.01 | X-H torsion
[ 7905 7872 7871 7868 ] final  -43.86 input   60.03 | X-H torsion
[ 7981 7919 7918 7917 ] final -120.73 input   59.99 | X-H torsion

> <Gold.Protein.ActiveResidues>
 ASP403  THR404  ILE407  TYR408  ALA410  LYS411  TRP414  GLN425  TRP426  SER427 
 LYS428  LEU429  GLN430  VAL431  PHE432  ASP433  TYR453  SER462  ALA463  ILE464 

> <Gold.Protein.RotatedAtoms>
  204.1238   43.2811   61.0460 H   0  0  0  0  0  0  0  0  0  0  0  0  # atno 7905 bound_to 7872
  200.7164   47.0997   67.1775 H   0  0  0  0  0  0  0  0  0  0  0  0  # atno 7981 bound_to 7919
  201.0263   45.9174   66.0570 H   0  0  0  0  0  0  0  0  0  0  0  0  # atno 7982 bound_to 7919
  201.0023   45.5426   67.6706 H   0  0  0  0  0  0  0  0  0  0  0  0  # atno 7983 bound_to 7919
  208.0255   45.0687   72.3884 H   0  0  0  0  0  0  0  0  0  0  0  0  # atno 9551 bound_to 9506
  208.7398   46.5047   72.6648 LP  0  0  0  0  0  0  0  0  0  0  0  0  # atno 27216 bound_to 9506
  207.3174   46.1456   73.3821 LP  0  0  0  0  0  0  0  0  0  0  0  0  # atno 27217 bound_to 9506
  203.8567   44.6277   60.1728 LP  0  0  0  0  0  0  0  0  0  0  0  0  # atno 27226 bound_to 7872
  204.0462   44.7249   61.7919 LP  0  0  0  0  0  0  0  0  0  0  0  0  # atno 27227 bound_to 7872

> <Gold.Score>
     Fitness  S(hb_ext) S(vdw_ext)  S(hb_int)    S(int)      intcor
     25.85       2.78      17.32       0.00      -0.74      -0.80

> <Gold.Goldscore.Fitness>
25.8483

> <Gold.Goldscore.Internal.Vdw>
-0.8201

> <Gold.Goldscore.Internal.Torsion>
-0.7219

> <Gold.Goldscore.External.Vdw>
17.3169

> <Gold.Goldscore.Internal.HBond>
0.0000

> <Gold.Goldscore.External.HBond>
2.7780

> <Gold.Goldscore.Internal.Correction>
-0.8016

> <Gold.Goldscore.Hbonds>
donor molecule, donor type, donor heavy atom, donor atom, acceptor molecule, acceptor atom, score
      P1  H  8082  8127       L1    17  0.27
      P1  H  8143  8189       L1    11  0.89
      L1  H    10    23       P1  8146  0.23

> <Gold.Goldscore.Internal.Vdw.Weighted>
-0.8201

> <Gold.Goldscore.Internal.Torsion.Weighted>
-0.7219

> <Gold.Goldscore.External.Vdw.Weighted>
23.8107

> <Gold.Goldscore.Internal.HBond.Weighted>
0.0000

> <Gold.Goldscore.External.HBond.Weighted>
2.7780

> <Gold.Goldscore.Internal.Correction.Weighted>
-0.8016

> <Gold.Rescore>
     Score     S(PLP)   S(hbond)     S(cho)   S(metal)  DE(clash)   DE(tors)     intcor
     24.74     -21.11       1.88       0.00       0.00       0.00       1.01       ----

> <Gold.PLP.Fitness>
24.7424

> <Gold.PLP.PLP>
-21.1110

> <Gold.PLP.part.hbond>
-2.0000

> <Gold.PLP.part.metal>
0.0000

> <Gold.PLP.part.buried>
-0.6671

> <Gold.PLP.part.nonpolar>
-21.6578

> <Gold.PLP.part.repulsive>
3.5270

> <Gold.PLP.ligand.clash>
0.0000

> <Gold.PLP.ligand.torsion>
1.0093

> <Gold.PLP.Chemscore.Hbond>
1.8833

> <Gold.PLP.Chemscore.CHOScore>
0.0000

> <Gold.PLP.Chemscore.Metal>
0.0000

> <Gold.Chemscore.Hbonds>
donor molecule, donor type, donor heavy atom, donor atom, acceptor molecule, acceptor atom, score
      P1  H  8143  8189       L1    11  0.91

> <Gold.PLP.Chemscore.Internal.Correction>
   9.000000E+99

