#       Name:                CT1002167954
#       Creating user name   hitesit
#       Creation time:       Sun Apr 16 20:20:12 2023


#       File generated by GOLD software.
#

@<TRIPOS>MOLECULE
CT1002167954|ligand_prepared|mol2|1|dock1
    29    30     1
SMALL
NO_CHARGES


@<TRIPOS>ATOM
      1 C1         206.4687  46.0936  69.4952 C.3            1 RES1               0.0000
      2 C2         205.4981  47.2917  69.5304 C.ar           1 RES1               0.0000
      3 C3         206.7042  45.7761  68.0214 C.2            1 RES1               0.0000
      4 C4         207.7207  46.5367  70.2440 C.2            1 RES1               0.0000
      5 C5         205.9208  44.8250  70.1895 C.3            1 RES1               0.0000
      6 C6         205.5979  48.3123  68.5896 C.ar           1 RES1               0.0000
      7 C7         204.4979  47.3887  70.4941 C.ar           1 RES1               0.0000
      8 N8         207.9095  46.1224  67.4853 N.am           1 RES1               0.0000
      9 O9         205.8313  45.2656  67.3303 O.2            1 RES1               0.0000
     10 N10        208.8862  46.6547  69.5329 N.am           1 RES1               0.0000
     11 O11        207.7049  46.8009  71.4399 O.2            1 RES1               0.0000
     12 C12        206.7560  43.5794  69.9383 C.3            1 RES1               0.0000
     13 C13        204.7275  49.3895  68.6097 C.ar           1 RES1               0.0000
     14 C14        203.6286  48.4669  70.5125 C.ar           1 RES1               0.0000
     15 C15        209.0305  46.4973  68.1813 C.2            1 RES1               0.0000
     16 C16        203.7421  49.4673  69.5707 C.ar           1 RES1               0.0000
     17 O17        210.1004  46.6739  67.6058 O.2            1 RES1               0.0000
     18 H18        205.8736  45.0064  71.2703 H              1 RES1               0.0000
     19 H19        204.8988  44.6421  69.8353 H              1 RES1               0.0000
     20 H20        206.3686  48.2695  67.8273 H              1 RES1               0.0000
     21 H21        204.3905  46.6139  71.2456 H              1 RES1               0.0000
     22 H22        207.9841  46.1007  66.4732 H              1 RES1               0.0000
     23 H23        209.7237  46.8807  70.0599 H              1 RES1               0.0000
     24 H24        206.3277  42.7186  70.4477 H              1 RES1               0.0000
     25 H25        206.8033  43.3547  68.8748 H              1 RES1               0.0000
     26 H26        207.7724  43.7169  70.3013 H              1 RES1               0.0000
     27 H27        204.8219  50.1749  67.8671 H              1 RES1               0.0000
     28 H28        202.8550  48.5243  71.2711 H              1 RES1               0.0000
     29 H29        203.0602  50.3111  69.5860 H              1 RES1               0.0000
@<TRIPOS>BOND
    1    1    2 1     
    2    1    3 1     
    3    1    4 1     
    4    1    5 1     
    5    2    6 ar    
    6    2    7 ar    
    7    3    8 1     
    8    3    9 2     
    9    4   10 1     
   10    4   11 2     
   11    5   12 1     
   12    5   18 1     
   13    5   19 1     
   14    6   13 ar    
   15    6   20 1     
   16    7   14 ar    
   17    7   21 1     
   18    8   15 1     
   19    8   22 1     
   20   10   15 1     
   21   10   23 1     
   22   12   24 1     
   23   12   25 1     
   24   12   26 1     
   25   13   16 ar    
   26   13   27 1     
   27   14   16 ar    
   28   14   28 1     
   29   15   17 2     
   30   16   29 1     
@<TRIPOS>SUBSTRUCTURE
      1 RES1           1
@<TRIPOS>SET
DONOR_HYDROGENS      STATIC     ATOMS    <user>   **** ""
2 22 23
ATOM$RED        STATIC     ATOMS    COLORGROUP SYSTEM
2 22 23
@<TRIPOS>COMMENT
> <Gold.Version>
2022.3.0

> <Gold.Id.Protein>
unknown|4v3u_clean|pdb

> <Gold.Protein.RotatedTorsions>
[ 9551 9506 9505 9503 ] final  121.03 input   60.01 | X-H torsion
[ 7905 7872 7871 7868 ] final -162.72 input   60.03 | X-H torsion
[ 7981 7919 7918 7917 ] final   -5.47 input   59.99 | X-H torsion

> <Gold.Protein.ActiveResidues>
 ASP403  THR404  ILE407  TYR408  ALA410  LYS411  TRP414  GLN425  TRP426  SER427 
 LYS428  LEU429  GLN430  VAL431  PHE432  ASP433  TYR453  SER462  ALA463  ILE464 

> <Gold.Protein.RotatedAtoms>
  203.8610   44.6083   60.1703 H   0  0  0  0  0  0  0  0  0  0  0  0  # atno 7905 bound_to 7872
  201.0129   45.9930   66.0357 H   0  0  0  0  0  0  0  0  0  0  0  0  # atno 7981 bound_to 7919
  201.0163   45.4891   67.6154 H   0  0  0  0  0  0  0  0  0  0  0  0  # atno 7982 bound_to 7919
  200.7158   47.0778   67.2541 H   0  0  0  0  0  0  0  0  0  0  0  0  # atno 7983 bound_to 7919
  207.3713   46.2306   73.3936 H   0  0  0  0  0  0  0  0  0  0  0  0  # atno 9551 bound_to 9506
  207.9365   45.0463   72.4310 LP  0  0  0  0  0  0  0  0  0  0  0  0  # atno 27216 bound_to 9506
  208.7796   46.4341   72.6036 LP  0  0  0  0  0  0  0  0  0  0  0  0  # atno 27217 bound_to 9506
  204.0431   44.7403   61.7817 LP  0  0  0  0  0  0  0  0  0  0  0  0  # atno 27226 bound_to 7872
  204.1244   43.2752   61.0651 LP  0  0  0  0  0  0  0  0  0  0  0  0  # atno 27227 bound_to 7872

> <Gold.Score>
     Fitness  S(hb_ext) S(vdw_ext)  S(hb_int)    S(int)      intcor
     26.88       1.30      18.75       0.00      -0.20      -0.84

> <Gold.Goldscore.Fitness>
26.8819

> <Gold.Goldscore.Internal.Vdw>
-0.4913

> <Gold.Goldscore.Internal.Torsion>
-0.5469

> <Gold.Goldscore.External.Vdw>
18.7542

> <Gold.Goldscore.Internal.HBond>
0.0000

> <Gold.Goldscore.External.HBond>
1.2959

> <Gold.Goldscore.Internal.Correction>
-0.8372

> <Gold.Goldscore.Hbonds>
donor molecule, donor type, donor heavy atom, donor atom, acceptor molecule, acceptor atom, score
      L1  H    10    23       P1  8083  0.65

> <Gold.Goldscore.Internal.Vdw.Weighted>
-0.4913

> <Gold.Goldscore.Internal.Torsion.Weighted>
-0.5469

> <Gold.Goldscore.External.Vdw.Weighted>
25.7870

> <Gold.Goldscore.Internal.HBond.Weighted>
0.0000

> <Gold.Goldscore.External.HBond.Weighted>
1.2959

> <Gold.Goldscore.Internal.Correction.Weighted>
-0.8372

> <Gold.Rescore>
     Score     S(PLP)   S(hbond)     S(cho)   S(metal)  DE(clash)   DE(tors)     intcor
     21.12     -19.65       0.91       0.00       0.00       0.00       0.63       ----

> <Gold.PLP.Fitness>
21.1221

> <Gold.PLP.PLP>
-19.6463

> <Gold.PLP.part.hbond>
-2.1646

> <Gold.PLP.part.metal>
0.0000

> <Gold.PLP.part.buried>
1.7440

> <Gold.PLP.part.nonpolar>
-19.1770

> <Gold.PLP.part.repulsive>
0.6163

> <Gold.PLP.ligand.clash>
0.0000

> <Gold.PLP.ligand.torsion>
0.6301

> <Gold.PLP.Chemscore.Hbond>
0.9120

> <Gold.PLP.Chemscore.CHOScore>
0.0000

> <Gold.PLP.Chemscore.Metal>
0.0000

> <Gold.Chemscore.Hbonds>
donor molecule, donor type, donor heavy atom, donor atom, acceptor molecule, acceptor atom, score
      L1  H    10    23       P1  8083  0.98

> <Gold.PLP.Chemscore.Internal.Correction>
   9.000000E+99

