#       Name:                CT1002167954
#       Creating user name   hitesit
#       Creation time:       Sun Apr 16 20:20:16 2023


#       File generated by GOLD software.
#

@<TRIPOS>MOLECULE
CT1002167954|ligand_prepared|mol2|1|dock10
    29    30     1
SMALL
NO_CHARGES


@<TRIPOS>ATOM
      1 C1         203.6717  46.2938  70.8118 C.3            1 RES1               0.0000
      2 C2         203.8717  47.4248  69.7824 C.ar           1 RES1               0.0000
      3 C3         203.4413  45.0179  70.0072 C.2            1 RES1               0.0000
      4 C4         204.9323  46.2695  71.6691 C.2            1 RES1               0.0000
      5 C5         202.4606  46.5089  71.7490 C.3            1 RES1               0.0000
      6 C6         205.0485  47.5116  69.0446 C.ar           1 RES1               0.0000
      7 C7         202.8891  48.3854  69.5580 C.ar           1 RES1               0.0000
      8 N8         204.4574  44.1096  69.9582 N.am           1 RES1               0.0000
      9 O9         202.3987  44.8297  69.3925 O.2            1 RES1               0.0000
     10 N10        205.7375  45.1631  71.5957 N.am           1 RES1               0.0000
     11 O11        205.2443  47.2055  72.3949 O.2            1 RES1               0.0000
     12 C12        202.3690  45.4918  72.8757 C.3            1 RES1               0.0000
     13 C13        205.2351  48.5203  68.1140 C.ar           1 RES1               0.0000
     14 C14        203.0778  49.3935  68.6271 C.ar           1 RES1               0.0000
     15 C15        205.5732  44.0953  70.7560 C.2            1 RES1               0.0000
     16 C16        204.2499  49.4616  67.9044 C.ar           1 RES1               0.0000
     17 O17        206.3700  43.1626  70.7091 O.2            1 RES1               0.0000
     18 H18        202.5254  47.5136  72.1847 H              1 RES1               0.0000
     19 H19        201.5404  46.4602  71.1538 H              1 RES1               0.0000
     20 H20        205.8360  46.7812  69.1977 H              1 RES1               0.0000
     21 H21        201.9594  48.3522  70.1159 H              1 RES1               0.0000
     22 H22        204.3806  43.3730  69.2641 H              1 RES1               0.0000
     23 H23        206.5330  45.1326  72.2255 H              1 RES1               0.0000
     24 H24        201.5021  45.6883  73.5031 H              1 RES1               0.0000
     25 H25        202.2780  44.4831  72.4783 H              1 RES1               0.0000
     26 H26        203.2571  45.5302  73.5031 H              1 RES1               0.0000
     27 H27        206.1599  48.5703  67.5488 H              1 RES1               0.0000
     28 H28        202.3000  50.1325  68.4658 H              1 RES1               0.0000
     29 H29        204.3962  50.2515  67.1751 H              1 RES1               0.0000
@<TRIPOS>BOND
    1    1    2 1     
    2    1    3 1     
    3    1    4 1     
    4    1    5 1     
    5    2    6 ar    
    6    2    7 ar    
    7    3    8 1     
    8    3    9 2     
    9    4   10 1     
   10    4   11 2     
   11    5   12 1     
   12    5   18 1     
   13    5   19 1     
   14    6   13 ar    
   15    6   20 1     
   16    7   14 ar    
   17    7   21 1     
   18    8   15 1     
   19    8   22 1     
   20   10   15 1     
   21   10   23 1     
   22   12   24 1     
   23   12   25 1     
   24   12   26 1     
   25   13   16 ar    
   26   13   27 1     
   27   14   16 ar    
   28   14   28 1     
   29   15   17 2     
   30   16   29 1     
@<TRIPOS>SUBSTRUCTURE
      1 RES1           1
@<TRIPOS>SET
DONOR_HYDROGENS      STATIC     ATOMS    <user>   **** ""
2 22 23
ATOM$RED        STATIC     ATOMS    COLORGROUP SYSTEM
2 22 23
@<TRIPOS>COMMENT
> <Gold.Version>
2022.3.0

> <Gold.Id.Protein>
unknown|4v3u_clean|pdb

> <Gold.Protein.RotatedTorsions>
[ 9551 9506 9505 9503 ] final  159.55 input   60.01 | X-H torsion
[ 7905 7872 7871 7868 ] final  140.08 input   60.03 | X-H torsion
[ 7981 7919 7918 7917 ] final -158.33 input   59.99 | X-H torsion

> <Gold.Protein.ActiveResidues>
 ASP403  THR404  ILE407  TYR408  ALA410  LYS411  TRP414  GLN425  TRP426  SER427 
 LYS428  LEU429  GLN430  VAL431  PHE432  ASP433  TYR453  SER462  ALA463  ILE464 

> <Gold.Protein.RotatedAtoms>
  203.8905   45.1311   60.8974 H   0  0  0  0  0  0  0  0  0  0  0  0  # atno 7905 bound_to 7872
  200.7491   46.7779   67.7030 H   0  0  0  0  0  0  0  0  0  0  0  0  # atno 7981 bound_to 7919
  200.9025   46.5212   66.0721 H   0  0  0  0  0  0  0  0  0  0  0  0  # atno 7982 bound_to 7919
  201.0935   45.2606   67.1299 H   0  0  0  0  0  0  0  0  0  0  0  0  # atno 7983 bound_to 7919
  207.8153   46.6551   73.3287 H   0  0  0  0  0  0  0  0  0  0  0  0  # atno 9551 bound_to 9506
  207.4480   45.1609   72.7984 LP  0  0  0  0  0  0  0  0  0  0  0  0  # atno 27216 bound_to 9506
  208.8210   45.8920   72.3016 LP  0  0  0  0  0  0  0  0  0  0  0  0  # atno 27217 bound_to 9506
  204.1567   43.8484   61.8622 LP  0  0  0  0  0  0  0  0  0  0  0  0  # atno 27226 bound_to 7872
  203.9812   43.6404   60.2521 LP  0  0  0  0  0  0  0  0  0  0  0  0  # atno 27227 bound_to 7872

> <Gold.Score>
     Fitness  S(hb_ext) S(vdw_ext)  S(hb_int)    S(int)      intcor
     20.43       0.68      14.36       0.00      -0.00      -0.76

> <Gold.Goldscore.Fitness>
20.4278

> <Gold.Goldscore.Internal.Vdw>
-0.3046

> <Gold.Goldscore.Internal.Torsion>
-0.4547

> <Gold.Goldscore.External.Vdw>
14.3614

> <Gold.Goldscore.Internal.HBond>
0.0000

> <Gold.Goldscore.External.HBond>
0.6840

> <Gold.Goldscore.Internal.Correction>
-0.7561

> <Gold.Goldscore.Hbonds>
donor molecule, donor type, donor heavy atom, donor atom, acceptor molecule, acceptor atom, score
      L1  H    10    23       P1  9506  0.34

> <Gold.Goldscore.Internal.Vdw.Weighted>
-0.3046

> <Gold.Goldscore.Internal.Torsion.Weighted>
-0.4547

> <Gold.Goldscore.External.Vdw.Weighted>
19.7470

> <Gold.Goldscore.Internal.HBond.Weighted>
0.0000

> <Gold.Goldscore.External.HBond.Weighted>
0.6840

> <Gold.Goldscore.Internal.Correction.Weighted>
-0.7561

> <Gold.Rescore>
     Score     S(PLP)   S(hbond)     S(cho)   S(metal)  DE(clash)   DE(tors)     intcor
     20.40     -17.69       1.01       0.00       0.00       0.00       0.16       ----

> <Gold.PLP.Fitness>
20.3968

> <Gold.PLP.PLP>
-17.6859

> <Gold.PLP.part.hbond>
-3.5640

> <Gold.PLP.part.metal>
0.0000

> <Gold.PLP.part.buried>
-3.0754

> <Gold.PLP.part.nonpolar>
-12.4303

> <Gold.PLP.part.repulsive>
0.5926

> <Gold.PLP.ligand.clash>
0.0000

> <Gold.PLP.ligand.torsion>
0.1607

> <Gold.PLP.Chemscore.Hbond>
1.0107

> <Gold.PLP.Chemscore.CHOScore>
0.0000

> <Gold.PLP.Chemscore.Metal>
0.0000

> <Gold.Chemscore.Hbonds>
donor molecule, donor type, donor heavy atom, donor atom, acceptor molecule, acceptor atom, score
      L1  H    10    23       P1  9506  0.75

> <Gold.PLP.Chemscore.Internal.Correction>
   9.000000E+99

