#       Name:                CT1002167954
#       Creating user name   hitesit
#       Creation time:       Sun Apr 16 20:20:13 2023


#       File generated by GOLD software.
#

@<TRIPOS>MOLECULE
CT1002167954|ligand_prepared|mol2|1|dock3
    29    30     1
SMALL
NO_CHARGES


@<TRIPOS>ATOM
      1 C1         206.2417  46.6353  69.5131 C.3            1 RES1               0.0000
      2 C2         205.5248  45.3261  69.9015 C.ar           1 RES1               0.0000
      3 C3         207.7372  46.3554  69.6291 C.2            1 RES1               0.0000
      4 C4         205.7796  46.9717  68.0997 C.2            1 RES1               0.0000
      5 C5         205.8938  47.8330  70.4273 C.3            1 RES1               0.0000
      6 C6         205.8452  44.1283  69.2694 C.ar           1 RES1               0.0000
      7 C7         204.5446  45.2999  70.8899 C.ar           1 RES1               0.0000
      8 N8         208.4454  46.2154  68.4721 N.am           1 RES1               0.0000
      9 O9         208.2794  46.2204  70.7191 O.2            1 RES1               0.0000
     10 N10        206.7106  46.9389  67.0948 N.am           1 RES1               0.0000
     11 O11        204.6141  47.2486  67.8444 O.2            1 RES1               0.0000
     12 C12        206.6650  49.1011  70.0966 C.3            1 RES1               0.0000
     13 C13        205.2108  42.9466  69.6150 C.ar           1 RES1               0.0000
     14 C14        203.9112  44.1170  71.2338 C.ar           1 RES1               0.0000
     15 C15        208.0161  46.5461  67.2119 C.2            1 RES1               0.0000
     16 C16        204.2438  42.9400  70.5976 C.ar           1 RES1               0.0000
     17 O17        208.7784  46.4908  66.2512 O.2            1 RES1               0.0000
     18 H18        204.8199  48.0408  70.3437 H              1 RES1               0.0000
     19 H19        206.1014  47.5550  71.4680 H              1 RES1               0.0000
     20 H20        206.6019  44.1144  68.4921 H              1 RES1               0.0000
     21 H21        204.2659  46.2140  71.4031 H              1 RES1               0.0000
     22 H22        209.3807  45.8290  68.5511 H              1 RES1               0.0000
     23 H23        206.4020  47.2348  66.1742 H              1 RES1               0.0000
     24 H24        206.3831  49.9100  70.7674 H              1 RES1               0.0000
     25 H25        207.7362  48.9377  70.1941 H              1 RES1               0.0000
     26 H26        206.4624  49.4207  69.0764 H              1 RES1               0.0000
     27 H27        205.4753  42.0232  69.1103 H              1 RES1               0.0000
     28 H28        203.1503  44.1166  72.0073 H              1 RES1               0.0000
     29 H29        203.7473  42.0141  70.8684 H              1 RES1               0.0000
@<TRIPOS>BOND
    1    1    2 1     
    2    1    3 1     
    3    1    4 1     
    4    1    5 1     
    5    2    6 ar    
    6    2    7 ar    
    7    3    8 1     
    8    3    9 2     
    9    4   10 1     
   10    4   11 2     
   11    5   12 1     
   12    5   18 1     
   13    5   19 1     
   14    6   13 ar    
   15    6   20 1     
   16    7   14 ar    
   17    7   21 1     
   18    8   15 1     
   19    8   22 1     
   20   10   15 1     
   21   10   23 1     
   22   12   24 1     
   23   12   25 1     
   24   12   26 1     
   25   13   16 ar    
   26   13   27 1     
   27   14   16 ar    
   28   14   28 1     
   29   15   17 2     
   30   16   29 1     
@<TRIPOS>SUBSTRUCTURE
      1 RES1           1
@<TRIPOS>SET
DONOR_HYDROGENS      STATIC     ATOMS    <user>   **** ""
2 22 23
ATOM$RED        STATIC     ATOMS    COLORGROUP SYSTEM
2 22 23
@<TRIPOS>COMMENT
> <Gold.Version>
2022.3.0

> <Gold.Id.Protein>
unknown|4v3u_clean|pdb

> <Gold.Protein.RotatedTorsions>
[ 9551 9506 9505 9503 ] final  162.54 input   60.01 | X-H torsion
[ 7905 7872 7871 7868 ] final -173.08 input   60.03 | X-H torsion
[ 7981 7919 7918 7917 ] final  135.70 input   59.99 | X-H torsion

> <Gold.Protein.ActiveResidues>
 ASP403  THR404  ILE407  TYR408  ALA410  LYS411  TRP414  GLN425  TRP426  SER427 
 LYS428  LEU429  GLN430  VAL431  PHE432  ASP433  TYR453  SER462  ALA463  ILE464 

> <Gold.Protein.RotatedAtoms>
  203.8551   44.7528   60.2578 H   0  0  0  0  0  0  0  0  0  0  0  0  # atno 7905 bound_to 7872
  200.9483   45.7618   67.8259 H   0  0  0  0  0  0  0  0  0  0  0  0  # atno 7981 bound_to 7919
  200.7281   47.1228   66.9047 H   0  0  0  0  0  0  0  0  0  0  0  0  # atno 7982 bound_to 7919
  201.0687   45.6752   66.1744 H   0  0  0  0  0  0  0  0  0  0  0  0  # atno 7983 bound_to 7919
  207.8566   46.6759   73.3131 H   0  0  0  0  0  0  0  0  0  0  0  0  # atno 9551 bound_to 9506
  207.4184   45.1850   72.8294 LP  0  0  0  0  0  0  0  0  0  0  0  0  # atno 27216 bound_to 9506
  208.8089   45.8469   72.2863 LP  0  0  0  0  0  0  0  0  0  0  0  0  # atno 27217 bound_to 9506
  204.0703   44.5929   61.8626 LP  0  0  0  0  0  0  0  0  0  0  0  0  # atno 27226 bound_to 7872
  204.1033   43.2770   60.8962 LP  0  0  0  0  0  0  0  0  0  0  0  0  # atno 27227 bound_to 7872

> <Gold.Score>
     Fitness  S(hb_ext) S(vdw_ext)  S(hb_int)    S(int)      intcor
     30.08       0.12      21.81       0.00      -0.03      -0.80

> <Gold.Goldscore.Fitness>
30.0792

> <Gold.Goldscore.Internal.Vdw>
-0.4426

> <Gold.Goldscore.Internal.Torsion>
-0.3884

> <Gold.Goldscore.External.Vdw>
21.8105

> <Gold.Goldscore.Internal.HBond>
0.0000

> <Gold.Goldscore.External.HBond>
0.1218

> <Gold.Goldscore.Internal.Correction>
-0.7989

> <Gold.Goldscore.Hbonds>
donor molecule, donor type, donor heavy atom, donor atom, acceptor molecule, acceptor atom, score
      P1  H  7999  8053       L1    17  0.06

> <Gold.Goldscore.Internal.Vdw.Weighted>
-0.4426

> <Gold.Goldscore.Internal.Torsion.Weighted>
-0.3884

> <Gold.Goldscore.External.Vdw.Weighted>
29.9895

> <Gold.Goldscore.Internal.HBond.Weighted>
0.0000

> <Gold.Goldscore.External.HBond.Weighted>
0.1218

> <Gold.Goldscore.Internal.Correction.Weighted>
-0.7989

> <Gold.Rescore>
     Score     S(PLP)   S(hbond)     S(cho)   S(metal)  DE(clash)   DE(tors)     intcor
     26.26     -24.26       0.85       0.00       0.00       0.00       0.27       ----

> <Gold.PLP.Fitness>
26.2574

> <Gold.PLP.PLP>
-24.2579

> <Gold.PLP.part.hbond>
-1.9148

> <Gold.PLP.part.metal>
0.0000

> <Gold.PLP.part.buried>
-1.5661

> <Gold.PLP.part.nonpolar>
-22.6413

> <Gold.PLP.part.repulsive>
1.7667

> <Gold.PLP.ligand.clash>
0.0000

> <Gold.PLP.ligand.torsion>
0.2722

> <Gold.PLP.Chemscore.Hbond>
0.8480

> <Gold.PLP.Chemscore.CHOScore>
0.0000

> <Gold.PLP.Chemscore.Metal>
0.0000

> <Gold.Chemscore.Hbonds>
donor molecule, donor type, donor heavy atom, donor atom, acceptor molecule, acceptor atom, score
      P1  H  7999  8053       L1    17  0.39

> <Gold.PLP.Chemscore.Internal.Correction>
   9.000000E+99

