#       Name:                CT1002167954
#       Creating user name   hitesit
#       Creation time:       Sun Apr 16 20:20:15 2023


#       File generated by GOLD software.
#

@<TRIPOS>MOLECULE
CT1002167954|ligand_prepared|mol2|1|dock7
    29    30     1
SMALL
NO_CHARGES


@<TRIPOS>ATOM
      1 C1         211.8791  49.4279  68.1878 C.3            1 RES1               0.0000
      2 C2         210.6956  49.1079  69.1236 C.ar           1 RES1               0.0000
      3 C3         213.0986  48.7331  68.7864 C.2            1 RES1               0.0000
      4 C4         211.4839  48.9122  66.8085 C.2            1 RES1               0.0000
      5 C5         212.1863  50.9384  68.0631 C.3            1 RES1               0.0000
      6 C6         210.4392  49.9006  70.2383 C.ar           1 RES1               0.0000
      7 C7         209.8515  48.0268  68.8841 C.ar           1 RES1               0.0000
      8 N8         213.5591  47.6132  68.1589 N.am           1 RES1               0.0000
      9 O9         213.6241  49.1389  69.8157 O.2            1 RES1               0.0000
     10 N10        212.2049  47.8734  66.2806 N.am           1 RES1               0.0000
     11 O11        210.5441  49.3851  66.1812 O.2            1 RES1               0.0000
     12 C12        213.1562  51.2764  66.9418 C.3            1 RES1               0.0000
     13 C13        209.3756  49.6245  71.0814 C.ar           1 RES1               0.0000
     14 C14        208.7885  47.7523  69.7287 C.ar           1 RES1               0.0000
     15 C15        213.2050  47.1803  66.9064 C.2            1 RES1               0.0000
     16 C16        208.5494  48.5506  70.8271 C.ar           1 RES1               0.0000
     17 O17        213.7697  46.2217  66.3874 O.2            1 RES1               0.0000
     18 H18        211.2462  51.4769  67.8911 H              1 RES1               0.0000
     19 H19        212.6068  51.2928  69.0124 H              1 RES1               0.0000
     20 H20        211.0800  50.7485  70.4559 H              1 RES1               0.0000
     21 H21        210.0211  47.3846  68.0266 H              1 RES1               0.0000
     22 H22        214.2286  47.0451  68.6681 H              1 RES1               0.0000
     23 H23        211.9748  47.5906  65.3332 H              1 RES1               0.0000
     24 H24        213.3371  52.3483  66.8984 H              1 RES1               0.0000
     25 H25        214.1110  50.7774  67.0942 H              1 RES1               0.0000
     26 H26        212.7584  50.9605  65.9796 H              1 RES1               0.0000
     27 H27        209.1925  50.2549  71.9453 H              1 RES1               0.0000
     28 H28        208.1412  46.9057  69.5250 H              1 RES1               0.0000
     29 H29        207.7161  48.3347  71.4875 H              1 RES1               0.0000
@<TRIPOS>BOND
    1    1    2 1     
    2    1    3 1     
    3    1    4 1     
    4    1    5 1     
    5    2    6 ar    
    6    2    7 ar    
    7    3    8 1     
    8    3    9 2     
    9    4   10 1     
   10    4   11 2     
   11    5   12 1     
   12    5   18 1     
   13    5   19 1     
   14    6   13 ar    
   15    6   20 1     
   16    7   14 ar    
   17    7   21 1     
   18    8   15 1     
   19    8   22 1     
   20   10   15 1     
   21   10   23 1     
   22   12   24 1     
   23   12   25 1     
   24   12   26 1     
   25   13   16 ar    
   26   13   27 1     
   27   14   16 ar    
   28   14   28 1     
   29   15   17 2     
   30   16   29 1     
@<TRIPOS>SUBSTRUCTURE
      1 RES1           1
@<TRIPOS>SET
DONOR_HYDROGENS      STATIC     ATOMS    <user>   **** ""
2 22 23
ATOM$RED        STATIC     ATOMS    COLORGROUP SYSTEM
2 22 23
@<TRIPOS>COMMENT
> <Gold.Version>
2022.3.0

> <Gold.Id.Protein>
unknown|4v3u_clean|pdb

> <Gold.Protein.RotatedTorsions>
[ 9551 9506 9505 9503 ] final -105.86 input   60.01 | X-H torsion
[ 7905 7872 7871 7868 ] final  137.98 input   60.03 | X-H torsion
[ 7981 7919 7918 7917 ] final -178.44 input   59.99 | X-H torsion

> <Gold.Protein.ActiveResidues>
 ASP403  THR404  ILE407  TYR408  ALA410  LYS411  TRP414  GLN425  TRP426  SER427 
 LYS428  LEU429  GLN430  VAL431  PHE432  ASP433  TYR453  SER462  ALA463  ILE464 

> <Gold.Protein.RotatedAtoms>
  203.8942   45.1349   60.9312 H   0  0  0  0  0  0  0  0  0  0  0  0  # atno 7905 bound_to 7872
  200.7971   46.4913   67.8685 H   0  0  0  0  0  0  0  0  0  0  0  0  # atno 7981 bound_to 7919
  200.8348   46.8020   66.2401 H   0  0  0  0  0  0  0  0  0  0  0  0  # atno 7982 bound_to 7919
  201.1131   45.2664   66.7964 H   0  0  0  0  0  0  0  0  0  0  0  0  # atno 7983 bound_to 7919
  208.8300   46.2618   72.4864 H   0  0  0  0  0  0  0  0  0  0  0  0  # atno 9551 bound_to 9506
  207.4934   46.4066   73.4036 LP  0  0  0  0  0  0  0  0  0  0  0  0  # atno 27216 bound_to 9506
  207.7537   45.0424   72.5446 LP  0  0  0  0  0  0  0  0  0  0  0  0  # atno 27217 bound_to 9506
  204.1586   43.8170   61.8480 LP  0  0  0  0  0  0  0  0  0  0  0  0  # atno 27226 bound_to 7872
  203.9755   43.6680   60.2322 LP  0  0  0  0  0  0  0  0  0  0  0  0  # atno 27227 bound_to 7872

> <Gold.Score>
     Fitness  S(hb_ext) S(vdw_ext)  S(hb_int)    S(int)      intcor
     20.06       1.50      14.02       0.00      -0.72      -0.76

> <Gold.Goldscore.Fitness>
20.0643

> <Gold.Goldscore.Internal.Vdw>
-0.9125

> <Gold.Goldscore.Internal.Torsion>
-0.5713

> <Gold.Goldscore.External.Vdw>
14.0244

> <Gold.Goldscore.Internal.HBond>
0.0000

> <Gold.Goldscore.External.HBond>
1.5034

> <Gold.Goldscore.Internal.Correction>
-0.7610

> <Gold.Goldscore.Hbonds>
donor molecule, donor type, donor heavy atom, donor atom, acceptor molecule, acceptor atom, score
      P1  H  8082  8127       L1     9  0.09
      L1  H     8    22       P1  8146  0.66

> <Gold.Goldscore.Internal.Vdw.Weighted>
-0.9125

> <Gold.Goldscore.Internal.Torsion.Weighted>
-0.5713

> <Gold.Goldscore.External.Vdw.Weighted>
19.2836

> <Gold.Goldscore.Internal.HBond.Weighted>
0.0000

> <Gold.Goldscore.External.HBond.Weighted>
1.5034

> <Gold.Goldscore.Internal.Correction.Weighted>
-0.7610

> <Gold.Rescore>
     Score     S(PLP)   S(hbond)     S(cho)   S(metal)  DE(clash)   DE(tors)     intcor
     14.88     -11.18       1.96       0.00       0.00       0.00       1.09       ----

> <Gold.PLP.Fitness>
14.8814

> <Gold.PLP.PLP>
-11.1773

> <Gold.PLP.part.hbond>
-2.3895

> <Gold.PLP.part.metal>
0.0000

> <Gold.PLP.part.buried>
-2.2108

> <Gold.PLP.part.nonpolar>
-7.1801

> <Gold.PLP.part.repulsive>
0.7481

> <Gold.PLP.ligand.clash>
0.0000

> <Gold.PLP.ligand.torsion>
1.0879

> <Gold.PLP.Chemscore.Hbond>
1.9600

> <Gold.PLP.Chemscore.CHOScore>
0.0000

> <Gold.PLP.Chemscore.Metal>
0.0000

> <Gold.Chemscore.Hbonds>
donor molecule, donor type, donor heavy atom, donor atom, acceptor molecule, acceptor atom, score
      P1  H  8082  8127       L1     9  0.91

> <Gold.PLP.Chemscore.Internal.Correction>
   9.000000E+99

