#       Name:                CT1002167954
#       Creating user name   hitesit
#       Creation time:       Sun Apr 16 20:20:15 2023


#       File generated by GOLD software.
#

@<TRIPOS>MOLECULE
CT1002167954|ligand_prepared|mol2|1|dock9
    29    30     1
SMALL
NO_CHARGES


@<TRIPOS>ATOM
      1 C1         203.7247  46.7499  71.9398 C.3            1 RES1               0.0000
      2 C2         203.0112  46.4924  73.2827 C.ar           1 RES1               0.0000
      3 C3         205.2093  46.5003  72.1886 C.2            1 RES1               0.0000
      4 C4         203.0938  45.7958  70.9317 C.2            1 RES1               0.0000
      5 C5         203.5516  48.1912  71.4066 C.3            1 RES1               0.0000
      6 C6         202.4346  45.2550  73.5529 C.ar           1 RES1               0.0000
      7 C7         202.9239  47.4799  74.2604 C.ar           1 RES1               0.0000
      8 N8         205.7514  45.3564  71.6811 N.am           1 RES1               0.0000
      9 O9         205.8850  47.2757  72.8537 O.2            1 RES1               0.0000
     10 N10        203.8813  44.8060  70.4045 N.am           1 RES1               0.0000
     11 O11        201.9174  45.8820  70.6016 O.2            1 RES1               0.0000
     12 C12        204.0556  48.3837  69.9850 C.3            1 RES1               0.0000
     13 C13        201.7965  45.0124  74.7580 C.ar           1 RES1               0.0000
     14 C14        202.2852  47.2352  75.4648 C.ar           1 RES1               0.0000
     15 C15        205.1731  44.5241  70.7567 C.2            1 RES1               0.0000
     16 C16        201.7217  46.0020  75.7149 C.ar           1 RES1               0.0000
     17 O17        205.7984  43.5826  70.2775 O.2            1 RES1               0.0000
     18 H18        202.4876  48.4557  71.4429 H              1 RES1               0.0000
     19 H19        204.0910  48.8798  72.0687 H              1 RES1               0.0000
     20 H20        202.4814  44.4648  72.8110 H              1 RES1               0.0000
     21 H21        203.3590  48.4579  74.0851 H              1 RES1               0.0000
     22 H22        206.6719  45.0957  72.0203 H              1 RES1               0.0000
     23 H23        203.4661  44.2256  69.6827 H              1 RES1               0.0000
     24 H24        203.9105  49.4119  69.6602 H              1 RES1               0.0000
     25 H25        205.1169  48.1537  69.9175 H              1 RES1               0.0000
     26 H26        203.5230  47.7321  69.2954 H              1 RES1               0.0000
     27 H27        201.3536  44.0406  74.9493 H              1 RES1               0.0000
     28 H28        202.2281  48.0173  76.2148 H              1 RES1               0.0000
     29 H29        201.2222  45.8117  76.6590 H              1 RES1               0.0000
@<TRIPOS>BOND
    1    1    2 1     
    2    1    3 1     
    3    1    4 1     
    4    1    5 1     
    5    2    6 ar    
    6    2    7 ar    
    7    3    8 1     
    8    3    9 2     
    9    4   10 1     
   10    4   11 2     
   11    5   12 1     
   12    5   18 1     
   13    5   19 1     
   14    6   13 ar    
   15    6   20 1     
   16    7   14 ar    
   17    7   21 1     
   18    8   15 1     
   19    8   22 1     
   20   10   15 1     
   21   10   23 1     
   22   12   24 1     
   23   12   25 1     
   24   12   26 1     
   25   13   16 ar    
   26   13   27 1     
   27   14   16 ar    
   28   14   28 1     
   29   15   17 2     
   30   16   29 1     
@<TRIPOS>SUBSTRUCTURE
      1 RES1           1
@<TRIPOS>SET
DONOR_HYDROGENS      STATIC     ATOMS    <user>   **** ""
2 22 23
ATOM$RED        STATIC     ATOMS    COLORGROUP SYSTEM
2 22 23
@<TRIPOS>COMMENT
> <Gold.Version>
2022.3.0

> <Gold.Id.Protein>
unknown|4v3u_clean|pdb

> <Gold.Protein.RotatedTorsions>
[ 9551 9506 9505 9503 ] final  168.72 input   60.01 | X-H torsion
[ 7905 7872 7871 7868 ] final  132.73 input   60.03 | X-H torsion
[ 7981 7919 7918 7917 ] final  144.30 input   59.99 | X-H torsion

> <Gold.Protein.ActiveResidues>
 ASP403  THR404  ILE407  TYR408  ALA410  LYS411  TRP414  GLN425  TRP426  SER427 
 LYS428  LEU429  GLN430  VAL431  PHE432  ASP433  TYR453  SER462  ALA463  ILE464 

> <Gold.Protein.RotatedAtoms>
  203.9043   45.1388   61.0162 H   0  0  0  0  0  0  0  0  0  0  0  0  # atno 7905 bound_to 7872
  200.9185   45.8917   67.8794 H   0  0  0  0  0  0  0  0  0  0  0  0  # atno 7981 bound_to 7919
  200.7406   47.1047   66.7629 H   0  0  0  0  0  0  0  0  0  0  0  0  # atno 7982 bound_to 7919
  201.0859   45.5635   66.2627 H   0  0  0  0  0  0  0  0  0  0  0  0  # atno 7983 bound_to 7919
  207.9435   46.7123   73.2766 H   0  0  0  0  0  0  0  0  0  0  0  0  # atno 9551 bound_to 9506
  207.3626   45.2412   72.8933 LP  0  0  0  0  0  0  0  0  0  0  0  0  # atno 27216 bound_to 9506
  208.7773   45.7541   72.2591 LP  0  0  0  0  0  0  0  0  0  0  0  0  # atno 27217 bound_to 9506
  204.1624   43.7409   61.8076 LP  0  0  0  0  0  0  0  0  0  0  0  0  # atno 27226 bound_to 7872
  203.9615   43.7401   60.1870 LP  0  0  0  0  0  0  0  0  0  0  0  0  # atno 27227 bound_to 7872

> <Gold.Score>
     Fitness  S(hb_ext) S(vdw_ext)  S(hb_int)    S(int)      intcor
     22.91       0.18      17.14       0.00      -0.84      -0.76

> <Gold.Goldscore.Fitness>
22.9071

> <Gold.Goldscore.Internal.Vdw>
-1.0891

> <Gold.Goldscore.Internal.Torsion>
-0.5072

> <Gold.Goldscore.External.Vdw>
17.1373

> <Gold.Goldscore.Internal.HBond>
0.0000

> <Gold.Goldscore.External.HBond>
0.1787

> <Gold.Goldscore.Internal.Correction>
-0.7610

> <Gold.Goldscore.Hbonds>
donor molecule, donor type, donor heavy atom, donor atom, acceptor molecule, acceptor atom, score
      L1  H     8    22       P1  9506  0.09

> <Gold.Goldscore.Internal.Vdw.Weighted>
-1.0891

> <Gold.Goldscore.Internal.Torsion.Weighted>
-0.5072

> <Gold.Goldscore.External.Vdw.Weighted>
23.5637

> <Gold.Goldscore.Internal.HBond.Weighted>
0.0000

> <Gold.Goldscore.External.HBond.Weighted>
0.1787

> <Gold.Goldscore.Internal.Correction.Weighted>
-0.7610

> <Gold.Rescore>
     Score     S(PLP)   S(hbond)     S(cho)   S(metal)  DE(clash)   DE(tors)     intcor
     24.58     -23.47       1.09       0.00       0.00       1.95       0.11       ----

> <Gold.PLP.Fitness>
24.5759

> <Gold.PLP.PLP>
-23.4723

> <Gold.PLP.part.hbond>
-2.0000

> <Gold.PLP.part.metal>
0.0000

> <Gold.PLP.part.buried>
-5.0442

> <Gold.PLP.part.nonpolar>
-17.0131

> <Gold.PLP.part.repulsive>
0.1981

> <Gold.PLP.ligand.clash>
1.9476

> <Gold.PLP.ligand.torsion>
0.1149

> <Gold.PLP.Chemscore.Hbond>
1.0937

> <Gold.PLP.Chemscore.CHOScore>
0.0000

> <Gold.PLP.Chemscore.Metal>
0.0000

> <Gold.Chemscore.Hbonds>
donor molecule, donor type, donor heavy atom, donor atom, acceptor molecule, acceptor atom, score
      L1  H     8    22       P1  9506  0.85
      P1  H  9506  9551       L1     9  0.26

> <Gold.PLP.Chemscore.Internal.Correction>
   9.000000E+99

