#       Name:                CT1002167954
#       Creating user name   hitesit
#       Creation time:       Sun Apr 16 20:15:50 2023


#       File generated by GOLD software.
#

@<TRIPOS>MOLECULE
CT1002167954|ligand_prepared|mol2|1|dock10
    29    30     1
SMALL
NO_CHARGES


@<TRIPOS>ATOM
      1 C1          -9.0998  -7.0260  18.3843 C.3            1 RES1               0.0000
      2 C2          -7.7203  -6.3987  18.6712 C.ar           1 RES1               0.0000
      3 C3          -9.0140  -7.6283  16.9850 C.2            1 RES1               0.0000
      4 C4          -9.3409  -8.0496  19.4884 C.2            1 RES1               0.0000
      5 C5         -10.2658  -6.0105  18.4114 C.3            1 RES1               0.0000
      6 C6          -7.4698  -5.7615  19.8827 C.ar           1 RES1               0.0000
      7 C7          -6.6894  -6.4516  17.7368 C.ar           1 RES1               0.0000
      8 N8          -8.9366  -8.9862  16.8851 N.am           1 RES1               0.0000
      9 O9          -8.9749  -6.9206  15.9860 O.2            1 RES1               0.0000
     10 N10         -9.4017  -9.3723  19.1356 N.am           1 RES1               0.0000
     11 O11         -9.4622  -7.7239  20.6629 O.2            1 RES1               0.0000
     12 C12        -11.6242  -6.6288  18.1203 C.3            1 RES1               0.0000
     13 C13         -6.2326  -5.1999  20.1517 C.ar           1 RES1               0.0000
     14 C14         -5.4530  -5.8891  18.0077 C.ar           1 RES1               0.0000
     15 C15         -9.1799  -9.8895  17.8884 C.2            1 RES1               0.0000
     16 C16         -5.2234  -5.2637  19.2147 C.ar           1 RES1               0.0000
     17 O17         -9.1981 -11.0957  17.6602 O.2            1 RES1               0.0000
     18 H18        -10.2982  -5.5363  19.4000 H              1 RES1               0.0000
     19 H19        -10.0685  -5.2266  17.6698 H              1 RES1               0.0000
     20 H20         -8.2526  -5.6993  20.6313 H              1 RES1               0.0000
     21 H21         -6.8477  -6.9376  16.7801 H              1 RES1               0.0000
     22 H22         -8.6735  -9.3651  15.9810 H              1 RES1               0.0000
     23 H23         -9.6340 -10.0325  19.8708 H              1 RES1               0.0000
     24 H24        -12.4065  -5.8733  18.1517 H              1 RES1               0.0000
     25 H25        -11.6357  -7.0877  17.1339 H              1 RES1               0.0000
     26 H26        -11.8641  -7.3957  18.8538 H              1 RES1               0.0000
     27 H27         -6.0574  -4.7076  21.1026 H              1 RES1               0.0000
     28 H28         -4.6618  -5.9412  17.2671 H              1 RES1               0.0000
     29 H29         -4.2541  -4.8241  19.4258 H              1 RES1               0.0000
@<TRIPOS>BOND
    1    1    2 1     
    2    1    3 1     
    3    1    4 1     
    4    1    5 1     
    5    2    6 ar    
    6    2    7 ar    
    7    3    8 1     
    8    3    9 2     
    9    4   10 1     
   10    4   11 2     
   11    5   12 1     
   12    5   18 1     
   13    5   19 1     
   14    6   13 ar    
   15    6   20 1     
   16    7   14 ar    
   17    7   21 1     
   18    8   15 1     
   19    8   22 1     
   20   10   15 1     
   21   10   23 1     
   22   12   24 1     
   23   12   25 1     
   24   12   26 1     
   25   13   16 ar    
   26   13   27 1     
   27   14   16 ar    
   28   14   28 1     
   29   15   17 2     
   30   16   29 1     
@<TRIPOS>SUBSTRUCTURE
      1 RES1           1
@<TRIPOS>SET
DONOR_HYDROGENS      STATIC     ATOMS    <user>   **** ""
2 22 23
ATOM$RED        STATIC     ATOMS    COLORGROUP SYSTEM
2 22 23
@<TRIPOS>COMMENT
> <Gold.Version>
2022.3.0

> <Gold.Id.Protein>
unknown|3ovv_clean|pdb

> <Gold.Protein.RotatedTorsions>
[  604  597  595  592 ] final  -75.27 input   59.96 | X-H torsion
[  622  617  616  613 ] final  -88.18 input   59.98 | X-H torsion
[ 2560 2551 2550 2548 ] final  -62.06 input   59.99 | X-H torsion
[ 2635 2624 2623 2622 ] final -155.73 input   60.00 | X-H torsion
[ 1835 1828 1827 1825 ] final  -60.29 input   60.01 | X-H torsion
[ 5212 5203 5202 5200 ] final  103.06 input   59.98 | X-H torsion

> <Gold.Protein.ActiveResidues>
 THR48   LEU49   GLY50   THR51   GLY52   SER53   PHE54   GLY55   ARG56   VAL57  
 MET58   LEU59   VAL60   HIS68   TYR69   ALA70   MET71   LYS72   ILE73   LEU74  
 ASP75   LYS78   VAL79   LEU82   GLN84   THR88   GLU91   LEU95   VAL104  LYS105 
 LEU106  MET118  VAL119  MET120  GLU121  TYR122  VAL123  PRO124  GLY125  GLY126 
 GLU127  TYR164  ASP166  LYS168  GLU170  ASN171  LEU172  LEU173  ILE174  ASP175 
 GLN181  VAL182  THR183  ASP184  PHE185  GLY186  PHE187  PHE327  TYR330 

> <Gold.Protein.RotatedAtoms>
   -5.5161   -2.7542   12.9668 H   0  0  0  0  0  0  0  0  0  0  0  0  # atno 604  bound_to 597 
   -7.1808    2.6521   20.6374 H   0  0  0  0  0  0  0  0  0  0  0  0  # atno 622  bound_to 617 
   -7.9730  -16.5416    9.5087 H   0  0  0  0  0  0  0  0  0  0  0  0  # atno 1835 bound_to 1828
  -15.5168   -7.6882   22.9550 H   0  0  0  0  0  0  0  0  0  0  0  0  # atno 2560 bound_to 2551
  -13.7969   -1.3700   18.9426 H   0  0  0  0  0  0  0  0  0  0  0  0  # atno 2635 bound_to 2624
  -15.1367   -0.5398   18.4316 H   0  0  0  0  0  0  0  0  0  0  0  0  # atno 2636 bound_to 2624
  -14.9621   -0.9264   20.0339 H   0  0  0  0  0  0  0  0  0  0  0  0  # atno 2637 bound_to 2624
   -8.5336   -4.9595   11.6408 H   0  0  0  0  0  0  0  0  0  0  0  0  # atno 5212 bound_to 5203
   -4.8474   -1.3397   13.4136 LP  0  0  0  0  0  0  0  0  0  0  0  0  # atno 5531 bound_to 597 
   -6.0281   -2.0105   14.3205 LP  0  0  0  0  0  0  0  0  0  0  0  0  # atno 5532 bound_to 597 
   -7.5969    1.8967   22.0173 LP  0  0  0  0  0  0  0  0  0  0  0  0  # atno 5535 bound_to 617 
   -7.3409    1.0329   20.6554 LP  0  0  0  0  0  0  0  0  0  0  0  0  # atno 5536 bound_to 617 
  -16.8915   -7.8744   22.1046 LP  0  0  0  0  0  0  0  0  0  0  0  0  # atno 5569 bound_to 2551
  -16.0439   -9.1835   22.5890 LP  0  0  0  0  0  0  0  0  0  0  0  0  # atno 5570 bound_to 2551
   -6.9579  -17.6497    8.8836 LP  0  0  0  0  0  0  0  0  0  0  0  0  # atno 5599 bound_to 1828
   -6.3734  -16.2431    9.4722 LP  0  0  0  0  0  0  0  0  0  0  0  0  # atno 5600 bound_to 1828

> <Gold.Score>
     Fitness  S(hb_ext) S(vdw_ext)  S(hb_int)    S(int)      intcor
     41.39       1.76      31.08       0.00      -3.10      -0.77

> <Gold.Goldscore.Fitness>
41.3936

> <Gold.Goldscore.Internal.Vdw>
-3.5060

> <Gold.Goldscore.Internal.Torsion>
-0.3675

> <Gold.Goldscore.External.Vdw>
31.0821

> <Gold.Goldscore.Internal.HBond>
0.0000

> <Gold.Goldscore.External.HBond>
1.7604

> <Gold.Goldscore.Internal.Correction>
-0.7686

> <Gold.Goldscore.Hbonds>
donor molecule, donor type, donor heavy atom, donor atom, acceptor molecule, acceptor atom, score
      P1  H   932   945       L1    11  0.29

> <Gold.Goldscore.Internal.Vdw.Weighted>
-3.5060

> <Gold.Goldscore.Internal.Torsion.Weighted>
-0.3675

> <Gold.Goldscore.External.Vdw.Weighted>
42.7379

> <Gold.Goldscore.Internal.HBond.Weighted>
0.0000

> <Gold.Goldscore.External.HBond.Weighted>
1.7604

> <Gold.Goldscore.Internal.Correction.Weighted>
-0.7686

> <Gold.Rescore>
     Score     S(PLP)   S(hbond)     S(cho)   S(metal)  DE(clash)   DE(tors)     intcor
     43.56     -41.97       1.00       0.00       0.00       1.37       0.02       ----

> <Gold.PLP.Fitness>
43.5553

> <Gold.PLP.PLP>
-41.9743

> <Gold.PLP.part.hbond>
-1.8470

> <Gold.PLP.part.metal>
0.0000

> <Gold.PLP.part.buried>
-4.1116

> <Gold.PLP.part.nonpolar>
-36.5184

> <Gold.PLP.part.repulsive>
0.3466

> <Gold.PLP.ligand.clash>
1.3731

> <Gold.PLP.ligand.torsion>
0.0229

> <Gold.PLP.Chemscore.Hbond>
1.0000

> <Gold.PLP.Chemscore.CHOScore>
0.0000

> <Gold.PLP.Chemscore.Metal>
0.0000

> <Gold.Chemscore.Hbonds>
donor molecule, donor type, donor heavy atom, donor atom, acceptor molecule, acceptor atom, score
      P1  H   932   945       L1    11  0.06

> <Gold.PLP.Chemscore.Internal.Correction>
   9.000000E+99

