#       Name:                CT1002167954
#       Creating user name   hitesit
#       Creation time:       Sun Apr 16 20:15:48 2023


#       File generated by GOLD software.
#

@<TRIPOS>MOLECULE
CT1002167954|ligand_prepared|mol2|1|dock8
    29    30     1
SMALL
NO_CHARGES


@<TRIPOS>ATOM
      1 C1          -9.5418  -8.7100  16.3273 C.3            1 RES1               0.0000
      2 C2          -9.2694  -9.0580  17.8050 C.ar           1 RES1               0.0000
      3 C3         -11.0418  -8.4533  16.2171 C.2            1 RES1               0.0000
      4 C4          -8.6776  -7.4949  16.0089 C.2            1 RES1               0.0000
      5 C5          -9.1626  -9.8379  15.3396 C.3            1 RES1               0.0000
      6 C6          -9.1518  -8.0524  18.7598 C.ar           1 RES1               0.0000
      7 C7          -9.1363 -10.3777  18.2282 C.ar           1 RES1               0.0000
      8 N8         -11.4528  -7.1608  16.0736 N.am           1 RES1               0.0000
      9 O9         -11.8539  -9.3670  16.2946 O.2            1 RES1               0.0000
     10 N10         -9.3109  -6.3154  15.7167 N.am           1 RES1               0.0000
     11 O11         -7.4538  -7.5440  16.0248 O.2            1 RES1               0.0000
     12 C12         -9.1868  -9.4093  13.8809 C.3            1 RES1               0.0000
     13 C13         -8.9127  -8.3551  20.0900 C.ar           1 RES1               0.0000
     14 C14         -8.8969 -10.6783  19.5590 C.ar           1 RES1               0.0000
     15 C15        -10.6590  -6.0856  15.7647 C.2            1 RES1               0.0000
     16 C16         -8.7856  -9.6681  20.4905 C.ar           1 RES1               0.0000
     17 O17        -11.1499  -4.9827  15.5415 O.2            1 RES1               0.0000
     18 H18         -8.1560 -10.1986  15.5851 H              1 RES1               0.0000
     19 H19         -9.8602 -10.6739  15.4736 H              1 RES1               0.0000
     20 H20         -9.2465  -7.0132  18.4628 H              1 RES1               0.0000
     21 H21         -9.2191 -11.1887  17.5127 H              1 RES1               0.0000
     22 H22        -12.4419  -6.9767  16.2085 H              1 RES1               0.0000
     23 H23         -8.7230  -5.5365  15.4374 H              1 RES1               0.0000
     24 H24         -8.9132 -10.2378  13.2309 H              1 RES1               0.0000
     25 H25        -10.1797  -9.0683  13.5955 H              1 RES1               0.0000
     26 H26         -8.4857  -8.5958  13.7063 H              1 RES1               0.0000
     27 H27         -8.8245  -7.5564  20.8190 H              1 RES1               0.0000
     28 H28         -8.7970 -11.7131  19.8696 H              1 RES1               0.0000
     29 H29         -8.5986  -9.9051  21.5327 H              1 RES1               0.0000
@<TRIPOS>BOND
    1    1    2 1     
    2    1    3 1     
    3    1    4 1     
    4    1    5 1     
    5    2    6 ar    
    6    2    7 ar    
    7    3    8 1     
    8    3    9 2     
    9    4   10 1     
   10    4   11 2     
   11    5   12 1     
   12    5   18 1     
   13    5   19 1     
   14    6   13 ar    
   15    6   20 1     
   16    7   14 ar    
   17    7   21 1     
   18    8   15 1     
   19    8   22 1     
   20   10   15 1     
   21   10   23 1     
   22   12   24 1     
   23   12   25 1     
   24   12   26 1     
   25   13   16 ar    
   26   13   27 1     
   27   14   16 ar    
   28   14   28 1     
   29   15   17 2     
   30   16   29 1     
@<TRIPOS>SUBSTRUCTURE
      1 RES1           1
@<TRIPOS>SET
DONOR_HYDROGENS      STATIC     ATOMS    <user>   **** ""
2 22 23
ATOM$RED        STATIC     ATOMS    COLORGROUP SYSTEM
2 22 23
@<TRIPOS>COMMENT
> <Gold.Version>
2022.3.0

> <Gold.Id.Protein>
unknown|3ovv_clean|pdb

> <Gold.Protein.RotatedTorsions>
[  604  597  595  592 ] final -179.22 input   59.96 | X-H torsion
[  622  617  616  613 ] final -156.91 input   59.98 | X-H torsion
[ 2560 2551 2550 2548 ] final  -24.18 input   59.99 | X-H torsion
[ 2635 2624 2623 2622 ] final   49.36 input   60.00 | X-H torsion
[ 1835 1828 1827 1825 ] final    9.50 input   60.01 | X-H torsion
[ 5212 5203 5202 5200 ] final   74.86 input   59.98 | X-H torsion

> <Gold.Protein.ActiveResidues>
 THR48   LEU49   GLY50   THR51   GLY52   SER53   PHE54   GLY55   ARG56   VAL57  
 MET58   LEU59   VAL60   HIS68   TYR69   ALA70   MET71   LYS72   ILE73   LEU74  
 ASP75   LYS78   VAL79   LEU82   GLN84   THR88   GLU91   LEU95   VAL104  LYS105 
 LEU106  MET118  VAL119  MET120  GLU121  TYR122  VAL123  PRO124  GLY125  GLY126 
 GLU127  TYR164  ASP166  LYS168  GLU170  ASN171  LEU172  LEU173  ILE174  ASP175 
 GLN181  VAL182  THR183  ASP184  PHE185  GLY186  PHE187  PHE327  TYR330 

> <Gold.Protein.RotatedAtoms>
   -4.7933   -1.4912   13.2062 H   0  0  0  0  0  0  0  0  0  0  0  0  # atno 604  bound_to 597 
   -7.4387    2.6103   21.6615 H   0  0  0  0  0  0  0  0  0  0  0  0  # atno 622  bound_to 617 
   -7.0891  -15.9611    9.6823 H   0  0  0  0  0  0  0  0  0  0  0  0  # atno 1835 bound_to 1828
  -15.3519   -8.2668   23.0404 H   0  0  0  0  0  0  0  0  0  0  0  0  # atno 2560 bound_to 2551
  -15.3455   -0.6555   19.7032 H   0  0  0  0  0  0  0  0  0  0  0  0  # atno 2635 bound_to 2624
  -13.8893   -1.4211   19.5069 H   0  0  0  0  0  0  0  0  0  0  0  0  # atno 2636 bound_to 2624
  -14.6612   -0.7595   18.1978 H   0  0  0  0  0  0  0  0  0  0  0  0  # atno 2637 bound_to 2624
   -8.5680   -5.3955   11.5115 H   0  0  0  0  0  0  0  0  0  0  0  0  # atno 5212 bound_to 5203
   -5.8991   -1.7851   14.3633 LP  0  0  0  0  0  0  0  0  0  0  0  0  # atno 5531 bound_to 597 
   -5.7044   -2.8373   13.1298 LP  0  0  0  0  0  0  0  0  0  0  0  0  # atno 5532 bound_to 597 
   -7.5400    1.0006   21.4459 LP  0  0  0  0  0  0  0  0  0  0  0  0  # atno 5535 bound_to 617 
   -7.1381    1.9711   20.1956 LP  0  0  0  0  0  0  0  0  0  0  0  0  # atno 5536 bound_to 617 
  -16.5462   -7.4215   22.3286 LP  0  0  0  0  0  0  0  0  0  0  0  0  # atno 5569 bound_to 2551
  -16.5554   -9.0537   22.2789 LP  0  0  0  0  0  0  0  0  0  0  0  0  # atno 5570 bound_to 2551
   -7.9231  -17.2607    9.1678 LP  0  0  0  0  0  0  0  0  0  0  0  0  # atno 5599 bound_to 1828
   -6.2980  -17.2164    9.0132 LP  0  0  0  0  0  0  0  0  0  0  0  0  # atno 5600 bound_to 1828

> <Gold.Score>
     Fitness  S(hb_ext) S(vdw_ext)  S(hb_int)    S(int)      intcor
     46.51       0.68      33.41       0.00      -0.11      -0.77

> <Gold.Goldscore.Fitness>
46.5083

> <Gold.Goldscore.Internal.Vdw>
-0.3355

> <Gold.Goldscore.Internal.Torsion>
-0.5432

> <Gold.Goldscore.External.Vdw>
33.4104

> <Gold.Goldscore.Internal.HBond>
0.0000

> <Gold.Goldscore.External.HBond>
0.6791

> <Gold.Goldscore.Internal.Correction>
-0.7686

> <Gold.Goldscore.Hbonds>
donor molecule, donor type, donor heavy atom, donor atom, acceptor molecule, acceptor atom, score
      L1  H     8    22       P1  2655  0.30
      L1  H    10    23       P1   594  0.04

> <Gold.Goldscore.Internal.Vdw.Weighted>
-0.3355

> <Gold.Goldscore.Internal.Torsion.Weighted>
-0.5432

> <Gold.Goldscore.External.Vdw.Weighted>
45.9393

> <Gold.Goldscore.Internal.HBond.Weighted>
0.0000

> <Gold.Goldscore.External.HBond.Weighted>
0.6791

> <Gold.Goldscore.Internal.Correction.Weighted>
-0.7686

> <Gold.Rescore>
     Score     S(PLP)   S(hbond)     S(cho)   S(metal)  DE(clash)   DE(tors)     intcor
     40.86     -39.64       0.77       0.00       0.00       0.00       0.54       ----

> <Gold.PLP.Fitness>
40.8648

> <Gold.PLP.PLP>
-39.6408

> <Gold.PLP.part.hbond>
-2.0000

> <Gold.PLP.part.metal>
0.0000

> <Gold.PLP.part.buried>
4.3424

> <Gold.PLP.part.nonpolar>
-43.7167

> <Gold.PLP.part.repulsive>
0.6216

> <Gold.PLP.ligand.clash>
0.0000

> <Gold.PLP.ligand.torsion>
0.5400

> <Gold.PLP.Chemscore.Hbond>
0.7680

> <Gold.PLP.Chemscore.CHOScore>
0.0000

> <Gold.PLP.Chemscore.Metal>
0.0000

> <Gold.Chemscore.Hbonds>
donor molecule, donor type, donor heavy atom, donor atom, acceptor molecule, acceptor atom, score
      L1  H     8    22       P1  2655  0.88

> <Gold.PLP.Chemscore.Internal.Correction>
   9.000000E+99

