#       Name:                CT1002167954
#       Creating user name   hitesit
#       Creation time:       Sun Apr 16 20:15:40 2023


#       File generated by GOLD software.
#

@<TRIPOS>MOLECULE
CT1002167954|ligand_prepared|mol2|1|dock1
    29    30     1
SMALL
NO_CHARGES


@<TRIPOS>ATOM
      1 C1          -9.2996  -8.0624  18.3067 C.3            1 RES1               0.0000
      2 C2          -9.1712  -9.5801  18.0639 C.ar           1 RES1               0.0000
      3 C3          -8.7838  -7.8095  19.7203 C.2            1 RES1               0.0000
      4 C4          -8.4793  -7.3848  17.2147 C.2            1 RES1               0.0000
      5 C5         -10.7502  -7.5349  18.2114 C.3            1 RES1               0.0000
      6 C6          -9.5631 -10.1394  16.8513 C.ar           1 RES1               0.0000
      7 C7          -8.6611 -10.4317  19.0402 C.ar           1 RES1               0.0000
      8 N8          -7.5623  -7.2172  19.8507 N.am           1 RES1               0.0000
      9 O9          -9.4215  -8.1604  20.7055 O.2            1 RES1               0.0000
     10 N10         -7.3648  -6.6821  17.5914 N.am           1 RES1               0.0000
     11 O11         -8.7786  -7.4669  16.0298 O.2            1 RES1               0.0000
     12 C12        -10.8512  -6.0178  18.1967 C.3            1 RES1               0.0000
     13 C13         -9.4466 -11.5003  16.6219 C.ar           1 RES1               0.0000
     14 C14         -8.5456 -11.7925  18.8087 C.ar           1 RES1               0.0000
     15 C15         -6.8519  -6.5933  18.8569 C.2            1 RES1               0.0000
     16 C16         -8.9374 -12.3276  17.6001 C.ar           1 RES1               0.0000
     17 O17         -5.8142  -5.9875  19.1085 O.2            1 RES1               0.0000
     18 H18        -11.2095  -7.9283  17.2962 H              1 RES1               0.0000
     19 H19        -11.3222  -7.9185  19.0653 H              1 RES1               0.0000
     20 H20         -9.9683  -9.5044  16.0706 H              1 RES1               0.0000
     21 H21         -8.3476 -10.0330  19.9990 H              1 RES1               0.0000
     22 H22         -7.1377  -7.2404  20.7724 H              1 RES1               0.0000
     23 H23         -6.8719  -6.1784  16.8608 H              1 RES1               0.0000
     24 H24        -11.8898  -5.7010  18.1288 H              1 RES1               0.0000
     25 H25        -10.4263  -5.5940  19.1042 H              1 RES1               0.0000
     26 H26        -10.3143  -5.6038  17.3457 H              1 RES1               0.0000
     27 H27         -9.7576 -11.9167  15.6695 H              1 RES1               0.0000
     28 H28         -8.1450 -12.4399  19.5817 H              1 RES1               0.0000
     29 H29         -8.8459 -13.3936  17.4200 H              1 RES1               0.0000
@<TRIPOS>BOND
    1    1    2 1     
    2    1    3 1     
    3    1    4 1     
    4    1    5 1     
    5    2    6 ar    
    6    2    7 ar    
    7    3    8 1     
    8    3    9 2     
    9    4   10 1     
   10    4   11 2     
   11    5   12 1     
   12    5   18 1     
   13    5   19 1     
   14    6   13 ar    
   15    6   20 1     
   16    7   14 ar    
   17    7   21 1     
   18    8   15 1     
   19    8   22 1     
   20   10   15 1     
   21   10   23 1     
   22   12   24 1     
   23   12   25 1     
   24   12   26 1     
   25   13   16 ar    
   26   13   27 1     
   27   14   16 ar    
   28   14   28 1     
   29   15   17 2     
   30   16   29 1     
@<TRIPOS>SUBSTRUCTURE
      1 RES1           1
@<TRIPOS>SET
DONOR_HYDROGENS      STATIC     ATOMS    <user>   **** ""
2 22 23
ATOM$RED        STATIC     ATOMS    COLORGROUP SYSTEM
2 22 23
@<TRIPOS>COMMENT
> <Gold.Version>
2022.3.0

> <Gold.Id.Protein>
unknown|3ovv_clean|pdb

> <Gold.Protein.RotatedTorsions>
[  604  597  595  592 ] final   23.77 input   59.96 | X-H torsion
[  622  617  616  613 ] final  -26.67 input   59.98 | X-H torsion
[ 2560 2551 2550 2548 ] final  -43.33 input   59.99 | X-H torsion
[ 2635 2624 2623 2622 ] final   64.02 input   60.00 | X-H torsion
[ 1835 1828 1827 1825 ] final   40.09 input   60.01 | X-H torsion
[ 5212 5203 5202 5200 ] final -174.66 input   59.98 | X-H torsion

> <Gold.Protein.ActiveResidues>
 THR48   LEU49   GLY50   THR51   GLY52   SER53   PHE54   GLY55   ARG56   VAL57  
 MET58   LEU59   VAL60   HIS68   TYR69   ALA70   MET71   LYS72   ILE73   LEU74  
 ASP75   LYS78   VAL79   LEU82   GLN84   THR88   GLU91   LEU95   VAL104  LYS105 
 LEU106  MET118  VAL119  MET120  GLU121  TYR122  VAL123  PRO124  GLY125  GLY126 
 GLU127  TYR164  ASP166  LYS168  GLU170  ASN171  LEU172  LEU173  ILE174  ASP175 
 GLN181  VAL182  THR183  ASP184  PHE185  GLY186  PHE187  PHE327  TYR330 

> <Gold.Protein.RotatedAtoms>
   -6.1231   -2.3044   14.1739 H   0  0  0  0  0  0  0  0  0  0  0  0  # atno 604  bound_to 597 
   -7.1512    1.8037   20.1945 H   0  0  0  0  0  0  0  0  0  0  0  0  # atno 622  bound_to 617 
   -6.6168  -16.0665    9.5825 H   0  0  0  0  0  0  0  0  0  0  0  0  # atno 1835 bound_to 1828
  -15.3944   -7.9588   23.0227 H   0  0  0  0  0  0  0  0  0  0  0  0  # atno 2560 bound_to 2551
  -15.2095   -0.7616   19.8760 H   0  0  0  0  0  0  0  0  0  0  0  0  # atno 2635 bound_to 2624
  -13.8133   -1.4208   19.2748 H   0  0  0  0  0  0  0  0  0  0  0  0  # atno 2636 bound_to 2624
  -14.8731   -0.6536   18.2572 H   0  0  0  0  0  0  0  0  0  0  0  0  # atno 2637 bound_to 2624
   -8.7194   -3.9912   10.9027 H   0  0  0  0  0  0  0  0  0  0  0  0  # atno 5212 bound_to 5203
   -5.2705   -2.5720   12.8140 LP  0  0  0  0  0  0  0  0  0  0  0  0  # atno 5531 bound_to 597 
   -4.9935   -1.2313   13.7043 LP  0  0  0  0  0  0  0  0  0  0  0  0  # atno 5532 bound_to 597 
   -7.3991    2.7035   21.5275 LP  0  0  0  0  0  0  0  0  0  0  0  0  # atno 5535 bound_to 617 
   -7.5685    1.0805   21.5913 LP  0  0  0  0  0  0  0  0  0  0  0  0  # atno 5536 bound_to 617 
  -16.7535   -7.6162   22.1963 LP  0  0  0  0  0  0  0  0  0  0  0  0  # atno 5569 bound_to 2551
  -16.3054   -9.1692   22.4291 LP  0  0  0  0  0  0  0  0  0  0  0  0  # atno 5570 bound_to 2551
   -8.0415  -16.8274    9.3814 LP  0  0  0  0  0  0  0  0  0  0  0  0  # atno 5599 bound_to 1828
   -6.6552  -17.5436    8.9000 LP  0  0  0  0  0  0  0  0  0  0  0  0  # atno 5600 bound_to 1828

> <Gold.Score>
     Fitness  S(hb_ext) S(vdw_ext)  S(hb_int)    S(int)      intcor
     50.78       4.76      36.23       0.00      -3.79      -0.80

> <Gold.Goldscore.Fitness>
50.7777

> <Gold.Goldscore.Internal.Vdw>
-4.0592

> <Gold.Goldscore.Internal.Torsion>
-0.5387

> <Gold.Goldscore.External.Vdw>
36.2272

> <Gold.Goldscore.Internal.HBond>
0.0000

> <Gold.Goldscore.External.HBond>
4.7593

> <Gold.Goldscore.Internal.Correction>
-0.8038

> <Gold.Goldscore.Hbonds>
donor molecule, donor type, donor heavy atom, donor atom, acceptor molecule, acceptor atom, score
      P1  H   932   945       L1     9  0.79

> <Gold.Goldscore.Internal.Vdw.Weighted>
-4.0592

> <Gold.Goldscore.Internal.Torsion.Weighted>
-0.5387

> <Gold.Goldscore.External.Vdw.Weighted>
49.8125

> <Gold.Goldscore.Internal.HBond.Weighted>
0.0000

> <Gold.Goldscore.External.HBond.Weighted>
4.7593

> <Gold.Goldscore.Internal.Correction.Weighted>
-0.8038

> <Gold.Rescore>
     Score     S(PLP)   S(hbond)     S(cho)   S(metal)  DE(clash)   DE(tors)     intcor
     54.86     -54.34       0.90       0.00       0.00       0.00       1.10       ----

> <Gold.PLP.Fitness>
54.8556

> <Gold.PLP.PLP>
-54.3422

> <Gold.PLP.part.hbond>
-1.0000

> <Gold.PLP.part.metal>
0.0000

> <Gold.PLP.part.buried>
-5.8229

> <Gold.PLP.part.nonpolar>
-49.2061

> <Gold.PLP.part.repulsive>
0.4979

> <Gold.PLP.ligand.clash>
0.0000

> <Gold.PLP.ligand.torsion>
1.0993

> <Gold.PLP.Chemscore.Hbond>
0.9040

> <Gold.PLP.Chemscore.CHOScore>
0.0000

> <Gold.PLP.Chemscore.Metal>
0.0000

> <Gold.Chemscore.Hbonds>
donor molecule, donor type, donor heavy atom, donor atom, acceptor molecule, acceptor atom, score
      P1  H   932   945       L1     9  0.03

> <Gold.PLP.Chemscore.Internal.Correction>
   9.000000E+99

