#       Name:                CT1002167954
#       Creating user name   hitesit
#       Creation time:       Sun Apr 16 20:15:49 2023


#       File generated by GOLD software.
#

@<TRIPOS>MOLECULE
CT1002167954|ligand_prepared|mol2|1|dock9
    29    30     1
SMALL
NO_CHARGES


@<TRIPOS>ATOM
      1 C1          -9.5920  -7.4957  16.8446 C.3            1 RES1               0.0000
      2 C2          -9.2485  -8.8316  16.1546 C.ar           1 RES1               0.0000
      3 C3         -10.3245  -7.8553  18.1339 C.2            1 RES1               0.0000
      4 C4          -8.2663  -6.7748  17.0625 C.2            1 RES1               0.0000
      5 C5         -10.5042  -6.5738  16.0022 C.3            1 RES1               0.0000
      6 C6          -9.0335  -8.8848  14.7807 C.ar           1 RES1               0.0000
      7 C7          -9.1408 -10.0165  16.8778 C.ar           1 RES1               0.0000
      8 N8          -9.6464  -7.7081  19.3080 N.am           1 RES1               0.0000
      9 O9         -11.4661  -8.2988  18.1179 O.2            1 RES1               0.0000
     10 N10         -7.8491  -6.5740  18.3523 N.am           1 RES1               0.0000
     11 O11         -7.5712  -6.3937  16.1288 O.2            1 RES1               0.0000
     12 C12        -11.1132  -5.4260  16.7921 C.3            1 RES1               0.0000
     13 C13         -8.7192 -10.0786  14.1528 C.ar           1 RES1               0.0000
     14 C14         -8.8266 -11.2094  16.2479 C.ar           1 RES1               0.0000
     15 C15         -8.4641  -7.0352  19.4842 C.2            1 RES1               0.0000
     16 C16         -8.6151 -11.2415  14.8859 C.ar           1 RES1               0.0000
     17 O17         -7.9988  -6.8612  20.6069 O.2            1 RES1               0.0000
     18 H18         -9.9181  -6.1596  15.1725 H              1 RES1               0.0000
     19 H19        -11.3145  -7.1758  15.5726 H              1 RES1               0.0000
     20 H20         -9.1135  -7.9803  14.1870 H              1 RES1               0.0000
     21 H21         -9.3041 -10.0152  17.9501 H              1 RES1               0.0000
     22 H22        -10.0562  -8.1382  20.1310 H              1 RES1               0.0000
     23 H23         -7.0016  -6.0303  18.4804 H              1 RES1               0.0000
     24 H24        -11.7439  -4.8106  16.1541 H              1 RES1               0.0000
     25 H25        -11.7236  -5.8021  17.6105 H              1 RES1               0.0000
     26 H26        -10.3355  -4.7920  17.2128 H              1 RES1               0.0000
     27 H27         -8.5550 -10.0988  13.0805 H              1 RES1               0.0000
     28 H28         -8.7463 -12.1223  16.8287 H              1 RES1               0.0000
     29 H29         -8.3685 -12.1766  14.3939 H              1 RES1               0.0000
@<TRIPOS>BOND
    1    1    2 1     
    2    1    3 1     
    3    1    4 1     
    4    1    5 1     
    5    2    6 ar    
    6    2    7 ar    
    7    3    8 1     
    8    3    9 2     
    9    4   10 1     
   10    4   11 2     
   11    5   12 1     
   12    5   18 1     
   13    5   19 1     
   14    6   13 ar    
   15    6   20 1     
   16    7   14 ar    
   17    7   21 1     
   18    8   15 1     
   19    8   22 1     
   20   10   15 1     
   21   10   23 1     
   22   12   24 1     
   23   12   25 1     
   24   12   26 1     
   25   13   16 ar    
   26   13   27 1     
   27   14   16 ar    
   28   14   28 1     
   29   15   17 2     
   30   16   29 1     
@<TRIPOS>SUBSTRUCTURE
      1 RES1           1
@<TRIPOS>SET
DONOR_HYDROGENS      STATIC     ATOMS    <user>   **** ""
2 22 23
ATOM$RED        STATIC     ATOMS    COLORGROUP SYSTEM
2 22 23
@<TRIPOS>COMMENT
> <Gold.Version>
2022.3.0

> <Gold.Id.Protein>
unknown|3ovv_clean|pdb

> <Gold.Protein.RotatedTorsions>
[  604  597  595  592 ] final  -15.59 input   59.96 | X-H torsion
[  622  617  616  613 ] final  -98.07 input   59.98 | X-H torsion
[ 2560 2551 2550 2548 ] final  -18.26 input   59.99 | X-H torsion
[ 2635 2624 2623 2622 ] final -120.60 input   60.00 | X-H torsion
[ 1835 1828 1827 1825 ] final   23.50 input   60.01 | X-H torsion
[ 5212 5203 5202 5200 ] final   68.28 input   59.98 | X-H torsion

> <Gold.Protein.ActiveResidues>
 THR48   LEU49   GLY50   THR51   GLY52   SER53   PHE54   GLY55   ARG56   VAL57  
 MET58   LEU59   VAL60   HIS68   TYR69   ALA70   MET71   LYS72   ILE73   LEU74  
 ASP75   LYS78   VAL79   LEU82   GLN84   THR88   GLU91   LEU95   VAL104  LYS105 
 LEU106  MET118  VAL119  MET120  GLU121  TYR122  VAL123  PRO124  GLY125  GLY126 
 GLU127  TYR164  ASP166  LYS168  GLU170  ASN171  LEU172  LEU173  ILE174  ASP175 
 GLN181  VAL182  THR183  ASP184  PHE185  GLY186  PHE187  PHE327  TYR330 

> <Gold.Protein.RotatedAtoms>
   -6.0740   -2.7312   13.7124 H   0  0  0  0  0  0  0  0  0  0  0  0  # atno 604  bound_to 597 
   -7.2088    2.7255   20.7784 H   0  0  0  0  0  0  0  0  0  0  0  0  # atno 622  bound_to 617 
   -6.8640  -15.9802    9.6492 H   0  0  0  0  0  0  0  0  0  0  0  0  # atno 1835 bound_to 1828
  -15.3567   -8.3631   23.0349 H   0  0  0  0  0  0  0  0  0  0  0  0  # atno 2560 bound_to 2551
  -14.0071   -1.1643   18.4456 H   0  0  0  0  0  0  0  0  0  0  0  0  # atno 2635 bound_to 2624
  -15.4321   -0.4661   18.9225 H   0  0  0  0  0  0  0  0  0  0  0  0  # atno 2636 bound_to 2624
  -14.4565   -1.2057   20.0399 H   0  0  0  0  0  0  0  0  0  0  0  0  # atno 2637 bound_to 2624
   -8.5833   -5.4842   11.4526 H   0  0  0  0  0  0  0  0  0  0  0  0  # atno 5212 bound_to 5203
   -4.8986   -2.0572   12.8113 LP  0  0  0  0  0  0  0  0  0  0  0  0  # atno 5531 bound_to 597 
   -5.4148   -1.3162   14.1719 LP  0  0  0  0  0  0  0  0  0  0  0  0  # atno 5532 bound_to 597 
   -7.6094    1.7351   22.0059 LP  0  0  0  0  0  0  0  0  0  0  0  0  # atno 5535 bound_to 617 
   -7.3002    1.1207   20.5248 LP  0  0  0  0  0  0  0  0  0  0  0  0  # atno 5536 bound_to 617 
  -16.4721   -7.3790   22.3752 LP  0  0  0  0  0  0  0  0  0  0  0  0  # atno 5569 bound_to 2551
  -16.6247   -8.9991   22.2379 LP  0  0  0  0  0  0  0  0  0  0  0  0  # atno 5570 bound_to 2551
   -8.0093  -17.0711    9.2650 LP  0  0  0  0  0  0  0  0  0  0  0  0  # atno 5599 bound_to 1828
   -6.4385  -17.3868    8.9493 LP  0  0  0  0  0  0  0  0  0  0  0  0  # atno 5600 bound_to 1828

> <Gold.Score>
     Fitness  S(hb_ext) S(vdw_ext)  S(hb_int)    S(int)      intcor
     41.95       0.00      31.20       0.00      -0.96      -0.77

> <Gold.Goldscore.Fitness>
41.9503

> <Gold.Goldscore.Internal.Vdw>
-1.0517

> <Gold.Goldscore.Internal.Torsion>
-0.6736

> <Gold.Goldscore.External.Vdw>
31.2050

> <Gold.Goldscore.Internal.HBond>
0.0000

> <Gold.Goldscore.External.HBond>
0.0000

> <Gold.Goldscore.Internal.Correction>
-0.7686

> <Gold.Goldscore.Internal.Vdw.Weighted>
-1.0517

> <Gold.Goldscore.Internal.Torsion.Weighted>
-0.6736

> <Gold.Goldscore.External.Vdw.Weighted>
42.9068

> <Gold.Goldscore.Internal.HBond.Weighted>
0.0000

> <Gold.Goldscore.External.HBond.Weighted>
0.0000

> <Gold.Goldscore.Internal.Correction.Weighted>
-0.7686

> <Gold.Rescore>
     Score     S(PLP)   S(hbond)     S(cho)   S(metal)  DE(clash)   DE(tors)     intcor
     43.09     -42.76       0.68       0.00       0.00       0.35       0.68       ----

> <Gold.PLP.Fitness>
43.0865

> <Gold.PLP.PLP>
-42.7573

> <Gold.PLP.part.hbond>
-2.7467

> <Gold.PLP.part.metal>
0.0000

> <Gold.PLP.part.buried>
2.2205

> <Gold.PLP.part.nonpolar>
-44.3224

> <Gold.PLP.part.repulsive>
1.1221

> <Gold.PLP.ligand.clash>
0.3547

> <Gold.PLP.ligand.torsion>
0.6847

> <Gold.PLP.Chemscore.Hbond>
0.6844

> <Gold.PLP.Chemscore.CHOScore>
0.0000

> <Gold.PLP.Chemscore.Metal>
0.0000

> <Gold.Chemscore.Hbonds>
donor molecule, donor type, donor heavy atom, donor atom, acceptor molecule, acceptor atom, score
      P1  H   932   945       L1    17  0.38
      P1  H  2880  2892       L1     9  0.01

> <Gold.PLP.Chemscore.Internal.Correction>
   9.000000E+99

