#       Name:                CT1002167954
#       Creating user name   hitesit
#       Creation time:       Sun Apr 16 20:15:42 2023


#       File generated by GOLD software.
#

@<TRIPOS>MOLECULE
CT1002167954|ligand_prepared|mol2|1|dock3
    29    30     1
SMALL
NO_CHARGES


@<TRIPOS>ATOM
      1 C1          -9.6444  -7.4374  17.5559 C.3            1 RES1               0.0000
      2 C2          -9.3590  -8.8711  18.0478 C.ar           1 RES1               0.0000
      3 C3         -10.6339  -6.8331  18.5479 C.2            1 RES1               0.0000
      4 C4          -8.2967  -6.7260  17.5099 C.2            1 RES1               0.0000
      5 C5         -10.2665  -7.3744  16.1415 C.3            1 RES1               0.0000
      6 C6          -9.1210  -9.1236  19.3955 C.ar           1 RES1               0.0000
      7 C7          -9.3332  -9.9497  17.1679 C.ar           1 RES1               0.0000
      8 N8         -10.1614  -5.8993  19.4223 N.am           1 RES1               0.0000
      9 O9         -11.8021  -7.1992  18.5885 O.2            1 RES1               0.0000
     10 N10         -8.0923  -5.6813  18.3729 N.am           1 RES1               0.0000
     11 O11         -7.4039  -7.0712  16.7457 O.2            1 RES1               0.0000
     12 C12        -10.6800  -5.9746  15.7153 C.3            1 RES1               0.0000
     13 C13         -8.8691 -10.4083  19.8477 C.ar           1 RES1               0.0000
     14 C14         -9.0809 -11.2337  17.6221 C.ar           1 RES1               0.0000
     15 C15         -8.9524  -5.2555  19.3481 C.2            1 RES1               0.0000
     16 C16         -8.8494 -11.4641  18.9615 C.ar           1 RES1               0.0000
     17 O17         -8.6750  -4.3437  20.1220 O.2            1 RES1               0.0000
     18 H18         -9.5391  -7.7633  15.4182 H              1 RES1               0.0000
     19 H19        -11.1481  -8.0267  16.1141 H              1 RES1               0.0000
     20 H20         -9.1301  -8.3049  20.1074 H              1 RES1               0.0000
     21 H21         -9.5115  -9.7920  16.1096 H              1 RES1               0.0000
     22 H22        -10.7625  -5.6574  20.2036 H              1 RES1               0.0000
     23 H23         -7.2181  -5.1740  18.2795 H              1 RES1               0.0000
     24 H24        -11.1102  -5.9869  14.7161 H              1 RES1               0.0000
     25 H25        -11.4219  -5.5667  16.3987 H              1 RES1               0.0000
     26 H26         -9.8225  -5.3049  15.7069 H              1 RES1               0.0000
     27 H27         -8.6862 -10.5841  20.9026 H              1 RES1               0.0000
     28 H28         -9.0657 -12.0616  16.9210 H              1 RES1               0.0000
     29 H29         -8.6525 -12.4705  19.3160 H              1 RES1               0.0000
@<TRIPOS>BOND
    1    1    2 1     
    2    1    3 1     
    3    1    4 1     
    4    1    5 1     
    5    2    6 ar    
    6    2    7 ar    
    7    3    8 1     
    8    3    9 2     
    9    4   10 1     
   10    4   11 2     
   11    5   12 1     
   12    5   18 1     
   13    5   19 1     
   14    6   13 ar    
   15    6   20 1     
   16    7   14 ar    
   17    7   21 1     
   18    8   15 1     
   19    8   22 1     
   20   10   15 1     
   21   10   23 1     
   22   12   24 1     
   23   12   25 1     
   24   12   26 1     
   25   13   16 ar    
   26   13   27 1     
   27   14   16 ar    
   28   14   28 1     
   29   15   17 2     
   30   16   29 1     
@<TRIPOS>SUBSTRUCTURE
      1 RES1           1
@<TRIPOS>SET
DONOR_HYDROGENS      STATIC     ATOMS    <user>   **** ""
2 22 23
ATOM$RED        STATIC     ATOMS    COLORGROUP SYSTEM
2 22 23
@<TRIPOS>COMMENT
> <Gold.Version>
2022.3.0

> <Gold.Id.Protein>
unknown|3ovv_clean|pdb

> <Gold.Protein.RotatedTorsions>
[  604  597  595  592 ] final  111.82 input   59.96 | X-H torsion
[  622  617  616  613 ] final  148.59 input   59.98 | X-H torsion
[ 2560 2551 2550 2548 ] final   15.12 input   59.99 | X-H torsion
[ 2635 2624 2623 2622 ] final  128.73 input   60.00 | X-H torsion
[ 1835 1828 1827 1825 ] final -167.85 input   60.01 | X-H torsion
[ 5212 5203 5202 5200 ] final   96.90 input   59.98 | X-H torsion

> <Gold.Protein.ActiveResidues>
 THR48   LEU49   GLY50   THR51   GLY52   SER53   PHE54   GLY55   ARG56   VAL57  
 MET58   LEU59   VAL60   HIS68   TYR69   ALA70   MET71   LYS72   ILE73   LEU74  
 ASP75   LYS78   VAL79   LEU82   GLN84   THR88   GLU91   LEU95   VAL104  LYS105 
 LEU106  MET118  VAL119  MET120  GLU121  TYR122  VAL123  PRO124  GLY125  GLY126 
 GLU127  TYR164  ASP166  LYS168  GLU170  ASN171  LEU172  LEU173  ILE174  ASP175 
 GLN181  VAL182  THR183  ASP184  PHE185  GLY186  PHE187  PHE327  TYR330 

> <Gold.Protein.RotatedAtoms>
   -5.3269   -1.2783   14.0971 H   0  0  0  0  0  0  0  0  0  0  0  0  # atno 604  bound_to 597 
   -7.5979    1.8437   22.0108 H   0  0  0  0  0  0  0  0  0  0  0  0  # atno 622  bound_to 617 
   -7.1604  -17.6620    8.9020 H   0  0  0  0  0  0  0  0  0  0  0  0  # atno 1835 bound_to 1828
  -15.5357   -8.8549   22.9118 H   0  0  0  0  0  0  0  0  0  0  0  0  # atno 2560 bound_to 2551
  -14.3259   -1.2673   19.9832 H   0  0  0  0  0  0  0  0  0  0  0  0  # atno 2635 bound_to 2624
  -14.1062   -1.0922   18.3502 H   0  0  0  0  0  0  0  0  0  0  0  0  # atno 2636 bound_to 2624
  -15.4638   -0.4766   19.0748 H   0  0  0  0  0  0  0  0  0  0  0  0  # atno 2637 bound_to 2624
   -8.5365   -5.0596   11.6306 H   0  0  0  0  0  0  0  0  0  0  0  0  # atno 5212 bound_to 5203
   -6.1132   -2.6741   13.8124 LP  0  0  0  0  0  0  0  0  0  0  0  0  # atno 5531 bound_to 597 
   -4.9529   -2.1627   12.7834 LP  0  0  0  0  0  0  0  0  0  0  0  0  # atno 5532 bound_to 597 
   -7.3275    1.0590   20.6111 LP  0  0  0  0  0  0  0  0  0  0  0  0  # atno 5535 bound_to 617 
   -7.1904    2.6848   20.6786 LP  0  0  0  0  0  0  0  0  0  0  0  0  # atno 5536 bound_to 617 
  -16.0138   -7.3205   22.6578 LP  0  0  0  0  0  0  0  0  0  0  0  0  # atno 5569 bound_to 2551
  -16.9027   -8.5621   22.0792 LP  0  0  0  0  0  0  0  0  0  0  0  0  # atno 5570 bound_to 2551
   -6.2636  -16.3945    9.3902 LP  0  0  0  0  0  0  0  0  0  0  0  0  # atno 5599 bound_to 1828
   -7.8858  -16.3703    9.5763 LP  0  0  0  0  0  0  0  0  0  0  0  0  # atno 5600 bound_to 1828

> <Gold.Score>
     Fitness  S(hb_ext) S(vdw_ext)  S(hb_int)    S(int)      intcor
     44.31       1.75      31.12       0.00      -0.22      -0.77

> <Gold.Goldscore.Fitness>
44.3112

> <Gold.Goldscore.Internal.Vdw>
-0.5665

> <Gold.Goldscore.Internal.Torsion>
-0.4263

> <Gold.Goldscore.External.Vdw>
31.1202

> <Gold.Goldscore.Internal.HBond>
0.0000

> <Gold.Goldscore.External.HBond>
1.7451

> <Gold.Goldscore.Internal.Correction>
-0.7686

> <Gold.Goldscore.Hbonds>
donor molecule, donor type, donor heavy atom, donor atom, acceptor molecule, acceptor atom, score
      L1  H     8    22       P1  2900  0.29

> <Gold.Goldscore.Internal.Vdw.Weighted>
-0.5665

> <Gold.Goldscore.Internal.Torsion.Weighted>
-0.4263

> <Gold.Goldscore.External.Vdw.Weighted>
42.7903

> <Gold.Goldscore.Internal.HBond.Weighted>
0.0000

> <Gold.Goldscore.External.HBond.Weighted>
1.7451

> <Gold.Goldscore.Internal.Correction.Weighted>
-0.7686

> <Gold.Rescore>
     Score     S(PLP)   S(hbond)     S(cho)   S(metal)  DE(clash)   DE(tors)     intcor
     38.39     -36.38       1.07       0.00       0.00       0.00       0.60       ----

> <Gold.PLP.Fitness>
38.3874

> <Gold.PLP.PLP>
-36.3787

> <Gold.PLP.part.hbond>
-2.4339

> <Gold.PLP.part.metal>
0.0000

> <Gold.PLP.part.buried>
1.6077

> <Gold.PLP.part.nonpolar>
-39.7260

> <Gold.PLP.part.repulsive>
2.4519

> <Gold.PLP.ligand.clash>
0.0000

> <Gold.PLP.ligand.torsion>
0.5981

> <Gold.PLP.Chemscore.Hbond>
1.0682

> <Gold.PLP.Chemscore.CHOScore>
0.0000

> <Gold.PLP.Chemscore.Metal>
0.0000

> <Gold.Chemscore.Hbonds>
donor molecule, donor type, donor heavy atom, donor atom, acceptor molecule, acceptor atom, score
      L1  H     8    22       P1  2900  1.00

> <Gold.PLP.Chemscore.Internal.Correction>
   9.000000E+99

