#       Name:                CT1002167954
#       Creating user name   hitesit
#       Creation time:       Sun Apr 16 20:15:45 2023


#       File generated by GOLD software.
#

@<TRIPOS>MOLECULE
CT1002167954|ligand_prepared|mol2|1|dock6
    29    30     1
SMALL
NO_CHARGES


@<TRIPOS>ATOM
      1 C1          -9.3510  -7.9056  17.5168 C.3            1 RES1               0.0000
      2 C2          -9.1514  -9.3975  17.1802 C.ar           1 RES1               0.0000
      3 C3          -8.6215  -7.1200  16.4310 C.2            1 RES1               0.0000
      4 C4         -10.8575  -7.6730  17.5472 C.2            1 RES1               0.0000
      5 C5          -8.7760  -7.4931  18.8919 C.3            1 RES1               0.0000
      6 C6          -9.0411 -10.3442  18.1942 C.ar           1 RES1               0.0000
      7 C7          -9.0784  -9.8417  15.8626 C.ar           1 RES1               0.0000
      8 N8          -9.3803  -6.4903  15.4889 N.am           1 RES1               0.0000
      9 O9          -7.3982  -7.0864  16.3793 O.2            1 RES1               0.0000
     10 N10        -11.3995  -6.8503  16.5948 N.am           1 RES1               0.0000
     11 O11        -11.5823  -8.2079  18.3772 O.2            1 RES1               0.0000
     12 C12         -8.6621  -5.9888  19.0825 C.3            1 RES1               0.0000
     13 C13         -8.8672 -11.6868  17.9018 C.ar           1 RES1               0.0000
     14 C14         -8.9042 -11.1848  15.5724 C.ar           1 RES1               0.0000
     15 C15        -10.7334  -6.2729  15.5483 C.2            1 RES1               0.0000
     16 C16         -8.7990 -12.1081  16.5909 C.ar           1 RES1               0.0000
     17 O17        -11.3001  -5.5894  14.7005 O.2            1 RES1               0.0000
     18 H18         -9.4199  -7.9012  19.6807 H              1 RES1               0.0000
     19 H19         -7.7807  -7.9399  19.0069 H              1 RES1               0.0000
     20 H20         -9.0899 -10.0311  19.2318 H              1 RES1               0.0000
     21 H21         -9.1575  -9.1332  15.0452 H              1 RES1               0.0000
     22 H22         -8.8970  -6.1496  14.6639 H              1 RES1               0.0000
     23 H23        -12.3914  -6.6497  16.6732 H              1 RES1               0.0000
     24 H24         -8.2534  -5.7541  20.0631 H              1 RES1               0.0000
     25 H25         -8.0083  -5.5530  18.3298 H              1 RES1               0.0000
     26 H26         -9.6378  -5.5145  18.9996 H              1 RES1               0.0000
     27 H27         -8.7836 -12.4092  18.7071 H              1 RES1               0.0000
     28 H28         -8.8505 -11.5118  14.5393 H              1 RES1               0.0000
     29 H29         -8.6632 -13.1599  16.3622 H              1 RES1               0.0000
@<TRIPOS>BOND
    1    1    2 1     
    2    1    3 1     
    3    1    4 1     
    4    1    5 1     
    5    2    6 ar    
    6    2    7 ar    
    7    3    8 1     
    8    3    9 2     
    9    4   10 1     
   10    4   11 2     
   11    5   12 1     
   12    5   18 1     
   13    5   19 1     
   14    6   13 ar    
   15    6   20 1     
   16    7   14 ar    
   17    7   21 1     
   18    8   15 1     
   19    8   22 1     
   20   10   15 1     
   21   10   23 1     
   22   12   24 1     
   23   12   25 1     
   24   12   26 1     
   25   13   16 ar    
   26   13   27 1     
   27   14   16 ar    
   28   14   28 1     
   29   15   17 2     
   30   16   29 1     
@<TRIPOS>SUBSTRUCTURE
      1 RES1           1
@<TRIPOS>SET
DONOR_HYDROGENS      STATIC     ATOMS    <user>   **** ""
2 22 23
ATOM$RED        STATIC     ATOMS    COLORGROUP SYSTEM
2 22 23
@<TRIPOS>COMMENT
> <Gold.Version>
2022.3.0

> <Gold.Id.Protein>
unknown|3ovv_clean|pdb

> <Gold.Protein.RotatedTorsions>
[  604  597  595  592 ] final  -54.75 input   59.96 | X-H torsion
[  622  617  616  613 ] final  -54.72 input   59.98 | X-H torsion
[ 2560 2551 2550 2548 ] final -164.17 input   59.99 | X-H torsion
[ 2635 2624 2623 2622 ] final   32.52 input   60.00 | X-H torsion
[ 1835 1828 1827 1825 ] final  -53.42 input   60.01 | X-H torsion
[ 5212 5203 5202 5200 ] final   82.50 input   59.98 | X-H torsion

> <Gold.Protein.ActiveResidues>
 THR48   LEU49   GLY50   THR51   GLY52   SER53   PHE54   GLY55   ARG56   VAL57  
 MET58   LEU59   VAL60   HIS68   TYR69   ALA70   MET71   LYS72   ILE73   LEU74  
 ASP75   LYS78   VAL79   LEU82   GLN84   THR88   GLU91   LEU95   VAL104  LYS105 
 LEU106  MET118  VAL119  MET120  GLU121  TYR122  VAL123  PRO124  GLY125  GLY126 
 GLU127  TYR164  ASP166  LYS168  GLU170  ASN171  LEU172  LEU173  ILE174  ASP175 
 GLN181  VAL182  THR183  ASP184  PHE185  GLY186  PHE187  PHE327  TYR330 

> <Gold.Protein.RotatedAtoms>
   -5.7500   -2.8435   13.1871 H   0  0  0  0  0  0  0  0  0  0  0  0  # atno 604  bound_to 597 
   -7.1314    2.2481   20.2840 H   0  0  0  0  0  0  0  0  0  0  0  0  # atno 622  bound_to 617 
   -7.9267  -16.4471    9.5475 H   0  0  0  0  0  0  0  0  0  0  0  0  # atno 1835 bound_to 1828
  -16.7577   -7.6311   22.1956 H   0  0  0  0  0  0  0  0  0  0  0  0  # atno 2560 bound_to 2551
  -15.4440   -0.5573   19.4600 H   0  0  0  0  0  0  0  0  0  0  0  0  # atno 2635 bound_to 2624
  -14.0357   -1.3832   19.7428 H   0  0  0  0  0  0  0  0  0  0  0  0  # atno 2636 bound_to 2624
  -14.4163   -0.8955   18.2051 H   0  0  0  0  0  0  0  0  0  0  0  0  # atno 2637 bound_to 2624
   -8.5535   -5.2847   11.5669 H   0  0  0  0  0  0  0  0  0  0  0  0  # atno 5212 bound_to 5203
   -4.7832   -1.5352   13.1482 LP  0  0  0  0  0  0  0  0  0  0  0  0  # atno 5531 bound_to 597 
   -5.8566   -1.7250   14.3641 LP  0  0  0  0  0  0  0  0  0  0  0  0  # atno 5532 bound_to 597 
   -7.5091    2.4084   21.8587 LP  0  0  0  0  0  0  0  0  0  0  0  0  # atno 5535 bound_to 617 
   -7.4785    0.9281   21.1700 LP  0  0  0  0  0  0  0  0  0  0  0  0  # atno 5536 bound_to 617 
  -16.2937   -9.1720   22.4362 LP  0  0  0  0  0  0  0  0  0  0  0  0  # atno 5569 bound_to 2551
  -15.3916   -7.9435   23.0225 LP  0  0  0  0  0  0  0  0  0  0  0  0  # atno 5570 bound_to 2551
   -7.0698  -17.6641    8.8890 LP  0  0  0  0  0  0  0  0  0  0  0  0  # atno 5599 bound_to 1828
   -6.3082  -16.3238    9.4277 LP  0  0  0  0  0  0  0  0  0  0  0  0  # atno 5600 bound_to 1828

> <Gold.Score>
     Fitness  S(hb_ext) S(vdw_ext)  S(hb_int)    S(int)      intcor
     44.44       0.09      32.77       0.00      -0.72      -0.77

> <Gold.Goldscore.Fitness>
44.4371

> <Gold.Goldscore.Internal.Vdw>
-0.8048

> <Gold.Goldscore.Internal.Torsion>
-0.6835

> <Gold.Goldscore.External.Vdw>
32.7744

> <Gold.Goldscore.Internal.HBond>
0.0000

> <Gold.Goldscore.External.HBond>
0.0920

> <Gold.Goldscore.Internal.Correction>
-0.7686

> <Gold.Goldscore.Hbonds>
donor molecule, donor type, donor heavy atom, donor atom, acceptor molecule, acceptor atom, score
      L1  H    10    23       P1  2655  0.05

> <Gold.Goldscore.Internal.Vdw.Weighted>
-0.8048

> <Gold.Goldscore.Internal.Torsion.Weighted>
-0.6835

> <Gold.Goldscore.External.Vdw.Weighted>
45.0648

> <Gold.Goldscore.Internal.HBond.Weighted>
0.0000

> <Gold.Goldscore.External.HBond.Weighted>
0.0920

> <Gold.Goldscore.Internal.Correction.Weighted>
-0.7686

> <Gold.Rescore>
     Score     S(PLP)   S(hbond)     S(cho)   S(metal)  DE(clash)   DE(tors)     intcor
     47.96     -46.32       1.22       0.00       0.00       0.00       1.00       ----

> <Gold.PLP.Fitness>
47.9559

> <Gold.PLP.PLP>
-46.3180

> <Gold.PLP.part.hbond>
-2.4518

> <Gold.PLP.part.metal>
0.0000

> <Gold.PLP.part.buried>
-0.3202

> <Gold.PLP.part.nonpolar>
-45.0523

> <Gold.PLP.part.repulsive>
0.8533

> <Gold.PLP.ligand.clash>
0.0000

> <Gold.PLP.ligand.torsion>
1.0035

> <Gold.PLP.Chemscore.Hbond>
1.2150

> <Gold.PLP.Chemscore.CHOScore>
0.0000

> <Gold.PLP.Chemscore.Metal>
0.0000

> <Gold.Chemscore.Hbonds>
donor molecule, donor type, donor heavy atom, donor atom, acceptor molecule, acceptor atom, score
      L1  H    10    23       P1  2655  0.50
      P1  H  2880  2892       L1    11  0.11

> <Gold.PLP.Chemscore.Internal.Correction>
   9.000000E+99

