#       Name:                CT1002167954
#       Creating user name   hitesit
#       Creation time:       Sun Apr 16 20:15:44 2023


#       File generated by GOLD software.
#

@<TRIPOS>MOLECULE
CT1002167954|ligand_prepared|mol2|1|dock5
    29    30     1
SMALL
NO_CHARGES


@<TRIPOS>ATOM
      1 C1          -9.2962  -7.8299  17.7851 C.3            1 RES1               0.0000
      2 C2          -9.1570  -9.2802  17.2792 C.ar           1 RES1               0.0000
      3 C3          -8.2463  -7.0129  17.0378 C.2            1 RES1               0.0000
      4 C4         -10.7332  -7.4123  17.4931 C.2            1 RES1               0.0000
      5 C5          -9.0520  -7.6718  19.3039 C.3            1 RES1               0.0000
      6 C6          -8.9989 -10.3318  18.1770 C.ar           1 RES1               0.0000
      7 C7          -9.1876  -9.5821  15.9203 C.ar           1 RES1               0.0000
      8 N8          -8.6805  -6.1770  16.0515 N.am           1 RES1               0.0000
      9 O9          -7.0520  -7.1297  17.2833 O.2            1 RES1               0.0000
     10 N10        -10.9382  -6.4131  16.5780 N.am           1 RES1               0.0000
     11 O11        -11.6907  -7.9509  18.0348 O.2            1 RES1               0.0000
     12 C12         -9.0532  -6.2270  19.7780 C.3            1 RES1               0.0000
     13 C13         -8.8786 -11.6381  17.7327 C.ar           1 RES1               0.0000
     14 C14         -9.0668 -10.8891  15.4781 C.ar           1 RES1               0.0000
     15 C15         -9.9785  -5.7977  15.8213 C.2            1 RES1               0.0000
     16 C16         -8.9129 -11.9177  16.3831 C.ar           1 RES1               0.0000
     17 O17        -10.2466  -4.9455  14.9792 O.2            1 RES1               0.0000
     18 H18         -9.8310  -8.2219  19.8460 H              1 RES1               0.0000
     19 H19         -8.0851  -8.1250  19.5552 H              1 RES1               0.0000
     20 H20         -8.9671 -10.1308  19.2427 H              1 RES1               0.0000
     21 H21         -9.3067  -8.7888  15.1901 H              1 RES1               0.0000
     22 H22         -7.9749  -5.7992  15.4273 H              1 RES1               0.0000
     23 H23        -11.8947  -6.0988  16.4491 H              1 RES1               0.0000
     24 H24         -8.8775  -6.1728  20.8504 H              1 RES1               0.0000
     25 H25         -8.2736  -5.6562  19.2777 H              1 RES1               0.0000
     26 H26        -10.0093  -5.7526  19.5668 H              1 RES1               0.0000
     27 H27         -8.7563 -12.4438  18.4489 H              1 RES1               0.0000
     28 H28         -9.0938 -11.1045  14.4150 H              1 RES1               0.0000
     29 H29         -8.8190 -12.9411  16.0353 H              1 RES1               0.0000
@<TRIPOS>BOND
    1    1    2 1     
    2    1    3 1     
    3    1    4 1     
    4    1    5 1     
    5    2    6 ar    
    6    2    7 ar    
    7    3    8 1     
    8    3    9 2     
    9    4   10 1     
   10    4   11 2     
   11    5   12 1     
   12    5   18 1     
   13    5   19 1     
   14    6   13 ar    
   15    6   20 1     
   16    7   14 ar    
   17    7   21 1     
   18    8   15 1     
   19    8   22 1     
   20   10   15 1     
   21   10   23 1     
   22   12   24 1     
   23   12   25 1     
   24   12   26 1     
   25   13   16 ar    
   26   13   27 1     
   27   14   16 ar    
   28   14   28 1     
   29   15   17 2     
   30   16   29 1     
@<TRIPOS>SUBSTRUCTURE
      1 RES1           1
@<TRIPOS>SET
DONOR_HYDROGENS      STATIC     ATOMS    <user>   **** ""
2 22 23
ATOM$RED        STATIC     ATOMS    COLORGROUP SYSTEM
2 22 23
@<TRIPOS>COMMENT
> <Gold.Version>
2022.3.0

> <Gold.Id.Protein>
unknown|3ovv_clean|pdb

> <Gold.Protein.RotatedTorsions>
[  604  597  595  592 ] final  115.21 input   59.96 | X-H torsion
[  622  617  616  613 ] final  172.70 input   59.98 | X-H torsion
[ 2560 2551 2550 2548 ] final  -45.76 input   59.99 | X-H torsion
[ 2635 2624 2623 2622 ] final  101.96 input   60.00 | X-H torsion
[ 1835 1828 1827 1825 ] final   20.47 input   60.01 | X-H torsion
[ 5212 5203 5202 5200 ] final   98.76 input   59.98 | X-H torsion

> <Gold.Protein.ActiveResidues>
 THR48   LEU49   GLY50   THR51   GLY52   SER53   PHE54   GLY55   ARG56   VAL57  
 MET58   LEU59   VAL60   HIS68   TYR69   ALA70   MET71   LYS72   ILE73   LEU74  
 ASP75   LYS78   VAL79   LEU82   GLN84   THR88   GLU91   LEU95   VAL104  LYS105 
 LEU106  MET118  VAL119  MET120  GLU121  TYR122  VAL123  PRO124  GLY125  GLY126 
 GLU127  TYR164  ASP166  LYS168  GLU170  ASN171  LEU172  LEU173  ILE174  ASP175 
 GLN181  VAL182  THR183  ASP184  PHE185  GLY186  PHE187  PHE327  TYR330 

> <Gold.Protein.RotatedAtoms>
   -5.2878   -1.2623   14.0613 H   0  0  0  0  0  0  0  0  0  0  0  0  # atno 604  bound_to 597 
   -7.5459    2.2262   21.9473 H   0  0  0  0  0  0  0  0  0  0  0  0  # atno 622  bound_to 617 
   -6.9121  -15.9718    9.6583 H   0  0  0  0  0  0  0  0  0  0  0  0  # atno 1835 bound_to 1828
  -15.4059   -7.9213   23.0167 H   0  0  0  0  0  0  0  0  0  0  0  0  # atno 2560 bound_to 2551
  -14.7116   -1.0727   20.0807 H   0  0  0  0  0  0  0  0  0  0  0  0  # atno 2635 bound_to 2624
  -13.8666   -1.2821   18.6708 H   0  0  0  0  0  0  0  0  0  0  0  0  # atno 2636 bound_to 2624
  -15.3177   -0.4812   18.6566 H   0  0  0  0  0  0  0  0  0  0  0  0  # atno 2637 bound_to 2624
   -8.5354   -5.0294   11.6348 H   0  0  0  0  0  0  0  0  0  0  0  0  # atno 5212 bound_to 5203
   -6.1248   -2.6426   13.8568 LP  0  0  0  0  0  0  0  0  0  0  0  0  # atno 5531 bound_to 597 
   -4.9806   -2.2103   12.7750 LP  0  0  0  0  0  0  0  0  0  0  0  0  # atno 5532 bound_to 597 
   -7.4285    0.9307   20.9696 LP  0  0  0  0  0  0  0  0  0  0  0  0  # atno 5535 bound_to 617 
   -7.1416    2.4278   20.3840 LP  0  0  0  0  0  0  0  0  0  0  0  0  # atno 5536 bound_to 617 
  -16.7754   -7.6465   22.1820 LP  0  0  0  0  0  0  0  0  0  0  0  0  # atno 5569 bound_to 2551
  -16.2718   -9.1767   22.4495 LP  0  0  0  0  0  0  0  0  0  0  0  0  # atno 5570 bound_to 2551
   -7.9950  -17.1139    9.2436 LP  0  0  0  0  0  0  0  0  0  0  0  0  # atno 5599 bound_to 1828
   -6.4044  -17.3524    8.9616 LP  0  0  0  0  0  0  0  0  0  0  0  0  # atno 5600 bound_to 1828

> <Gold.Score>
     Fitness  S(hb_ext) S(vdw_ext)  S(hb_int)    S(int)      intcor
     43.44       0.00      32.16       0.00      -0.78      -0.77

> <Gold.Goldscore.Fitness>
43.4449

> <Gold.Goldscore.Internal.Vdw>
-1.1228

> <Gold.Goldscore.Internal.Torsion>
-0.4228

> <Gold.Goldscore.External.Vdw>
32.1613

> <Gold.Goldscore.Internal.HBond>
0.0000

> <Gold.Goldscore.External.HBond>
0.0000

> <Gold.Goldscore.Internal.Correction>
-0.7686

> <Gold.Goldscore.Internal.Vdw.Weighted>
-1.1228

> <Gold.Goldscore.Internal.Torsion.Weighted>
-0.4228

> <Gold.Goldscore.External.Vdw.Weighted>
44.2218

> <Gold.Goldscore.Internal.HBond.Weighted>
0.0000

> <Gold.Goldscore.External.HBond.Weighted>
0.0000

> <Gold.Goldscore.Internal.Correction.Weighted>
-0.7686

> <Gold.Rescore>
     Score     S(PLP)   S(hbond)     S(cho)   S(metal)  DE(clash)   DE(tors)     intcor
     50.42     -45.48       2.26       0.00       0.00       0.00       0.92       ----

> <Gold.PLP.Fitness>
50.4191

> <Gold.PLP.PLP>
-45.4839

> <Gold.PLP.part.hbond>
-3.0000

> <Gold.PLP.part.metal>
0.0000

> <Gold.PLP.part.buried>
-0.5822

> <Gold.PLP.part.nonpolar>
-43.2406

> <Gold.PLP.part.repulsive>
0.5733

> <Gold.PLP.ligand.clash>
0.0000

> <Gold.PLP.ligand.torsion>
0.9153

> <Gold.PLP.Chemscore.Hbond>
2.2553

> <Gold.PLP.Chemscore.CHOScore>
0.0000

> <Gold.PLP.Chemscore.Metal>
0.0000

> <Gold.PLP.Chemscore.Internal.Correction>
   9.000000E+99

