#       Name:                CT1002167954
#       Creating user name   hitesit
#       Creation time:       Sun Apr 16 20:15:41 2023


#       File generated by GOLD software.
#

@<TRIPOS>MOLECULE
CT1002167954|ligand_prepared|mol2|1|dock2
    29    30     1
SMALL
NO_CHARGES


@<TRIPOS>ATOM
      1 C1          -9.2993  -8.2933  17.8512 C.3            1 RES1               0.0000
      2 C2          -9.0661  -9.8024  17.6340 C.ar           1 RES1               0.0000
      3 C3          -8.8503  -7.9914  19.2780 C.2            1 RES1               0.0000
      4 C4          -8.4862  -7.5773  16.7785 C.2            1 RES1               0.0000
      5 C5         -10.7763  -7.8611  17.6992 C.3            1 RES1               0.0000
      6 C6          -9.4517 -10.4151  16.4454 C.ar           1 RES1               0.0000
      7 C7          -8.4653 -10.5929  18.6101 C.ar           1 RES1               0.0000
      8 N8          -7.6743  -7.3206  19.4417 N.am           1 RES1               0.0000
      9 O9          -9.4984  -8.3709  20.2456 O.2            1 RES1               0.0000
     10 N10         -7.4325  -6.8002  17.1832 N.am           1 RES1               0.0000
     11 O11         -8.7382  -7.6922  15.5853 O.2            1 RES1               0.0000
     12 C12        -11.0134  -6.3833  17.9677 C.3            1 RES1               0.0000
     13 C13         -9.2416 -11.7684  16.2389 C.ar           1 RES1               0.0000
     14 C14         -8.2564 -11.9462  18.4016 C.ar           1 RES1               0.0000
     15 C15         -6.9709  -6.6640  18.4640 C.2            1 RES1               0.0000
     16 C16         -8.6435 -12.5347  17.2165 C.ar           1 RES1               0.0000
     17 O17         -5.9832  -5.9901  18.7425 O.2            1 RES1               0.0000
     18 H18        -11.1088  -8.0925  16.6798 H              1 RES1               0.0000
     19 H19        -11.3895  -8.4488  18.3935 H              1 RES1               0.0000
     20 H20         -9.9261  -9.8287  15.6656 H              1 RES1               0.0000
     21 H21         -8.1536 -10.1515  19.5506 H              1 RES1               0.0000
     22 H22         -7.2815  -7.3058  20.3775 H              1 RES1               0.0000
     23 H23         -6.9475  -6.2746  16.4630 H              1 RES1               0.0000
     24 H24        -12.0654  -6.1333  17.8474 H              1 RES1               0.0000
     25 H25        -10.7171  -6.1231  18.9818 H              1 RES1               0.0000
     26 H26        -10.4381  -5.7689  17.2783 H              1 RES1               0.0000
     27 H27         -9.5493 -12.2271  15.3050 H              1 RES1               0.0000
     28 H28         -7.7859 -12.5455  19.1740 H              1 RES1               0.0000
     29 H29         -8.4787 -13.5948  17.0543 H              1 RES1               0.0000
@<TRIPOS>BOND
    1    1    2 1     
    2    1    3 1     
    3    1    4 1     
    4    1    5 1     
    5    2    6 ar    
    6    2    7 ar    
    7    3    8 1     
    8    3    9 2     
    9    4   10 1     
   10    4   11 2     
   11    5   12 1     
   12    5   18 1     
   13    5   19 1     
   14    6   13 ar    
   15    6   20 1     
   16    7   14 ar    
   17    7   21 1     
   18    8   15 1     
   19    8   22 1     
   20   10   15 1     
   21   10   23 1     
   22   12   24 1     
   23   12   25 1     
   24   12   26 1     
   25   13   16 ar    
   26   13   27 1     
   27   14   16 ar    
   28   14   28 1     
   29   15   17 2     
   30   16   29 1     
@<TRIPOS>SUBSTRUCTURE
      1 RES1           1
@<TRIPOS>SET
DONOR_HYDROGENS      STATIC     ATOMS    <user>   **** ""
2 22 23
ATOM$RED        STATIC     ATOMS    COLORGROUP SYSTEM
2 22 23
@<TRIPOS>COMMENT
> <Gold.Version>
2022.3.0

> <Gold.Id.Protein>
unknown|3ovv_clean|pdb

> <Gold.Protein.RotatedTorsions>
[  604  597  595  592 ] final   68.56 input   59.96 | X-H torsion
[  622  617  616  613 ] final  -53.47 input   59.98 | X-H torsion
[ 2560 2551 2550 2548 ] final  172.67 input   59.99 | X-H torsion
[ 2635 2624 2623 2622 ] final  173.20 input   60.00 | X-H torsion
[ 1835 1828 1827 1825 ] final   18.12 input   60.01 | X-H torsion
[ 5212 5203 5202 5200 ] final   47.22 input   59.98 | X-H torsion

> <Gold.Protein.ActiveResidues>
 THR48   LEU49   GLY50   THR51   GLY52   SER53   PHE54   GLY55   ARG56   VAL57  
 MET58   LEU59   VAL60   HIS68   TYR69   ALA70   MET71   LYS72   ILE73   LEU74  
 ASP75   LYS78   VAL79   LEU82   GLN84   THR88   GLU91   LEU95   VAL104  LYS105 
 LEU106  MET118  VAL119  MET120  GLU121  TYR122  VAL123  PRO124  GLY125  GLY126 
 GLU127  TYR164  ASP166  LYS168  GLU170  ASN171  LEU172  LEU173  ILE174  ASP175 
 GLN181  VAL182  THR183  ASP184  PHE185  GLY186  PHE187  PHE327  TYR330 

> <Gold.Protein.RotatedAtoms>
   -5.8196   -1.6853   14.3570 H   0  0  0  0  0  0  0  0  0  0  0  0  # atno 604  bound_to 597 
   -7.1310    2.2296   20.2756 H   0  0  0  0  0  0  0  0  0  0  0  0  # atno 622  bound_to 617 
   -6.9496  -15.9669    9.6646 H   0  0  0  0  0  0  0  0  0  0  0  0  # atno 1835 bound_to 1828
  -16.9121   -7.9577   22.0921 H   0  0  0  0  0  0  0  0  0  0  0  0  # atno 2560 bound_to 2551
  -13.8647   -1.4241   19.4476 H   0  0  0  0  0  0  0  0  0  0  0  0  # atno 2635 bound_to 2624
  -14.7169   -0.7303   18.2076 H   0  0  0  0  0  0  0  0  0  0  0  0  # atno 2636 bound_to 2624
  -15.3142   -0.6817   19.7529 H   0  0  0  0  0  0  0  0  0  0  0  0  # atno 2637 bound_to 2624
   -8.6472   -5.7118   11.2054 H   0  0  0  0  0  0  0  0  0  0  0  0  # atno 5212 bound_to 5203
   -5.7888   -2.8533   13.2244 LP  0  0  0  0  0  0  0  0  0  0  0  0  # atno 5531 bound_to 597 
   -4.7809   -1.5735   13.1095 LP  0  0  0  0  0  0  0  0  0  0  0  0  # atno 5532 bound_to 597 
   -7.5048    2.4248   21.8473 LP  0  0  0  0  0  0  0  0  0  0  0  0  # atno 5535 bound_to 617 
   -7.4832    0.9302   21.1898 LP  0  0  0  0  0  0  0  0  0  0  0  0  # atno 5536 bound_to 617 
  -15.9710   -9.1694   22.6341 LP  0  0  0  0  0  0  0  0  0  0  0  0  # atno 5569 bound_to 2551
  -15.5588   -7.6170   22.9288 LP  0  0  0  0  0  0  0  0  0  0  0  0  # atno 5570 bound_to 2551
   -7.9823  -17.1465    9.2271 LP  0  0  0  0  0  0  0  0  0  0  0  0  # atno 5599 bound_to 1828
   -6.3793  -17.3248    8.9717 LP  0  0  0  0  0  0  0  0  0  0  0  0  # atno 5600 bound_to 1828

> <Gold.Score>
     Fitness  S(hb_ext) S(vdw_ext)  S(hb_int)    S(int)      intcor
     49.90       1.83      36.66       0.00      -2.33      -0.77

> <Gold.Goldscore.Fitness>
49.9044

> <Gold.Goldscore.Internal.Vdw>
-2.7195

> <Gold.Goldscore.Internal.Torsion>
-0.3769

> <Gold.Goldscore.External.Vdw>
36.6596

> <Gold.Goldscore.Internal.HBond>
0.0000

> <Gold.Goldscore.External.HBond>
1.8253

> <Gold.Goldscore.Internal.Correction>
-0.7686

> <Gold.Goldscore.Hbonds>
donor molecule, donor type, donor heavy atom, donor atom, acceptor molecule, acceptor atom, score
      P1  H   932   945       L1     9  0.30

> <Gold.Goldscore.Internal.Vdw.Weighted>
-2.7195

> <Gold.Goldscore.Internal.Torsion.Weighted>
-0.3769

> <Gold.Goldscore.External.Vdw.Weighted>
50.4069

> <Gold.Goldscore.Internal.HBond.Weighted>
0.0000

> <Gold.Goldscore.External.HBond.Weighted>
1.8253

> <Gold.Goldscore.Internal.Correction.Weighted>
-0.7686

> <Gold.Rescore>
     Score     S(PLP)   S(hbond)     S(cho)   S(metal)  DE(clash)   DE(tors)     intcor
     52.28     -51.91       0.66       0.00       0.00       1.17       0.22       ----

> <Gold.PLP.Fitness>
52.2775

> <Gold.PLP.PLP>
-51.9118

> <Gold.PLP.part.hbond>
-1.0000

> <Gold.PLP.part.metal>
0.0000

> <Gold.PLP.part.buried>
-4.7801

> <Gold.PLP.part.nonpolar>
-47.8434

> <Gold.PLP.part.repulsive>
0.5426

> <Gold.PLP.ligand.clash>
1.1741

> <Gold.PLP.ligand.torsion>
0.2199

> <Gold.PLP.Chemscore.Hbond>
0.6599

> <Gold.PLP.Chemscore.CHOScore>
0.0000

> <Gold.PLP.Chemscore.Metal>
0.0000

> <Gold.PLP.Chemscore.Internal.Correction>
   9.000000E+99

