#       Name:                CT1002167954
#       Creating user name   hitesit
#       Creation time:       Sun Apr 16 20:15:47 2023


#       File generated by GOLD software.
#

@<TRIPOS>MOLECULE
CT1002167954|ligand_prepared|mol2|1|dock7
    29    30     1
SMALL
NO_CHARGES


@<TRIPOS>ATOM
      1 C1         -10.0957  -6.8123  17.7061 C.3            1 RES1               0.0000
      2 C2          -9.5705  -8.1665  18.2247 C.ar           1 RES1               0.0000
      3 C3          -8.8734  -5.9143  17.5390 C.2            1 RES1               0.0000
      4 C4         -10.8314  -7.1102  16.4044 C.2            1 RES1               0.0000
      5 C5         -11.0879  -6.1174  18.6675 C.3            1 RES1               0.0000
      6 C6          -9.3264  -9.2161  17.3440 C.ar           1 RES1               0.0000
      7 C7          -9.3232  -8.3801  19.5781 C.ar           1 RES1               0.0000
      8 N8          -8.4434  -5.6622  16.2696 N.am           1 RES1               0.0000
      9 O9          -8.2724  -5.4663  18.5077 O.2            1 RES1               0.0000
     10 N10        -10.3109  -6.6039  15.2423 N.am           1 RES1               0.0000
     11 O11        -11.8480  -7.7927  16.3726 O.2            1 RES1               0.0000
     12 C12        -11.8774  -4.9887  18.0232 C.3            1 RES1               0.0000
     13 C13         -8.8496 -10.4341  17.7994 C.ar           1 RES1               0.0000
     14 C14         -8.8465  -9.5990  20.0315 C.ar           1 RES1               0.0000
     15 C15         -9.1334  -5.9192  15.1122 C.2            1 RES1               0.0000
     16 C16         -8.6089 -10.6263  19.1432 C.ar           1 RES1               0.0000
     17 O17         -8.7040  -5.5433  14.0253 O.2            1 RES1               0.0000
     18 H18        -11.7917  -6.8666  19.0507 H              1 RES1               0.0000
     19 H19        -10.5291  -5.7148  19.5213 H              1 RES1               0.0000
     20 H20         -9.5122  -9.0842  16.2833 H              1 RES1               0.0000
     21 H21         -9.5039  -7.5866  20.2953 H              1 RES1               0.0000
     22 H22         -7.5237  -5.2440  16.1718 H              1 RES1               0.0000
     23 H23        -10.8514  -6.7510  14.3957 H              1 RES1               0.0000
     24 H24        -12.5582  -4.5357  18.7408 H              1 RES1               0.0000
     25 H25        -11.2098  -4.2133  17.6532 H              1 RES1               0.0000
     26 H26        -12.4649  -5.3584  17.1853 H              1 RES1               0.0000
     27 H27         -8.6655 -11.2398  17.0964 H              1 RES1               0.0000
     28 H28         -8.6591  -9.7460  21.0900 H              1 RES1               0.0000
     29 H29         -8.2350 -11.5804  19.4996 H              1 RES1               0.0000
@<TRIPOS>BOND
    1    1    2 1     
    2    1    3 1     
    3    1    4 1     
    4    1    5 1     
    5    2    6 ar    
    6    2    7 ar    
    7    3    8 1     
    8    3    9 2     
    9    4   10 1     
   10    4   11 2     
   11    5   12 1     
   12    5   18 1     
   13    5   19 1     
   14    6   13 ar    
   15    6   20 1     
   16    7   14 ar    
   17    7   21 1     
   18    8   15 1     
   19    8   22 1     
   20   10   15 1     
   21   10   23 1     
   22   12   24 1     
   23   12   25 1     
   24   12   26 1     
   25   13   16 ar    
   26   13   27 1     
   27   14   16 ar    
   28   14   28 1     
   29   15   17 2     
   30   16   29 1     
@<TRIPOS>SUBSTRUCTURE
      1 RES1           1
@<TRIPOS>SET
DONOR_HYDROGENS      STATIC     ATOMS    <user>   **** ""
2 22 23
ATOM$RED        STATIC     ATOMS    COLORGROUP SYSTEM
2 22 23
@<TRIPOS>COMMENT
> <Gold.Version>
2022.3.0

> <Gold.Id.Protein>
unknown|3ovv_clean|pdb

> <Gold.Protein.RotatedTorsions>
[  604  597  595  592 ] final   -6.18 input   59.96 | X-H torsion
[  622  617  616  613 ] final   -4.67 input   59.98 | X-H torsion
[ 2560 2551 2550 2548 ] final  138.01 input   59.99 | X-H torsion
[ 2635 2624 2623 2622 ] final   86.81 input   60.00 | X-H torsion
[ 1835 1828 1827 1825 ] final  171.38 input   60.01 | X-H torsion
[ 5212 5203 5202 5200 ] final   94.53 input   59.98 | X-H torsion

> <Gold.Protein.ActiveResidues>
 THR48   LEU49   GLY50   THR51   GLY52   SER53   PHE54   GLY55   ARG56   VAL57  
 MET58   LEU59   VAL60   HIS68   TYR69   ALA70   MET71   LYS72   ILE73   LEU74  
 ASP75   LYS78   VAL79   LEU82   GLN84   THR88   GLU91   LEU95   VAL104  LYS105 
 LEU106  MET118  VAL119  MET120  GLU121  TYR122  VAL123  PRO124  GLY125  GLY126 
 GLU127  TYR164  ASP166  LYS168  GLU170  ASN171  LEU172  LEU173  ILE174  ASP175 
 GLN181  VAL182  THR183  ASP184  PHE185  GLY186  PHE187  PHE327  TYR330 

> <Gold.Protein.RotatedAtoms>
   -6.1142   -2.6523   13.8380 H   0  0  0  0  0  0  0  0  0  0  0  0  # atno 604  bound_to 597 
   -7.2036    1.4594   20.2743 H   0  0  0  0  0  0  0  0  0  0  0  0  # atno 622  bound_to 617 
   -6.8268  -17.6117    8.8894 H   0  0  0  0  0  0  0  0  0  0  0  0  # atno 1835 bound_to 1828
  -16.9112   -8.5151   22.0776 H   0  0  0  0  0  0  0  0  0  0  0  0  # atno 2560 bound_to 2551
  -14.9276   -0.9475   20.0457 H   0  0  0  0  0  0  0  0  0  0  0  0  # atno 2635 bound_to 2624
  -13.8019   -1.3596   18.9019 H   0  0  0  0  0  0  0  0  0  0  0  0  # atno 2636 bound_to 2624
  -15.1665   -0.5289   18.4604 H   0  0  0  0  0  0  0  0  0  0  0  0  # atno 2637 bound_to 2624
   -8.5383   -5.0977   11.6239 H   0  0  0  0  0  0  0  0  0  0  0  0  # atno 5212 bound_to 5203
   -4.9690   -2.1909   12.7781 LP  0  0  0  0  0  0  0  0  0  0  0  0  # atno 5531 bound_to 597 
   -5.3039   -1.2619   14.0786 LP  0  0  0  0  0  0  0  0  0  0  0  0  # atno 5532 bound_to 597 
   -7.3071    2.7986   21.1930 LP  0  0  0  0  0  0  0  0  0  0  0  0  # atno 5535 bound_to 617 
   -7.6077    1.3321   21.8454 LP  0  0  0  0  0  0  0  0  0  0  0  0  # atno 5536 bound_to 617 
  -15.5567   -8.8946   22.8955 LP  0  0  0  0  0  0  0  0  0  0  0  0  # atno 5569 bound_to 2551
  -15.9740   -7.3303   22.6820 LP  0  0  0  0  0  0  0  0  0  0  0  0  # atno 5570 bound_to 2551
   -6.4665  -16.1562    9.5225 LP  0  0  0  0  0  0  0  0  0  0  0  0  # atno 5599 bound_to 1828
   -8.0186  -16.6594    9.4567 LP  0  0  0  0  0  0  0  0  0  0  0  0  # atno 5600 bound_to 1828

> <Gold.Score>
     Fitness  S(hb_ext) S(vdw_ext)  S(hb_int)    S(int)      intcor
     43.54       3.85      29.60       0.00      -1.01      -0.77

> <Gold.Goldscore.Fitness>
43.5396

> <Gold.Goldscore.Internal.Vdw>
-1.0615

> <Gold.Goldscore.Internal.Torsion>
-0.7132

> <Gold.Goldscore.External.Vdw>
29.5987

> <Gold.Goldscore.Internal.HBond>
0.0000

> <Gold.Goldscore.External.HBond>
3.8474

> <Gold.Goldscore.Internal.Correction>
-0.7686

> <Gold.Goldscore.Hbonds>
donor molecule, donor type, donor heavy atom, donor atom, acceptor molecule, acceptor atom, score
      P1  H   591   598       L1    17  0.02
      P1  H  5203  5212       L1    17  0.93
      L1  H     8    22       P1   594  0.05
      L1  H    10    23       P1  1890  0.31

> <Gold.Goldscore.Internal.Vdw.Weighted>
-1.0615

> <Gold.Goldscore.Internal.Torsion.Weighted>
-0.7132

> <Gold.Goldscore.External.Vdw.Weighted>
40.6982

> <Gold.Goldscore.Internal.HBond.Weighted>
0.0000

> <Gold.Goldscore.External.HBond.Weighted>
3.8474

> <Gold.Goldscore.Internal.Correction.Weighted>
-0.7686

> <Gold.Rescore>
     Score     S(PLP)   S(hbond)     S(cho)   S(metal)  DE(clash)   DE(tors)     intcor
     36.50     -34.22       1.56       0.00       0.00       0.00       1.20       ----

> <Gold.PLP.Fitness>
36.5040

> <Gold.PLP.PLP>
-34.2179

> <Gold.PLP.part.hbond>
-2.9480

> <Gold.PLP.part.metal>
0.0000

> <Gold.PLP.part.buried>
5.0819

> <Gold.PLP.part.nonpolar>
-39.0795

> <Gold.PLP.part.repulsive>
2.6602

> <Gold.PLP.ligand.clash>
0.0000

> <Gold.PLP.ligand.torsion>
1.2027

> <Gold.PLP.Chemscore.Hbond>
1.5639

> <Gold.PLP.Chemscore.CHOScore>
0.0000

> <Gold.PLP.Chemscore.Metal>
0.0000

> <Gold.Chemscore.Hbonds>
donor molecule, donor type, donor heavy atom, donor atom, acceptor molecule, acceptor atom, score
      L1  H     8    22       P1   594  0.53
      L1  H    10    23       P1  1890  1.00
      P1  H   591   598       L1    17  0.44
      P1  H  5203  5212       L1    17  0.13

> <Gold.PLP.Chemscore.Internal.Correction>
   9.000000E+99

