@<TRIPOS>MOLECULE
A:TLA300
    16    15     1     0     1
SMALL
NO_CHARGES
****
Generated from the CSD

@<TRIPOS>ATOM
     1 C1      -5.7300 -13.4320  -0.2880   C.2       1 TLA300   0.0000
     2 O1      -5.1400 -12.6400  -0.9790   O.2       1 TLA300   0.0000
     3 C2      -6.9460 -13.0530   0.5240   C.3       1 TLA300   0.0000
     4 O2      -7.5320 -14.0990   1.2330   O.3       1 TLA300   0.0000
     5 C3      -8.0080 -12.4660  -0.4480   C.3       1 TLA300   0.0000
     6 O3      -8.6340 -13.5050  -1.1360   O.3       1 TLA300   0.0000
     7 C4      -8.9330 -11.6390   0.4170   C.2       1 TLA300   0.0000
     8 O4      -8.5340 -10.7690   1.1540   O.2       1 TLA300   0.0000
     9 O11     -5.4160 -14.7170  -0.2840   O.3       1 TLA300   0.0000
    10 O41    -10.2140 -11.9570   0.3720   O.3       1 TLA300   0.0000
    11 H1      -6.6594 -12.2758   1.2310   H         1 TLA300   0.0000
    12 H2      -6.8717 -14.4774   1.8708   H         1 TLA300   0.0000
    13 H3      -7.5121 -11.8128  -1.1645   H         1 TLA300   0.0000
    14 H4      -9.0786 -14.1111  -0.4871   H         1 TLA300   0.0000
    15 H5      -4.4719 -14.8262   0.0039   H         1 TLA300   0.0000
    16 H6     -10.3321 -12.8978   0.6669   H         1 TLA300   0.0000
@<TRIPOS>BOND
     1     1     2    2
     2     1     3    1
     3     3     4    1
     4     3     5    1
     5     5     6    1
     6     5     7    1
     7     7     8    2
     8     1     9    1
     9     7    10    1
    10     3    11    1
    11     4    12    1
    12     5    13    1
    13     6    14    1
    14     9    15    1
    15    10    16    1
@<TRIPOS>SUBSTRUCTURE
     1 TLA300      1 GROUP             0 A     TLA     0  
@<TRIPOS>SET
CCDC_LIGAND STATIC ATOMS
16 1 2 3 4 5 6 7 8 9 \
10 11 12 13 14 15 16 
