#       Name:                CT1002167954
#       Creating user name   hitesit
#       Creation time:       Sun Apr 16 02:23:49 2023


#       File generated by GOLD software.
#

@<TRIPOS>MOLECULE
CT1002167954|ligand_prepared|mol2|1|dock4
    29    30     1
SMALL
NO_CHARGES


@<TRIPOS>ATOM
      1 C1          -0.9746 -12.2216 -27.9310 C.3            1 RES1               0.0000
      2 C2          -1.4021 -10.8568 -28.5084 C.ar           1 RES1               0.0000
      3 C3          -1.7133 -13.2810 -28.7435 C.2            1 RES1               0.0000
      4 C4           0.5432 -12.2836 -28.0618 C.2            1 RES1               0.0000
      5 C5          -1.3335 -12.4086 -26.4384 C.3            1 RES1               0.0000
      6 C6          -0.7593 -10.3262 -29.6228 C.ar           1 RES1               0.0000
      7 C7          -2.4375 -10.1195 -27.9402 C.ar           1 RES1               0.0000
      8 N8          -0.9898 -14.0032 -29.6462 N.am           1 RES1               0.0000
      9 O9          -2.9200 -13.4529 -28.6223 O.2            1 RES1               0.0000
     10 N10          1.0770 -13.2186 -28.9095 N.am           1 RES1               0.0000
     11 O11          1.2811 -11.5201 -27.4512 O.2            1 RES1               0.0000
     12 C12         -0.6659 -13.6131 -25.7936 C.3            1 RES1               0.0000
     13 C13         -1.1397  -9.1040 -30.1519 C.ar           1 RES1               0.0000
     14 C14         -2.8162  -8.8973 -28.4708 C.ar           1 RES1               0.0000
     15 C15          0.3781 -14.0607 -29.7309 C.2            1 RES1               0.0000
     16 C16         -2.1685  -8.3890 -29.5766 C.ar           1 RES1               0.0000
     17 O17          0.9299 -14.8366 -30.5060 O.2            1 RES1               0.0000
     18 H18         -1.0398 -11.5058 -25.8888 H              1 RES1               0.0000
     19 H19         -2.4213 -12.5173 -26.3477 H              1 RES1               0.0000
     20 H20          0.0541 -10.8733 -30.0876 H              1 RES1               0.0000
     21 H21         -2.9605 -10.4992 -27.0691 H              1 RES1               0.0000
     22 H22         -1.5144 -14.5511 -30.3207 H              1 RES1               0.0000
     23 H23          2.0890 -13.2939 -28.9301 H              1 RES1               0.0000
     24 H24         -0.9514 -13.6980 -24.7471 H              1 RES1               0.0000
     25 H25         -0.9558 -14.5316 -26.2995 H              1 RES1               0.0000
     26 H26          0.4175 -13.5261 -25.8433 H              1 RES1               0.0000
     27 H27         -0.6259  -8.7077 -31.0215 H              1 RES1               0.0000
     28 H28         -3.6260  -8.3377 -28.0144 H              1 RES1               0.0000
     29 H29         -2.4666  -7.4318 -29.9915 H              1 RES1               0.0000
@<TRIPOS>BOND
    1    1    2 1     
    2    1    3 1     
    3    1    4 1     
    4    1    5 1     
    5    2    6 ar    
    6    2    7 ar    
    7    3    8 1     
    8    3    9 2     
    9    4   10 1     
   10    4   11 2     
   11    5   12 1     
   12    5   18 1     
   13    5   19 1     
   14    6   13 ar    
   15    6   20 1     
   16    7   14 ar    
   17    7   21 1     
   18    8   15 1     
   19    8   22 1     
   20   10   15 1     
   21   10   23 1     
   22   12   24 1     
   23   12   25 1     
   24   12   26 1     
   25   13   16 ar    
   26   13   27 1     
   27   14   16 ar    
   28   14   28 1     
   29   15   17 2     
   30   16   29 1     
@<TRIPOS>SUBSTRUCTURE
      1 RES1           1
@<TRIPOS>SET
DONOR_HYDROGENS      STATIC     ATOMS    <user>   **** ""
2 22 23
ATOM$RED        STATIC     ATOMS    COLORGROUP SYSTEM
2 22 23
@<TRIPOS>COMMENT
> <Gold.Version>
2022.3.0

> <Gold.Id.Protein>
unknown|7kl0_clean|pdb

> <Gold.Protein.RotatedTorsions>
[ 6442 6424 6423 6421 ] final  -24.61 input   59.99 | X-H torsion
[ 6434 6413 6414 6415 ] final  -23.23 input   40.09 | X-H torsion
[ 6240 6222 6221 6219 ] final   84.84 input   60.01 | X-H torsion
[ 7213 7207 7208 7209 ] final  -17.86 input  101.61 | X-H torsion
[ 7269 7260 7261 7262 ] final -173.61 input  118.90 | X-H torsion
[ 7309 7295 7296 7297 ] final  -79.25 input   89.68 | X-H torsion
[ 7217 7212 7211 7208 ] final  166.90 input   60.02 | X-H torsion
[ 6577 6553 6554 6555 ] final  146.05 input   19.71 | X-H torsion
[ 6607 6595 6596 6597 ] final  -73.93 input   28.67 | X-H torsion
[ 6530 6510 6511 6512 ] final    4.17 input   51.84 | X-H torsion
[ 6635 6620 6621 6622 ] final  113.11 input  122.94 | X-H torsion
[ 1420 1410 1409 1406 ] final  -80.53 input   60.02 | X-H torsion
[ 1287 1275 1273 1270 ] final   88.40 input   60.01 | X-H torsion
[ 6398 6391 6392 6393 ] final -152.40 input  -98.70 | X-H torsion
[ 5429 5420 5419 5417 ] final  129.77 input   59.99 | X-H torsion
[ 3115 3099 3100 3101 ] final   76.64 input  111.82 | X-H torsion
[ 2982 2971 2972 2973 ] final  113.53 input  134.80 | X-H torsion
[ 3018 3009 3010 3011 ] final  -79.93 input  114.19 | X-H torsion
[ 6268 6249 6250 6251 ] final   98.78 input  122.80 | X-H torsion
[ 6306 6287 6288 6289 ] final  151.78 input  127.97 | X-H torsion
[ 3081 3062 3063 3064 ] final  -59.88 input  114.53 | X-H torsion
[ 3139 3129 3130 3131 ] final   59.13 input  112.52 | X-H torsion
[ 4214 4203 4202 4201 ] final  -65.69 input   60.00 | X-H torsion
[ 4281 4267 4268 4269 ] final   22.65 input  109.79 | X-H torsion
[ 5391 5387 5388 5389 ] final   51.15 input  115.86 | X-H torsion
[ 1596 1580 1579 1578 ] final -142.45 input   59.99 | X-H torsion
[ 5347 5340 5338 5335 ] final  101.10 input   60.02 | X-H torsion
[  607  596  595  592 ] final   15.49 input   60.02 | X-H torsion
[ 2916 2901 2902 2903 ] final -128.66 input  112.69 | X-H torsion
[ 4310 4296 4297 4298 ] final   51.26 input   86.41 | X-H torsion
[ 2946 2930 2931 2932 ] final  176.95 input  126.41 | X-H torsion
[ 3050 3038 3039 3040 ] final   -4.92 input  116.07 | X-H torsion
[ 5341 5334 5335 5336 ] final   98.68 input   67.75 | X-H torsion
[ 5421 5409 5410 5411 ] final   18.41 input   64.82 | X-H torsion
[ 5455 5447 5448 5449 ] final  -72.65 input  110.01 | X-H torsion
[ 6852 6834 6833 6831 ] final   34.79 input   59.99 | X-H torsion
[ 5322 5317 5318 5319 ] final  -23.46 input  -36.16 | X-H torsion
[ 4142 4128 4129 4130 ] final   48.64 input   37.30 | X-H torsion
[ 4847 4839 4840 4841 ] final  -75.58 input   74.58 | X-H torsion
[ 4166 4156 4157 4158 ] final   82.67 input  113.65 | X-H torsion
[ 4204 4195 4196 4197 ] final -160.01 input    7.17 | X-H torsion
[ 4825 4821 4822 4823 ] final  111.22 input  114.67 | X-H torsion
[ 5308 5298 5299 5300 ] final  -51.29 input   26.27 | X-H torsion
[ 1613 1589 1588 1587 ] final  153.60 input   59.99 | X-H torsion
[ 5284 5264 5265 5266 ] final  145.49 input   91.93 | X-H torsion
[ 4879 4874 4875 4876 ] final  107.75 input  114.78 | X-H torsion
[ 5250 5243 5244 5245 ] final   89.07 input  -68.46 | X-H torsion
[ 5710 5690 5689 5688 ] final   64.13 input   60.02 | X-H torsion
[ 7345 7337 7338 7339 ] final  -62.14 input  116.36 | X-H torsion
[ 3215 3201 3202 3203 ] final -162.64 input -100.55 | X-H torsion
[ 4227 4194 4193 4192 ] final  124.55 input   60.00 | X-H torsion
[  546  536  537  538 ] final   91.82 input  119.99 | X-H torsion
[ 6843 6822 6821 6819 ] final   99.55 input   59.97 | X-H torsion
[ 5806 5788 5787 5785 ] final   69.78 input   59.97 | X-H torsion
[ 8545 6453 6452 6451 ] final  128.33 input   -0.00 | X-H torsion
[ 8553 6365 6364 6363 ] final  -95.88 input    0.00 | X-H torsion
[ 8555 6394 6393 6392 ] final  143.53 input    0.00 | X-H torsion
[ 8557 6416 6415 6414 ] final -105.53 input    0.00 | X-H torsion
[ 8560 7183 7182 7181 ] final  123.80 input   -0.00 | X-H torsion
[ 8562 7210 7209 7208 ] final   29.60 input    0.00 | X-H torsion
[ 8569 7147 7146 7145 ] final   21.14 input    0.00 | X-H torsion
[ 8574 7233 7232 7231 ] final -115.17 input   -0.00 | X-H torsion
[ 8577 6556 6555 6554 ] final   74.54 input    0.00 | X-H torsion
[ 8581 6513 6512 6511 ] final   38.06 input    0.00 | X-H torsion
[ 8586 6481 6480 6479 ] final  -67.64 input    0.00 | X-H torsion
[ 8588 6598 6597 6596 ] final  -54.88 input   -0.00 | X-H torsion
[ 8621 3102 3101 3100 ] final   -5.06 input    0.00 | X-H torsion
[ 8626 2974 2973 2972 ] final -102.54 input   -0.00 | X-H torsion
[ 8633 3065 3064 3063 ] final   71.83 input    0.00 | X-H torsion
[ 8635 3204 3203 3202 ] final  143.45 input   -0.00 | X-H torsion
[ 8637 6252 6251 6250 ] final  171.87 input    0.00 | X-H torsion
[ 8646 6101 6100 6099 ] final -124.93 input    0.00 | X-H torsion
[ 8648 6134 6133 6132 ] final -153.51 input    0.00 | X-H torsion
[ 8650 2933 2932 2931 ] final   -5.01 input    0.00 | X-H torsion
[ 8652 3012 3011 3010 ] final   13.67 input    0.00 | X-H torsion
[ 8658 6623 6622 6621 ] final   76.95 input    0.00 | X-H torsion
[ 8674 4240 4239 4238 ] final    6.52 input    0.00 | X-H torsion
[ 8676 4270 4269 4268 ] final -152.03 input    0.00 | X-H torsion
[ 8687 2904 2903 2902 ] final   60.32 input    0.00 | X-H torsion
[ 8698 5337 5336 5335 ] final  -16.26 input    0.00 | X-H torsion
[ 8700 5320 5319 5318 ] final  -35.27 input    0.00 | X-H torsion
[ 8702 5365 5364 5363 ] final -115.28 input   -0.00 | X-H torsion
[ 8705 5390 5389 5388 ] final  -39.64 input   -0.00 | X-H torsion
[ 8711 4131 4130 4129 ] final -167.26 input    0.00 | X-H torsion
[ 8713 5301 5300 5299 ] final  172.54 input    0.00 | X-H torsion
[ 8715 4086 4085 4084 ] final  -81.64 input    0.00 | X-H torsion
[ 8723 4764 4763 4762 ] final -143.74 input    0.00 | X-H torsion
[ 8726 4159 4158 4157 ] final  -22.22 input    0.00 | X-H torsion
[ 8729  485  484  483 ] final  -75.87 input    0.00 | X-H torsion
[ 8732 5267 5266 5265 ] final -164.49 input    0.00 | X-H torsion
[ 8736 4824 4823 4822 ] final   96.99 input   -0.00 | X-H torsion
[ 8738 4842 4841 4840 ] final  174.38 input    0.00 | X-H torsion
[ 8742 5246 5245 5244 ] final  -46.64 input    0.00 | X-H torsion
[ 8753 5213 5212 5211 ] final  171.22 input   -0.00 | X-H torsion
[ 8756 4877 4876 4875 ] final -177.32 input    0.00 | X-H torsion

> <Gold.Protein.ActiveResidues>
 GLU18   GLY20   LYS21   GLY22   ALA23   PHE24   SER25   VAL26   VAL27   ARG28  
 ILE43   ILE44   ASN45   THR46   LYS47   LYS48   LEU49   SER50   ARG52   ASP53  
 LYS56   ARG59   GLY83   HIS84   GLY95   GLU96   LEU97   PHE98   GLU99   ASP100 
 ILE101  VAL102  ALA103  GLU105  TYR106  HIS133  ARG134  ASN135  LEU136  LYS137 
 PRO138  GLU139  ASN140  ASP156  GLY158  LEU159  ALA160  ILE161  TRP170  PHE171 
 GLY172  PHE173  ALA174  GLY175  THR176  PRO177  GLY178  TYR179  LEU180  VAL184 
 LYS187  TYR190  VAL201  ILE202  TYR204  ILE205  LEU206  VAL208  GLY209  TYR210 
 PRO211  PRO212  PHE213  TRP214  ASP215  GLU216  ASP217  GLN218  HIS219  LEU221 
 TYR222  GLN224  ILE225  ASP231  PHE232  PRO233  SER234  PRO235  GLU236  TRP237 
 ASP238 

> <Gold.Protein.RotatedAtoms>
  -12.3815  -16.6854  -20.6833 H   0  0  0  0  0  0  0  0  0  0  0  0  # atno 546  bound_to 536 
    5.3108  -17.1298  -24.0308 H   0  0  0  0  0  0  0  0  0  0  0  0  # atno 607  bound_to 596 
   17.1704  -16.6105  -30.1397 H   0  0  0  0  0  0  0  0  0  0  0  0  # atno 1287 bound_to 1275
   12.3987   -6.4926  -28.2038 H   0  0  0  0  0  0  0  0  0  0  0  0  # atno 1420 bound_to 1410
    7.6945   -5.6229  -21.5570 H   0  0  0  0  0  0  0  0  0  0  0  0  # atno 1596 bound_to 1580
    8.8514   -4.7871  -22.3998 H   0  0  0  0  0  0  0  0  0  0  0  0  # atno 1597 bound_to 1580
    8.1934   -6.1670  -23.0409 H   0  0  0  0  0  0  0  0  0  0  0  0  # atno 1598 bound_to 1580
  -18.0116  -12.2267  -25.5880 H   0  0  0  0  0  0  0  0  0  0  0  0  # atno 1613 bound_to 1589
  -18.8851  -10.8208  -25.6833 H   0  0  0  0  0  0  0  0  0  0  0  0  # atno 1614 bound_to 1589
  -18.9783  -11.7646  -24.3235 H   0  0  0  0  0  0  0  0  0  0  0  0  # atno 1615 bound_to 1589
   -2.1396  -25.4234  -32.7536 H   0  0  0  0  0  0  0  0  0  0  0  0  # atno 2916 bound_to 2901
   -2.3001  -23.3454  -36.0992 H   0  0  0  0  0  0  0  0  0  0  0  0  # atno 2946 bound_to 2930
   -0.7006  -20.8194  -35.1485 H   0  0  0  0  0  0  0  0  0  0  0  0  # atno 2982 bound_to 2971
    2.5268  -20.3791  -34.5794 H   0  0  0  0  0  0  0  0  0  0  0  0  # atno 3018 bound_to 3009
    3.8387  -22.1227  -35.7810 H   0  0  0  0  0  0  0  0  0  0  0  0  # atno 3050 bound_to 3038
    4.8738  -22.1308  -38.0432 H   0  0  0  0  0  0  0  0  0  0  0  0  # atno 3081 bound_to 3062
    5.6232  -20.4174  -36.3896 H   0  0  0  0  0  0  0  0  0  0  0  0  # atno 3115 bound_to 3099
    7.4459  -21.4417  -36.7545 H   0  0  0  0  0  0  0  0  0  0  0  0  # atno 3139 bound_to 3129
    9.8526  -20.3480  -38.8865 H   0  0  0  0  0  0  0  0  0  0  0  0  # atno 3215 bound_to 3201
  -12.9606  -13.4714  -35.8171 H   0  0  0  0  0  0  0  0  0  0  0  0  # atno 4142 bound_to 4128
  -10.4795  -12.9371  -36.9820 H   0  0  0  0  0  0  0  0  0  0  0  0  # atno 4166 bound_to 4156
   -7.4005  -14.2786  -37.1127 H   0  0  0  0  0  0  0  0  0  0  0  0  # atno 4204 bound_to 4195
   -5.2863  -13.6236  -30.0634 H   0  0  0  0  0  0  0  0  0  0  0  0  # atno 4214 bound_to 4203
   -6.5709  -12.6796  -30.5183 H   0  0  0  0  0  0  0  0  0  0  0  0  # atno 4215 bound_to 4203
   -6.8177  -14.0125  -29.5637 H   0  0  0  0  0  0  0  0  0  0  0  0  # atno 4216 bound_to 4203
   -2.4516  -11.6025  -15.7758 H   0  0  0  0  0  0  0  0  0  0  0  0  # atno 4227 bound_to 4194
   -3.5448  -12.8465  -15.8464 H   0  0  0  0  0  0  0  0  0  0  0  0  # atno 4228 bound_to 4194
   -3.9531  -11.4257  -15.0969 H   0  0  0  0  0  0  0  0  0  0  0  0  # atno 4229 bound_to 4194
   -4.1730  -17.7583  -34.6911 H   0  0  0  0  0  0  0  0  0  0  0  0  # atno 4281 bound_to 4267
   -5.4658  -18.6159  -34.6025 H   0  0  0  0  0  0  0  0  0  0  0  0  # atno 4310 bound_to 4296
  -15.1213  -18.2787  -30.3496 H   0  0  0  0  0  0  0  0  0  0  0  0  # atno 4825 bound_to 4821
  -17.0179  -15.7030  -29.9466 H   0  0  0  0  0  0  0  0  0  0  0  0  # atno 4847 bound_to 4839
  -17.6154  -15.7105  -32.1194 H   0  0  0  0  0  0  0  0  0  0  0  0  # atno 4879 bound_to 4874
  -20.8649   -5.3050  -32.6836 H   0  0  0  0  0  0  0  0  0  0  0  0  # atno 5250 bound_to 5243
  -18.0865   -2.7598  -30.2788 H   0  0  0  0  0  0  0  0  0  0  0  0  # atno 5284 bound_to 5264
  -14.4611   -5.0369  -31.0531 H   0  0  0  0  0  0  0  0  0  0  0  0  # atno 5308 bound_to 5298
  -12.1965   -8.1430  -30.1353 H   0  0  0  0  0  0  0  0  0  0  0  0  # atno 5322 bound_to 5317
   -9.1542   -9.5710  -32.8261 H   0  0  0  0  0  0  0  0  0  0  0  0  # atno 5341 bound_to 5334
   -8.2339  -11.6724  -31.7783 H   0  0  0  0  0  0  0  0  0  0  0  0  # atno 5347 bound_to 5340
   -4.5106   -7.3604  -33.4136 H   0  0  0  0  0  0  0  0  0  0  0  0  # atno 5391 bound_to 5387
   -5.6174   -6.9373  -35.2580 H   0  0  0  0  0  0  0  0  0  0  0  0  # atno 5421 bound_to 5409
   -0.6974  -11.7983  -35.3218 H   0  0  0  0  0  0  0  0  0  0  0  0  # atno 5429 bound_to 5420
   -7.4555   -7.1749  -36.8664 H   0  0  0  0  0  0  0  0  0  0  0  0  # atno 5455 bound_to 5447
  -14.4011    3.5313  -29.5336 H   0  0  0  0  0  0  0  0  0  0  0  0  # atno 5710 bound_to 5690
  -14.2202    1.9036  -29.2827 H   0  0  0  0  0  0  0  0  0  0  0  0  # atno 5711 bound_to 5690
  -13.8937    2.5530  -30.7717 H   0  0  0  0  0  0  0  0  0  0  0  0  # atno 5712 bound_to 5690
  -17.6119   -6.3905  -34.3536 H   0  0  0  0  0  0  0  0  0  0  0  0  # atno 5806 bound_to 5788
    5.9829   -6.3009  -45.0525 H   0  0  0  0  0  0  0  0  0  0  0  0  # atno 6240 bound_to 6222
    0.7639  -12.3269  -42.8912 H   0  0  0  0  0  0  0  0  0  0  0  0  # atno 6268 bound_to 6249
    1.2299  -14.8648  -43.0764 H   0  0  0  0  0  0  0  0  0  0  0  0  # atno 6306 bound_to 6287
    6.3072  -14.3730  -42.9624 H   0  0  0  0  0  0  0  0  0  0  0  0  # atno 6398 bound_to 6391
    5.7003  -12.2669  -40.8280 H   0  0  0  0  0  0  0  0  0  0  0  0  # atno 6434 bound_to 6413
    7.8036   -6.5503  -44.1944 H   0  0  0  0  0  0  0  0  0  0  0  0  # atno 6442 bound_to 6424
    1.6348   -5.5063  -39.1500 H   0  0  0  0  0  0  0  0  0  0  0  0  # atno 6530 bound_to 6510
    2.1920   -3.9973  -37.1899 H   0  0  0  0  0  0  0  0  0  0  0  0  # atno 6577 bound_to 6553
    3.1632   -2.5725  -33.4915 H   0  0  0  0  0  0  0  0  0  0  0  0  # atno 6607 bound_to 6595
    5.0005   -0.1156  -30.7480 H   0  0  0  0  0  0  0  0  0  0  0  0  # atno 6635 bound_to 6620
   -7.3496   -1.8543  -17.9914 H   0  0  0  0  0  0  0  0  0  0  0  0  # atno 6843 bound_to 6822
   -6.5495   -3.0062  -30.0702 H   0  0  0  0  0  0  0  0  0  0  0  0  # atno 6852 bound_to 6834
   12.0226   -4.1466  -47.6542 H   0  0  0  0  0  0  0  0  0  0  0  0  # atno 7213 bound_to 7207
   15.2780   -4.0002  -51.7631 H   0  0  0  0  0  0  0  0  0  0  0  0  # atno 7217 bound_to 7212
   14.2923   -8.4463  -47.8029 H   0  0  0  0  0  0  0  0  0  0  0  0  # atno 7269 bound_to 7260
   11.3989   -9.5191  -49.5134 H   0  0  0  0  0  0  0  0  0  0  0  0  # atno 7309 bound_to 7295
   10.4396   -8.3264  -52.0490 H   0  0  0  0  0  0  0  0  0  0  0  0  # atno 7345 bound_to 7337
    8.8642   -7.6984  -44.6484 LP  0  0  0  0  0  0  0  0  0  0  0  0  # atno 8537 bound_to 6424
    9.3670   -6.4236  -43.7603 LP  0  0  0  0  0  0  0  0  0  0  0  0  # atno 8538 bound_to 6424
    7.3790  -12.3026  -40.3249 LP  0  0  0  0  0  0  0  0  0  0  0  0  # atno 8543 bound_to 6413
    4.5962   -6.3129  -40.6454 LP  0  0  0  0  0  0  0  0  0  0  0  0  # atno 8545 bound_to 6453
    4.3941   -6.4619  -38.9317 LP  0  0  0  0  0  0  0  0  0  0  0  0  # atno 8546 bound_to 6453
    5.5171   -5.7890  -43.5795 LP  0  0  0  0  0  0  0  0  0  0  0  0  # atno 8551 bound_to 6222
    4.9182   -5.0770  -44.9216 LP  0  0  0  0  0  0  0  0  0  0  0  0  # atno 8552 bound_to 6222
    9.5375  -13.7500  -42.3513 LP  0  0  0  0  0  0  0  0  0  0  0  0  # atno 8553 bound_to 6365
    9.0607  -12.0947  -42.1706 LP  0  0  0  0  0  0  0  0  0  0  0  0  # atno 8554 bound_to 6365
    7.6762  -12.7563  -38.1293 LP  0  0  0  0  0  0  0  0  0  0  0  0  # atno 8555 bound_to 6394
    6.8708  -14.2812  -38.2912 LP  0  0  0  0  0  0  0  0  0  0  0  0  # atno 8556 bound_to 6394
    4.8164   -9.3143  -41.6143 LP  0  0  0  0  0  0  0  0  0  0  0  0  # atno 8557 bound_to 6416
    4.2574  -10.9411  -41.4115 LP  0  0  0  0  0  0  0  0  0  0  0  0  # atno 8558 bound_to 6416
   10.8601   -6.2735  -48.9360 LP  0  0  0  0  0  0  0  0  0  0  0  0  # atno 8560 bound_to 7183
   10.7357   -6.2426  -47.2087 LP  0  0  0  0  0  0  0  0  0  0  0  0  # atno 8561 bound_to 7183
   13.4380   -3.9878  -46.7185 LP  0  0  0  0  0  0  0  0  0  0  0  0  # atno 8562 bound_to 7210
   15.0811   -4.4469  -46.4196 LP  0  0  0  0  0  0  0  0  0  0  0  0  # atno 8563 bound_to 7210
   11.6442   -3.4087  -49.2056 LP  0  0  0  0  0  0  0  0  0  0  0  0  # atno 8566 bound_to 7207
   13.0987   -7.7854  -48.8946 LP  0  0  0  0  0  0  0  0  0  0  0  0  # atno 8568 bound_to 7260
    8.0780   -3.5951  -50.4703 LP  0  0  0  0  0  0  0  0  0  0  0  0  # atno 8569 bound_to 7147
    9.6180   -3.9657  -49.7695 LP  0  0  0  0  0  0  0  0  0  0  0  0  # atno 8570 bound_to 7147
   11.1945   -7.8465  -49.0335 LP  0  0  0  0  0  0  0  0  0  0  0  0  # atno 8571 bound_to 7295
   14.5107   -5.3734  -51.3466 LP  0  0  0  0  0  0  0  0  0  0  0  0  # atno 8572 bound_to 7212
   15.7802   -4.8447  -50.4660 LP  0  0  0  0  0  0  0  0  0  0  0  0  # atno 8573 bound_to 7212
   12.8450   -8.4745  -50.9662 LP  0  0  0  0  0  0  0  0  0  0  0  0  # atno 8574 bound_to 7233
   14.4471   -9.1191  -51.0996 LP  0  0  0  0  0  0  0  0  0  0  0  0  # atno 8575 bound_to 7233
    1.6797   -2.3477  -36.8969 LP  0  0  0  0  0  0  0  0  0  0  0  0  # atno 8576 bound_to 6553
    3.3547   -0.8349  -36.1626 LP  0  0  0  0  0  0  0  0  0  0  0  0  # atno 8577 bound_to 6556
    4.7394   -1.2858  -35.2248 LP  0  0  0  0  0  0  0  0  0  0  0  0  # atno 8578 bound_to 6556
    0.7301   -5.9403  -37.2916 LP  0  0  0  0  0  0  0  0  0  0  0  0  # atno 8581 bound_to 6513
    0.6048   -5.2146  -35.7239 LP  0  0  0  0  0  0  0  0  0  0  0  0  # atno 8582 bound_to 6513
    1.7970   -1.5274  -33.8418 LP  0  0  0  0  0  0  0  0  0  0  0  0  # atno 8583 bound_to 6595
    1.0318   -4.5672  -40.5050 LP  0  0  0  0  0  0  0  0  0  0  0  0  # atno 8585 bound_to 6510
    3.2218   -3.1501  -41.0397 LP  0  0  0  0  0  0  0  0  0  0  0  0  # atno 8586 bound_to 6481
    1.5767   -2.6410  -41.2251 LP  0  0  0  0  0  0  0  0  0  0  0  0  # atno 8587 bound_to 6481
    1.2773   -1.0951  -30.9152 LP  0  0  0  0  0  0  0  0  0  0  0  0  # atno 8588 bound_to 6598
    2.2006   -2.3945  -30.2376 LP  0  0  0  0  0  0  0  0  0  0  0  0  # atno 8589 bound_to 6598
    3.5125   -1.0396  -30.8753 LP  0  0  0  0  0  0  0  0  0  0  0  0  # atno 8590 bound_to 6620
   12.5809   -4.8896  -27.9935 LP  0  0  0  0  0  0  0  0  0  0  0  0  # atno 8605 bound_to 1410
   13.8098   -5.9068  -27.6447 LP  0  0  0  0  0  0  0  0  0  0  0  0  # atno 8606 bound_to 1410
   15.8472  -17.5361  -29.9375 LP  0  0  0  0  0  0  0  0  0  0  0  0  # atno 8617 bound_to 1275
   17.0102  -17.5079  -28.7915 LP  0  0  0  0  0  0  0  0  0  0  0  0  # atno 8618 bound_to 1275
    9.7523  -18.6402  -36.4557 LP  0  0  0  0  0  0  0  0  0  0  0  0  # atno 8621 bound_to 3102
   10.4353  -20.2309  -36.3989 LP  0  0  0  0  0  0  0  0  0  0  0  0  # atno 8622 bound_to 3102
    7.0462  -12.8460  -42.5305 LP  0  0  0  0  0  0  0  0  0  0  0  0  # atno 8623 bound_to 6391
   -0.9319  -12.6298  -36.7006 LP  0  0  0  0  0  0  0  0  0  0  0  0  # atno 8624 bound_to 5420
   -1.4668  -13.2314  -35.2798 LP  0  0  0  0  0  0  0  0  0  0  0  0  # atno 8625 bound_to 5420
    3.7873  -20.0662  -36.2895 LP  0  0  0  0  0  0  0  0  0  0  0  0  # atno 8626 bound_to 2974
    3.8149  -18.8873  -35.0208 LP  0  0  0  0  0  0  0  0  0  0  0  0  # atno 8627 bound_to 2974
    5.9115  -19.2100  -37.6237 LP  0  0  0  0  0  0  0  0  0  0  0  0  # atno 8632 bound_to 3099
    7.0575  -18.4073  -39.2588 LP  0  0  0  0  0  0  0  0  0  0  0  0  # atno 8633 bound_to 3065
    7.9149  -19.8565  -38.8530 LP  0  0  0  0  0  0  0  0  0  0  0  0  # atno 8634 bound_to 3065
    8.0408  -16.2082  -41.4642 LP  0  0  0  0  0  0  0  0  0  0  0  0  # atno 8635 bound_to 3204
    7.8264  -16.7937  -39.8483 LP  0  0  0  0  0  0  0  0  0  0  0  0  # atno 8636 bound_to 3204
    4.5745  -15.5603  -42.7127 LP  0  0  0  0  0  0  0  0  0  0  0  0  # atno 8637 bound_to 6252
    4.8912  -14.0320  -41.9617 LP  0  0  0  0  0  0  0  0  0  0  0  0  # atno 8638 bound_to 6252
    0.2067  -20.8738  -36.6502 LP  0  0  0  0  0  0  0  0  0  0  0  0  # atno 8639 bound_to 2971
    1.5155  -21.7584  -34.1788 LP  0  0  0  0  0  0  0  0  0  0  0  0  # atno 8640 bound_to 3009
    2.2256  -11.6902  -43.6206 LP  0  0  0  0  0  0  0  0  0  0  0  0  # atno 8644 bound_to 6249
    2.9092  -14.3676  -43.0781 LP  0  0  0  0  0  0  0  0  0  0  0  0  # atno 8645 bound_to 6287
   -0.4633  -11.6294  -42.8126 LP  0  0  0  0  0  0  0  0  0  0  0  0  # atno 8646 bound_to 6101
   -0.4411  -10.5709  -41.4418 LP  0  0  0  0  0  0  0  0  0  0  0  0  # atno 8647 bound_to 6101
    0.2242  -14.4532  -43.7003 LP  0  0  0  0  0  0  0  0  0  0  0  0  # atno 8648 bound_to 6134
   -0.4190  -15.1150  -42.2346 LP  0  0  0  0  0  0  0  0  0  0  0  0  # atno 8649 bound_to 6134
    1.6516  -22.0762  -38.0069 LP  0  0  0  0  0  0  0  0  0  0  0  0  # atno 8650 bound_to 2933
    2.1799  -20.7072  -37.0867 LP  0  0  0  0  0  0  0  0  0  0  0  0  # atno 8651 bound_to 2933
    6.1077  -22.3399  -34.2181 LP  0  0  0  0  0  0  0  0  0  0  0  0  # atno 8652 bound_to 3012
    6.0971  -22.7008  -35.9122 LP  0  0  0  0  0  0  0  0  0  0  0  0  # atno 8653 bound_to 3012
    3.3829  -21.2690  -37.7234 LP  0  0  0  0  0  0  0  0  0  0  0  0  # atno 8654 bound_to 3062
    8.3328  -20.6888  -35.4422 LP  0  0  0  0  0  0  0  0  0  0  0  0  # atno 8655 bound_to 3129
   -2.4530  -17.7274  -34.3545 LP  0  0  0  0  0  0  0  0  0  0  0  0  # atno 8656 bound_to 4267
   -3.8319   -5.7808  -33.0888 LP  0  0  0  0  0  0  0  0  0  0  0  0  # atno 8657 bound_to 5387
    3.0171   -0.2809  -26.3201 LP  0  0  0  0  0  0  0  0  0  0  0  0  # atno 8658 bound_to 6623
    1.6960   -0.9378  -27.2273 LP  0  0  0  0  0  0  0  0  0  0  0  0  # atno 8659 bound_to 6623
   -8.2056  -10.7242  -30.4560 LP  0  0  0  0  0  0  0  0  0  0  0  0  # atno 8668 bound_to 5340
   -7.0358  -11.8394  -30.6896 LP  0  0  0  0  0  0  0  0  0  0  0  0  # atno 8669 bound_to 5340
    6.3231  -15.9094  -23.6659 LP  0  0  0  0  0  0  0  0  0  0  0  0  # atno 8672 bound_to 596 
    6.1975  -17.1960  -22.6682 LP  0  0  0  0  0  0  0  0  0  0  0  0  # atno 8673 bound_to 596 
   -2.6474  -20.1466  -36.3081 LP  0  0  0  0  0  0  0  0  0  0  0  0  # atno 8674 bound_to 4240
   -3.2288  -20.4113  -34.6982 LP  0  0  0  0  0  0  0  0  0  0  0  0  # atno 8675 bound_to 4240
   -5.7324  -21.2910  -32.6911 LP  0  0  0  0  0  0  0  0  0  0  0  0  # atno 8676 bound_to 4270
   -4.6060  -20.7349  -31.4986 LP  0  0  0  0  0  0  0  0  0  0  0  0  # atno 8677 bound_to 4270
   -0.4342  -25.0356  -32.8082 LP  0  0  0  0  0  0  0  0  0  0  0  0  # atno 8686 bound_to 2901
    0.5850  -24.5361  -34.7515 LP  0  0  0  0  0  0  0  0  0  0  0  0  # atno 8687 bound_to 2904
    0.9985  -22.8951  -35.1206 LP  0  0  0  0  0  0  0  0  0  0  0  0  # atno 8688 bound_to 2904
   -5.4410  -19.0227  -32.8928 LP  0  0  0  0  0  0  0  0  0  0  0  0  # atno 8689 bound_to 4296
   -1.2014  -22.4572  -35.0648 LP  0  0  0  0  0  0  0  0  0  0  0  0  # atno 8694 bound_to 2930
    3.0855  -23.6717  -35.4506 LP  0  0  0  0  0  0  0  0  0  0  0  0  # atno 8695 bound_to 3038
   -9.6188   -8.3152  -31.6901 LP  0  0  0  0  0  0  0  0  0  0  0  0  # atno 8697 bound_to 5334
   -7.1950   -8.3116  -34.1183 LP  0  0  0  0  0  0  0  0  0  0  0  0  # atno 8698 bound_to 5337
   -6.6598   -6.6716  -33.9636 LP  0  0  0  0  0  0  0  0  0  0  0  0  # atno 8699 bound_to 5337
  -10.6022   -7.7353  -29.7115 LP  0  0  0  0  0  0  0  0  0  0  0  0  # atno 8700 bound_to 5320
   -9.2412   -8.7883  -29.5145 LP  0  0  0  0  0  0  0  0  0  0  0  0  # atno 8701 bound_to 5320
   -5.6525   -5.2418  -35.1826 LP  0  0  0  0  0  0  0  0  0  0  0  0  # atno 8702 bound_to 5365
   -5.0551   -3.9188  -34.2377 LP  0  0  0  0  0  0  0  0  0  0  0  0  # atno 8703 bound_to 5365
   -4.2065   -7.8034  -35.8485 LP  0  0  0  0  0  0  0  0  0  0  0  0  # atno 8704 bound_to 5409
   -2.9934   -6.0085  -37.4372 LP  0  0  0  0  0  0  0  0  0  0  0  0  # atno 8705 bound_to 5390
   -3.6674   -7.5045  -37.9921 LP  0  0  0  0  0  0  0  0  0  0  0  0  # atno 8706 bound_to 5390
   -6.7431   -6.0708  -35.7124 LP  0  0  0  0  0  0  0  0  0  0  0  0  # atno 8707 bound_to 5447
   -8.1366   -2.7098  -30.2745 LP  0  0  0  0  0  0  0  0  0  0  0  0  # atno 8708 bound_to 6834
   -7.3210   -1.9981  -29.0519 LP  0  0  0  0  0  0  0  0  0  0  0  0  # atno 8709 bound_to 6834
  -13.2309   -7.8286  -31.5165 LP  0  0  0  0  0  0  0  0  0  0  0  0  # atno 8710 bound_to 5317
   -8.8694  -15.0865  -34.9315 LP  0  0  0  0  0  0  0  0  0  0  0  0  # atno 8711 bound_to 4131
   -9.8704  -14.6700  -33.5807 LP  0  0  0  0  0  0  0  0  0  0  0  0  # atno 8712 bound_to 4131
  -12.8308   -7.2730  -33.4102 LP  0  0  0  0  0  0  0  0  0  0  0  0  # atno 8713 bound_to 5301
  -14.4347   -6.7312  -33.0444 LP  0  0  0  0  0  0  0  0  0  0  0  0  # atno 8714 bound_to 5301
  -12.0757   -9.7804  -35.6805 LP  0  0  0  0  0  0  0  0  0  0  0  0  # atno 8715 bound_to 4086
  -12.6651  -10.1828  -34.1023 LP  0  0  0  0  0  0  0  0  0  0  0  0  # atno 8716 bound_to 4086
  -12.8050  -11.7402  -35.6297 LP  0  0  0  0  0  0  0  0  0  0  0  0  # atno 8717 bound_to 4128
  -15.3738  -15.6134  -30.5537 LP  0  0  0  0  0  0  0  0  0  0  0  0  # atno 8722 bound_to 4839
  -13.8397  -17.4047  -32.3282 LP  0  0  0  0  0  0  0  0  0  0  0  0  # atno 8723 bound_to 4764
  -12.3879  -18.1921  -32.8500 LP  0  0  0  0  0  0  0  0  0  0  0  0  # atno 8724 bound_to 4764
  -10.5813  -14.1587  -35.7311 LP  0  0  0  0  0  0  0  0  0  0  0  0  # atno 8725 bound_to 4156
   -8.1968  -12.3040  -37.5330 LP  0  0  0  0  0  0  0  0  0  0  0  0  # atno 8726 bound_to 4159
   -6.8342  -12.5280  -36.4875 LP  0  0  0  0  0  0  0  0  0  0  0  0  # atno 8727 bound_to 4159
   -7.3815  -15.9426  -36.5350 LP  0  0  0  0  0  0  0  0  0  0  0  0  # atno 8728 bound_to 4195
   -7.5467  -18.8518  -22.6769 LP  0  0  0  0  0  0  0  0  0  0  0  0  # atno 8729 bound_to 485 
   -8.7904  -19.7238  -23.5093 LP  0  0  0  0  0  0  0  0  0  0  0  0  # atno 8730 bound_to 485 
  -16.6879  -18.1064  -31.1186 LP  0  0  0  0  0  0  0  0  0  0  0  0  # atno 8731 bound_to 4821
  -15.2425   -5.9820  -28.3902 LP  0  0  0  0  0  0  0  0  0  0  0  0  # atno 8732 bound_to 5267
  -16.3648   -4.6719  -28.2350 LP  0  0  0  0  0  0  0  0  0  0  0  0  # atno 8733 bound_to 5267
  -16.0807   -5.7030  -30.9459 LP  0  0  0  0  0  0  0  0  0  0  0  0  # atno 8734 bound_to 5298
  -18.1473   -4.4727  -30.6454 LP  0  0  0  0  0  0  0  0  0  0  0  0  # atno 8735 bound_to 5264
  -17.2603  -14.7295  -27.8106 LP  0  0  0  0  0  0  0  0  0  0  0  0  # atno 8736 bound_to 4824
  -18.6077  -15.3238  -28.7224 LP  0  0  0  0  0  0  0  0  0  0  0  0  # atno 8737 bound_to 4824
  -18.2317  -12.4973  -33.3084 LP  0  0  0  0  0  0  0  0  0  0  0  0  # atno 8738 bound_to 4842
  -17.5294  -11.7752  -31.8995 LP  0  0  0  0  0  0  0  0  0  0  0  0  # atno 8739 bound_to 4842
  -18.3280   -5.3340  -32.9671 LP  0  0  0  0  0  0  0  0  0  0  0  0  # atno 8742 bound_to 5246
  -17.2864   -3.9536  -33.0650 LP  0  0  0  0  0  0  0  0  0  0  0  0  # atno 8743 bound_to 5246
  -17.4119  -13.9770  -32.2844 LP  0  0  0  0  0  0  0  0  0  0  0  0  # atno 8752 bound_to 4874
  -20.7197   -6.4606  -31.1332 LP  0  0  0  0  0  0  0  0  0  0  0  0  # atno 8753 bound_to 5213
  -21.9943   -7.1807  -32.0588 LP  0  0  0  0  0  0  0  0  0  0  0  0  # atno 8754 bound_to 5213
  -20.9605   -3.5879  -33.0233 LP  0  0  0  0  0  0  0  0  0  0  0  0  # atno 8755 bound_to 5243
  -21.4204  -14.0537  -32.6144 LP  0  0  0  0  0  0  0  0  0  0  0  0  # atno 8756 bound_to 4877
  -20.0483  -14.8523  -31.9219 LP  0  0  0  0  0  0  0  0  0  0  0  0  # atno 8757 bound_to 4877

> <Gold.Score>
     Fitness  S(hb_ext) S(vdw_ext)  S(hb_int)    S(int)      intcor
     18.58       4.21      10.60       0.00      -0.21      -0.76

> <Gold.Goldscore.Fitness>
18.5790

> <Gold.Goldscore.Internal.Vdw>
-0.3817

> <Gold.Goldscore.Internal.Torsion>
-0.5925

> <Gold.Goldscore.External.Vdw>
10.6035

> <Gold.Goldscore.Internal.HBond>
0.0000

> <Gold.Goldscore.External.HBond>
4.2085

> <Gold.Goldscore.Internal.Correction>
-0.7650

> <Gold.Goldscore.Hbonds>
donor molecule, donor type, donor heavy atom, donor atom, acceptor molecule, acceptor atom, score
      P1  H  4203  4214       L1     9  0.36
      L1  H     8    22       P1  4275  0.12
      L1  H    10    23       P1   534  0.66

> <Gold.Goldscore.Internal.Vdw.Weighted>
-0.3817

> <Gold.Goldscore.Internal.Torsion.Weighted>
-0.5925

> <Gold.Goldscore.External.Vdw.Weighted>
14.5798

> <Gold.Goldscore.Internal.HBond.Weighted>
0.0000

> <Gold.Goldscore.External.HBond.Weighted>
4.2085

> <Gold.Goldscore.Internal.Correction.Weighted>
-0.7650

> <Gold.Rescore>
     Score     S(PLP)   S(hbond)     S(cho)   S(metal)  DE(clash)   DE(tors)     intcor
     23.76     -22.42       1.10       0.00       0.00       0.00       0.98       ----

> <Gold.PLP.Fitness>
23.7632

> <Gold.PLP.PLP>
-22.4159

> <Gold.PLP.part.hbond>
-2.0000

> <Gold.PLP.part.metal>
0.0000

> <Gold.PLP.part.buried>
-3.6823

> <Gold.PLP.part.nonpolar>
-17.4471

> <Gold.PLP.part.repulsive>
0.3765

> <Gold.PLP.ligand.clash>
0.0000

> <Gold.PLP.ligand.torsion>
0.9828

> <Gold.PLP.Chemscore.Hbond>
1.1043

> <Gold.PLP.Chemscore.CHOScore>
0.0000

> <Gold.PLP.Chemscore.Metal>
0.0000

> <Gold.Chemscore.Hbonds>
donor molecule, donor type, donor heavy atom, donor atom, acceptor molecule, acceptor atom, score
      L1  H     8    22       P1  4275  0.46
      L1  H    10    23       P1   534  0.71

> <Gold.PLP.Chemscore.Internal.Correction>
   9.000000E+99

