#       Name:                CT1002167954
#       Creating user name   hitesit
#       Creation time:       Sun Apr 16 02:23:52 2023


#       File generated by GOLD software.
#

@<TRIPOS>MOLECULE
CT1002167954|ligand_prepared|mol2|1|dock5
    29    30     1
SMALL
NO_CHARGES


@<TRIPOS>ATOM
      1 C1           1.4770 -11.4435 -32.2486 C.3            1 RES1               0.0000
      2 C2           0.9377 -10.2553 -31.4263 C.ar           1 RES1               0.0000
      3 C3           2.5272 -12.1260 -31.3772 C.2            1 RES1               0.0000
      4 C4           0.2721 -12.3199 -32.5723 C.2            1 RES1               0.0000
      5 C5           2.1395 -11.0301 -33.5834 C.3            1 RES1               0.0000
      6 C6          -0.0744  -9.4449 -31.9319 C.ar           1 RES1               0.0000
      7 C7           1.4397  -9.9592 -30.1617 C.ar           1 RES1               0.0000
      8 N8           2.1969 -13.3207 -30.8084 N.am           1 RES1               0.0000
      9 O9           3.6143 -11.6049 -31.1603 O.2            1 RES1               0.0000
     10 N10          0.2251 -13.5749 -32.0239 N.am           1 RES1               0.0000
     11 O11         -0.6450 -11.9290 -33.2839 O.2            1 RES1               0.0000
     12 C12          2.6707 -12.2024 -34.3931 C.3            1 RES1               0.0000
     13 C13         -0.5689  -8.3789 -31.1987 C.ar           1 RES1               0.0000
     14 C14          0.9438  -8.8926 -29.4303 C.ar           1 RES1               0.0000
     15 C15          1.1179 -14.1036 -31.1320 C.2            1 RES1               0.0000
     16 C16         -0.0605  -8.1023 -29.9475 C.ar           1 RES1               0.0000
     17 O17          0.9788 -15.2199 -30.6404 O.2            1 RES1               0.0000
     18 H18          1.4039 -10.4868 -34.1893 H              1 RES1               0.0000
     19 H19          2.9687 -10.3447 -33.3686 H              1 RES1               0.0000
     20 H20         -0.4851  -9.6457 -32.9157 H              1 RES1               0.0000
     21 H21          2.2307 -10.5667 -29.7353 H              1 RES1               0.0000
     22 H22          2.8086 -13.6638 -30.0747 H              1 RES1               0.0000
     23 H23         -0.5469 -14.1700 -32.3069 H              1 RES1               0.0000
     24 H24          3.1251 -11.8570 -35.3194 H              1 RES1               0.0000
     25 H25          3.4234 -12.7505 -33.8302 H              1 RES1               0.0000
     26 H26          1.8678 -12.8918 -34.6460 H              1 RES1               0.0000
     27 H27         -1.3584  -7.7591 -31.6108 H              1 RES1               0.0000
     28 H28          1.3474  -8.6782 -28.4462 H              1 RES1               0.0000
     29 H29         -0.4484  -7.2674 -29.3732 H              1 RES1               0.0000
@<TRIPOS>BOND
    1    1    2 1     
    2    1    3 1     
    3    1    4 1     
    4    1    5 1     
    5    2    6 ar    
    6    2    7 ar    
    7    3    8 1     
    8    3    9 2     
    9    4   10 1     
   10    4   11 2     
   11    5   12 1     
   12    5   18 1     
   13    5   19 1     
   14    6   13 ar    
   15    6   20 1     
   16    7   14 ar    
   17    7   21 1     
   18    8   15 1     
   19    8   22 1     
   20   10   15 1     
   21   10   23 1     
   22   12   24 1     
   23   12   25 1     
   24   12   26 1     
   25   13   16 ar    
   26   13   27 1     
   27   14   16 ar    
   28   14   28 1     
   29   15   17 2     
   30   16   29 1     
@<TRIPOS>SUBSTRUCTURE
      1 RES1           1
@<TRIPOS>SET
DONOR_HYDROGENS      STATIC     ATOMS    <user>   **** ""
2 22 23
ATOM$RED        STATIC     ATOMS    COLORGROUP SYSTEM
2 22 23
@<TRIPOS>COMMENT
> <Gold.Version>
2022.3.0

> <Gold.Id.Protein>
unknown|7kl0_clean|pdb

> <Gold.Protein.RotatedTorsions>
[ 6442 6424 6423 6421 ] final  100.77 input   59.99 | X-H torsion
[ 6434 6413 6414 6415 ] final   17.59 input   40.09 | X-H torsion
[ 6240 6222 6221 6219 ] final   -4.68 input   60.01 | X-H torsion
[ 7213 7207 7208 7209 ] final  174.74 input  101.61 | X-H torsion
[ 7269 7260 7261 7262 ] final  142.81 input  118.90 | X-H torsion
[ 7309 7295 7296 7297 ] final -126.88 input   89.68 | X-H torsion
[ 7217 7212 7211 7208 ] final   31.89 input   60.02 | X-H torsion
[ 6577 6553 6554 6555 ] final  -64.66 input   19.71 | X-H torsion
[ 6607 6595 6596 6597 ] final   75.07 input   28.67 | X-H torsion
[ 6530 6510 6511 6512 ] final -168.94 input   51.84 | X-H torsion
[ 6635 6620 6621 6622 ] final   97.63 input  122.94 | X-H torsion
[ 1420 1410 1409 1406 ] final   40.33 input   60.02 | X-H torsion
[ 1287 1275 1273 1270 ] final   10.79 input   60.01 | X-H torsion
[ 6398 6391 6392 6393 ] final   70.05 input  -98.70 | X-H torsion
[ 5429 5420 5419 5417 ] final  175.31 input   59.99 | X-H torsion
[ 3115 3099 3100 3101 ] final   86.51 input  111.82 | X-H torsion
[ 2982 2971 2972 2973 ] final   64.49 input  134.80 | X-H torsion
[ 3018 3009 3010 3011 ] final   50.91 input  114.19 | X-H torsion
[ 6268 6249 6250 6251 ] final -154.23 input  122.80 | X-H torsion
[ 6306 6287 6288 6289 ] final  -92.81 input  127.97 | X-H torsion
[ 3081 3062 3063 3064 ] final  -85.16 input  114.53 | X-H torsion
[ 3139 3129 3130 3131 ] final  112.52 input  112.52 | X-H torsion
[ 4214 4203 4202 4201 ] final   38.91 input   60.00 | X-H torsion
[ 4281 4267 4268 4269 ] final  129.48 input  109.79 | X-H torsion
[ 5391 5387 5388 5389 ] final  106.02 input  115.86 | X-H torsion
[ 1596 1580 1579 1578 ] final   90.93 input   59.99 | X-H torsion
[ 5347 5340 5338 5335 ] final  176.74 input   60.02 | X-H torsion
[  607  596  595  592 ] final  131.74 input   60.02 | X-H torsion
[ 2916 2901 2902 2903 ] final   -9.65 input  112.69 | X-H torsion
[ 4310 4296 4297 4298 ] final  176.41 input   86.41 | X-H torsion
[ 2946 2930 2931 2932 ] final  137.66 input  126.41 | X-H torsion
[ 3050 3038 3039 3040 ] final -125.81 input  116.07 | X-H torsion
[ 5341 5334 5335 5336 ] final   87.44 input   67.75 | X-H torsion
[ 5421 5409 5410 5411 ] final   99.98 input   64.82 | X-H torsion
[ 5455 5447 5448 5449 ] final   98.76 input  110.01 | X-H torsion
[ 6852 6834 6833 6831 ] final  169.68 input   59.99 | X-H torsion
[ 5322 5317 5318 5319 ] final -166.94 input  -36.16 | X-H torsion
[ 4142 4128 4129 4130 ] final  -62.54 input   37.30 | X-H torsion
[ 4847 4839 4840 4841 ] final  -92.76 input   74.58 | X-H torsion
[ 4166 4156 4157 4158 ] final -178.85 input  113.65 | X-H torsion
[ 4204 4195 4196 4197 ] final  150.61 input    7.17 | X-H torsion
[ 4825 4821 4822 4823 ] final  123.11 input  114.67 | X-H torsion
[ 5308 5298 5299 5300 ] final -155.13 input   26.27 | X-H torsion
[ 1613 1589 1588 1587 ] final    2.34 input   59.99 | X-H torsion
[ 5284 5264 5265 5266 ] final -142.91 input   91.93 | X-H torsion
[ 4879 4874 4875 4876 ] final  -14.59 input  114.78 | X-H torsion
[ 5250 5243 5244 5245 ] final   59.51 input  -68.46 | X-H torsion
[ 5710 5690 5689 5688 ] final  155.65 input   60.02 | X-H torsion
[ 7345 7337 7338 7339 ] final  130.43 input  116.36 | X-H torsion
[ 3215 3201 3202 3203 ] final  -48.52 input -100.55 | X-H torsion
[ 4227 4194 4193 4192 ] final  145.78 input   60.00 | X-H torsion
[  546  536  537  538 ] final -178.13 input  119.99 | X-H torsion
[ 6843 6822 6821 6819 ] final -162.21 input   59.97 | X-H torsion
[ 5806 5788 5787 5785 ] final  -96.12 input   59.97 | X-H torsion
[ 8545 6453 6452 6451 ] final  -25.31 input   -0.00 | X-H torsion
[ 8553 6365 6364 6363 ] final  102.66 input    0.00 | X-H torsion
[ 8555 6394 6393 6392 ] final -175.78 input    0.00 | X-H torsion
[ 8557 6416 6415 6414 ] final  -98.44 input    0.00 | X-H torsion
[ 8560 7183 7182 7181 ] final  -32.34 input   -0.00 | X-H torsion
[ 8562 7210 7209 7208 ] final  -68.91 input    0.00 | X-H torsion
[ 8569 7147 7146 7145 ] final -122.34 input    0.00 | X-H torsion
[ 8574 7233 7232 7231 ] final   32.34 input   -0.00 | X-H torsion
[ 8577 6556 6555 6554 ] final  132.19 input    0.00 | X-H torsion
[ 8581 6513 6512 6511 ] final  -56.25 input    0.00 | X-H torsion
[ 8586 6481 6480 6479 ] final   99.84 input    0.00 | X-H torsion
[ 8588 6598 6597 6596 ] final   28.12 input   -0.00 | X-H torsion
[ 8621 3102 3101 3100 ] final    2.81 input    0.00 | X-H torsion
[ 8626 2974 2973 2972 ] final  -45.00 input   -0.00 | X-H torsion
[ 8633 3065 3064 3063 ] final   25.31 input    0.00 | X-H torsion
[ 8635 3204 3203 3202 ] final  113.91 input   -0.00 | X-H torsion
[ 8637 6252 6251 6250 ] final   73.12 input    0.00 | X-H torsion
[ 8646 6101 6100 6099 ] final  120.94 input    0.00 | X-H torsion
[ 8648 6134 6133 6132 ] final   -8.44 input    0.00 | X-H torsion
[ 8650 2933 2932 2931 ] final  -98.44 input    0.00 | X-H torsion
[ 8652 3012 3011 3010 ] final   37.97 input    0.00 | X-H torsion
[ 8658 6623 6622 6621 ] final  -91.41 input    0.00 | X-H torsion
[ 8674 4240 4239 4238 ] final -163.12 input    0.00 | X-H torsion
[ 8676 4270 4269 4268 ] final  -47.81 input    0.00 | X-H torsion
[ 8687 2904 2903 2902 ] final -113.91 input    0.00 | X-H torsion
[ 8698 5337 5336 5335 ] final -178.59 input    0.00 | X-H torsion
[ 8700 5320 5319 5318 ] final  -32.34 input    0.00 | X-H torsion
[ 8702 5365 5364 5363 ] final -129.37 input   -0.00 | X-H torsion
[ 8705 5390 5389 5388 ] final -167.34 input   -0.00 | X-H torsion
[ 8711 4131 4130 4129 ] final  171.56 input    0.00 | X-H torsion
[ 8713 5301 5300 5299 ] final  -66.09 input    0.00 | X-H torsion
[ 8715 4086 4085 4084 ] final  -37.97 input    0.00 | X-H torsion
[ 8723 4764 4763 4762 ] final  -92.81 input    0.00 | X-H torsion
[ 8726 4159 4158 4157 ] final  149.06 input    0.00 | X-H torsion
[ 8729  485  484  483 ] final  -68.91 input    0.00 | X-H torsion
[ 8732 5267 5266 5265 ] final  104.06 input    0.00 | X-H torsion
[ 8736 4824 4823 4822 ] final  -78.75 input   -0.00 | X-H torsion
[ 8738 4842 4841 4840 ] final  139.22 input    0.00 | X-H torsion
[ 8742 5246 5245 5244 ] final    9.84 input    0.00 | X-H torsion
[ 8753 5213 5212 5211 ] final -130.78 input   -0.00 | X-H torsion
[ 8756 4877 4876 4875 ] final   68.91 input    0.00 | X-H torsion

> <Gold.Protein.ActiveResidues>
 GLU18   GLY20   LYS21   GLY22   ALA23   PHE24   SER25   VAL26   VAL27   ARG28  
 ILE43   ILE44   ASN45   THR46   LYS47   LYS48   LEU49   SER50   ARG52   ASP53  
 LYS56   ARG59   GLY83   HIS84   GLY95   GLU96   LEU97   PHE98   GLU99   ASP100 
 ILE101  VAL102  ALA103  GLU105  TYR106  HIS133  ARG134  ASN135  LEU136  LYS137 
 PRO138  GLU139  ASN140  ASP156  GLY158  LEU159  ALA160  ILE161  TRP170  PHE171 
 GLY172  PHE173  ALA174  GLY175  THR176  PRO177  GLY178  TYR179  LEU180  VAL184 
 LYS187  TYR190  VAL201  ILE202  TYR204  ILE205  LEU206  VAL208  GLY209  TYR210 
 PRO211  PRO212  PHE213  TRP214  ASP215  GLU216  ASP217  GLN218  HIS219  LEU221 
 TYR222  GLN224  ILE225  ASP231  PHE232  PRO233  SER234  PRO235  GLU236  TRP237 
 ASP238 

> <Gold.Protein.RotatedAtoms>
  -11.2116  -16.1778  -20.6713 H   0  0  0  0  0  0  0  0  0  0  0  0  # atno 546  bound_to 536 
    6.1588  -17.2387  -22.6906 H   0  0  0  0  0  0  0  0  0  0  0  0  # atno 607  bound_to 596 
   16.1313  -17.1017  -30.3761 H   0  0  0  0  0  0  0  0  0  0  0  0  # atno 1287 bound_to 1275
   13.8056   -5.8917  -27.6474 H   0  0  0  0  0  0  0  0  0  0  0  0  # atno 1420 bound_to 1410
    8.2711   -6.1071  -23.0926 H   0  0  0  0  0  0  0  0  0  0  0  0  # atno 1596 bound_to 1580
    7.6540   -5.7139  -21.6053 H   0  0  0  0  0  0  0  0  0  0  0  0  # atno 1597 bound_to 1580
    8.8147   -4.7563  -22.3010 H   0  0  0  0  0  0  0  0  0  0  0  0  # atno 1598 bound_to 1580
  -19.1880  -11.3193  -24.4788 H   0  0  0  0  0  0  0  0  0  0  0  0  # atno 1613 bound_to 1589
  -18.1290  -12.4194  -25.1245 H   0  0  0  0  0  0  0  0  0  0  0  0  # atno 1614 bound_to 1589
  -18.5579  -11.0733  -25.9919 H   0  0  0  0  0  0  0  0  0  0  0  0  # atno 1615 bound_to 1589
   -0.8027  -25.4520  -33.5012 H   0  0  0  0  0  0  0  0  0  0  0  0  # atno 2916 bound_to 2901
   -2.5069  -22.7894  -36.0161 H   0  0  0  0  0  0  0  0  0  0  0  0  # atno 2946 bound_to 2930
   -0.1600  -21.3339  -35.1653 H   0  0  0  0  0  0  0  0  0  0  0  0  # atno 2982 bound_to 2971
    1.7819  -21.8123  -34.8601 H   0  0  0  0  0  0  0  0  0  0  0  0  # atno 3018 bound_to 3009
    3.8985  -23.5571  -35.1740 H   0  0  0  0  0  0  0  0  0  0  0  0  # atno 3050 bound_to 3038
    4.6589  -22.2121  -38.3587 H   0  0  0  0  0  0  0  0  0  0  0  0  # atno 3081 bound_to 3062
    5.5346  -20.3108  -36.3247 H   0  0  0  0  0  0  0  0  0  0  0  0  # atno 3115 bound_to 3099
    7.2760  -21.6970  -36.0100 H   0  0  0  0  0  0  0  0  0  0  0  0  # atno 3139 bound_to 3129
    8.5319  -20.1827  -39.5999 H   0  0  0  0  0  0  0  0  0  0  0  0  # atno 3215 bound_to 3201
  -12.3668  -12.2484  -36.3551 H   0  0  0  0  0  0  0  0  0  0  0  0  # atno 4142 bound_to 4128
  -11.1825  -14.0554  -36.6987 H   0  0  0  0  0  0  0  0  0  0  0  0  # atno 4166 bound_to 4156
   -7.5246  -14.3570  -36.3662 H   0  0  0  0  0  0  0  0  0  0  0  0  # atno 4204 bound_to 4195
   -6.3237  -12.6476  -30.5777 H   0  0  0  0  0  0  0  0  0  0  0  0  # atno 4214 bound_to 4203
   -6.9942  -13.8474  -29.6508 H   0  0  0  0  0  0  0  0  0  0  0  0  # atno 4215 bound_to 4203
   -5.3580  -13.8209  -29.9166 H   0  0  0  0  0  0  0  0  0  0  0  0  # atno 4216 bound_to 4203
   -2.4248  -11.9236  -15.9187 H   0  0  0  0  0  0  0  0  0  0  0  0  # atno 4227 bound_to 4194
   -3.8431  -12.7494  -15.6858 H   0  0  0  0  0  0  0  0  0  0  0  0  # atno 4228 bound_to 4194
   -3.6814  -11.2018  -15.1147 H   0  0  0  0  0  0  0  0  0  0  0  0  # atno 4229 bound_to 4194
   -3.1419  -17.0134  -34.0246 H   0  0  0  0  0  0  0  0  0  0  0  0  # atno 4281 bound_to 4267
   -5.7442  -18.2872  -33.0573 H   0  0  0  0  0  0  0  0  0  0  0  0  # atno 4310 bound_to 4296
  -15.1907  -18.4393  -30.2881 H   0  0  0  0  0  0  0  0  0  0  0  0  # atno 4825 bound_to 4821
  -16.8970  -15.6185  -29.7226 H   0  0  0  0  0  0  0  0  0  0  0  0  # atno 4847 bound_to 4839
  -18.1237  -14.2411  -31.9097 H   0  0  0  0  0  0  0  0  0  0  0  0  # atno 4879 bound_to 4874
  -20.4938   -5.2149  -32.9336 H   0  0  0  0  0  0  0  0  0  0  0  0  # atno 5250 bound_to 5243
  -18.1230   -3.1797  -31.2364 H   0  0  0  0  0  0  0  0  0  0  0  0  # atno 5284 bound_to 5264
  -15.5065   -5.2763  -30.1328 H   0  0  0  0  0  0  0  0  0  0  0  0  # atno 5308 bound_to 5298
  -13.3430   -8.3513  -31.3779 H   0  0  0  0  0  0  0  0  0  0  0  0  # atno 5322 bound_to 5317
   -9.1235   -9.4364  -32.9357 H   0  0  0  0  0  0  0  0  0  0  0  0  # atno 5341 bound_to 5334
   -7.2769  -12.0957  -31.3057 H   0  0  0  0  0  0  0  0  0  0  0  0  # atno 5347 bound_to 5340
   -3.8147   -7.3301  -32.9836 H   0  0  0  0  0  0  0  0  0  0  0  0  # atno 5391 bound_to 5387
   -5.1859   -7.9967  -34.9670 H   0  0  0  0  0  0  0  0  0  0  0  0  # atno 5421 bound_to 5409
   -1.0166  -12.2697  -34.8738 H   0  0  0  0  0  0  0  0  0  0  0  0  # atno 5429 bound_to 5420
   -6.7020   -5.9805  -35.8023 H   0  0  0  0  0  0  0  0  0  0  0  0  # atno 5455 bound_to 5447
  -14.3541    2.2644  -29.0124 H   0  0  0  0  0  0  0  0  0  0  0  0  # atno 5710 bound_to 5690
  -13.8776    2.1185  -30.5925 H   0  0  0  0  0  0  0  0  0  0  0  0  # atno 5711 bound_to 5690
  -14.2832    3.6054  -29.9841 H   0  0  0  0  0  0  0  0  0  0  0  0  # atno 5712 bound_to 5690
  -19.4560   -6.1600  -34.3352 H   0  0  0  0  0  0  0  0  0  0  0  0  # atno 5806 bound_to 5788
    5.8208   -6.1374  -43.7541 H   0  0  0  0  0  0  0  0  0  0  0  0  # atno 6240 bound_to 6222
    1.7160  -11.2504  -42.8230 H   0  0  0  0  0  0  0  0  0  0  0  0  # atno 6268 bound_to 6249
    2.5592  -14.8648  -42.3659 H   0  0  0  0  0  0  0  0  0  0  0  0  # atno 6306 bound_to 6287
    7.5038  -13.2558  -42.6903 H   0  0  0  0  0  0  0  0  0  0  0  0  # atno 6398 bound_to 6391
    6.0414  -11.8819  -41.1809 H   0  0  0  0  0  0  0  0  0  0  0  0  # atno 6434 bound_to 6413
    9.4162   -6.4920  -43.7872 H   0  0  0  0  0  0  0  0  0  0  0  0  # atno 6442 bound_to 6424
    1.1014   -4.4649  -40.5121 H   0  0  0  0  0  0  0  0  0  0  0  0  # atno 6530 bound_to 6510
    1.2973   -2.5853  -36.7765 H   0  0  0  0  0  0  0  0  0  0  0  0  # atno 6577 bound_to 6553
    1.6672   -1.7008  -33.4214 H   0  0  0  0  0  0  0  0  0  0  0  0  # atno 6607 bound_to 6595
    4.8452    0.0694  -30.7255 H   0  0  0  0  0  0  0  0  0  0  0  0  # atno 6635 bound_to 6620
   -6.1862   -1.0481  -18.0137 H   0  0  0  0  0  0  0  0  0  0  0  0  # atno 6843 bound_to 6822
   -7.5555   -1.9750  -29.1133 H   0  0  0  0  0  0  0  0  0  0  0  0  # atno 6852 bound_to 6834
   11.5757   -3.5818  -49.3053 H   0  0  0  0  0  0  0  0  0  0  0  0  # atno 7213 bound_to 7207
   14.6118   -5.4723  -51.1461 H   0  0  0  0  0  0  0  0  0  0  0  0  # atno 7217 bound_to 7212
   13.8093   -8.1409  -47.4800 H   0  0  0  0  0  0  0  0  0  0  0  0  # atno 7269 bound_to 7260
   10.9701   -9.4309  -48.9409 H   0  0  0  0  0  0  0  0  0  0  0  0  # atno 7309 bound_to 7295
   12.0325   -7.9340  -51.3962 H   0  0  0  0  0  0  0  0  0  0  0  0  # atno 7345 bound_to 7337
    7.8294   -6.4791  -44.1486 LP  0  0  0  0  0  0  0  0  0  0  0  0  # atno 8537 bound_to 6424
    8.7785   -7.7015  -44.6700 LP  0  0  0  0  0  0  0  0  0  0  0  0  # atno 8538 bound_to 6424
    7.0517  -12.6721  -39.9862 LP  0  0  0  0  0  0  0  0  0  0  0  0  # atno 8543 bound_to 6413
    4.6221   -6.7713  -39.0227 LP  0  0  0  0  0  0  0  0  0  0  0  0  # atno 8545 bound_to 6453
    4.3682   -6.0036  -40.5544 LP  0  0  0  0  0  0  0  0  0  0  0  0  # atno 8546 bound_to 6453
    4.8573   -5.0156  -44.4337 LP  0  0  0  0  0  0  0  0  0  0  0  0  # atno 8551 bound_to 6222
    5.7414   -6.0150  -45.3750 LP  0  0  0  0  0  0  0  0  0  0  0  0  # atno 8552 bound_to 6222
    8.9717  -12.1941  -41.9256 LP  0  0  0  0  0  0  0  0  0  0  0  0  # atno 8553 bound_to 6365
    9.6264  -13.6506  -42.5963 LP  0  0  0  0  0  0  0  0  0  0  0  0  # atno 8554 bound_to 6365
    7.0979  -12.7057  -37.9693 LP  0  0  0  0  0  0  0  0  0  0  0  0  # atno 8555 bound_to 6394
    7.4492  -14.3318  -38.4512 LP  0  0  0  0  0  0  0  0  0  0  0  0  # atno 8556 bound_to 6394
    4.9124   -9.3570  -41.6354 LP  0  0  0  0  0  0  0  0  0  0  0  0  # atno 8557 bound_to 6416
    4.1614  -10.8984  -41.3903 LP  0  0  0  0  0  0  0  0  0  0  0  0  # atno 8558 bound_to 6416
   10.3987   -6.1748  -47.3084 LP  0  0  0  0  0  0  0  0  0  0  0  0  # atno 8560 bound_to 7183
   11.1972   -6.3413  -48.8363 LP  0  0  0  0  0  0  0  0  0  0  0  0  # atno 8561 bound_to 7183
   14.6520   -3.5633  -46.9791 LP  0  0  0  0  0  0  0  0  0  0  0  0  # atno 8562 bound_to 7210
   13.8671   -4.8715  -46.1590 LP  0  0  0  0  0  0  0  0  0  0  0  0  # atno 8563 bound_to 7210
   12.0642   -3.9396  -47.6537 LP  0  0  0  0  0  0  0  0  0  0  0  0  # atno 8566 bound_to 7207
   13.5704   -8.0837  -49.2099 LP  0  0  0  0  0  0  0  0  0  0  0  0  # atno 8568 bound_to 7260
    9.4097   -4.4232  -49.9740 LP  0  0  0  0  0  0  0  0  0  0  0  0  # atno 8569 bound_to 7147
    8.2863   -3.1375  -50.2658 LP  0  0  0  0  0  0  0  0  0  0  0  0  # atno 8570 bound_to 7147
   11.6075   -7.9315  -49.5848 LP  0  0  0  0  0  0  0  0  0  0  0  0  # atno 8571 bound_to 7295
   15.8751   -4.6350  -50.5539 LP  0  0  0  0  0  0  0  0  0  0  0  0  # atno 8572 bound_to 7212
   15.0870   -4.1001  -51.8803 LP  0  0  0  0  0  0  0  0  0  0  0  0  # atno 8573 bound_to 7212
   14.4647   -8.6727  -51.2870 LP  0  0  0  0  0  0  0  0  0  0  0  0  # atno 8574 bound_to 7233
   12.8275   -8.9209  -50.7789 LP  0  0  0  0  0  0  0  0  0  0  0  0  # atno 8575 bound_to 7233
    2.5403   -3.7060  -37.2945 LP  0  0  0  0  0  0  0  0  0  0  0  0  # atno 8576 bound_to 6553
    3.5740   -0.3578  -35.5133 LP  0  0  0  0  0  0  0  0  0  0  0  0  # atno 8577 bound_to 6556
    4.5201   -1.7630  -35.8741 LP  0  0  0  0  0  0  0  0  0  0  0  0  # atno 8578 bound_to 6556
   -0.1527   -5.3227  -36.6192 LP  0  0  0  0  0  0  0  0  0  0  0  0  # atno 8581 bound_to 6513
    1.4876   -5.8322  -36.3962 LP  0  0  0  0  0  0  0  0  0  0  0  0  # atno 8582 bound_to 6513
    3.2207   -2.3569  -33.9086 LP  0  0  0  0  0  0  0  0  0  0  0  0  # atno 8583 bound_to 6595
    1.5391   -5.5576  -39.2098 LP  0  0  0  0  0  0  0  0  0  0  0  0  # atno 8585 bound_to 6510
    1.5988   -2.7038  -41.4018 LP  0  0  0  0  0  0  0  0  0  0  0  0  # atno 8586 bound_to 6481
    3.1996   -3.0874  -40.8630 LP  0  0  0  0  0  0  0  0  0  0  0  0  # atno 8587 bound_to 6481
    1.6325   -2.0903  -31.3634 LP  0  0  0  0  0  0  0  0  0  0  0  0  # atno 8588 bound_to 6598
    1.8454   -1.3993  -29.7895 LP  0  0  0  0  0  0  0  0  0  0  0  0  # atno 8589 bound_to 6598
    3.6599   -1.2151  -30.8968 LP  0  0  0  0  0  0  0  0  0  0  0  0  # atno 8590 bound_to 6620
   12.4046   -6.5069  -28.2005 LP  0  0  0  0  0  0  0  0  0  0  0  0  # atno 8605 bound_to 1410
   12.5686   -4.8948  -27.9983 LP  0  0  0  0  0  0  0  0  0  0  0  0  # atno 8606 bound_to 1410
   16.4065  -17.7932  -28.9289 LP  0  0  0  0  0  0  0  0  0  0  0  0  # atno 8617 bound_to 1275
   17.4974  -16.7560  -29.5620 LP  0  0  0  0  0  0  0  0  0  0  0  0  # atno 8618 bound_to 1275
    9.7710  -18.6368  -36.3384 LP  0  0  0  0  0  0  0  0  0  0  0  0  # atno 8621 bound_to 3102
   10.4165  -20.2342  -36.5162 LP  0  0  0  0  0  0  0  0  0  0  0  0  # atno 8622 bound_to 3102
    5.8897  -13.9257  -42.7934 LP  0  0  0  0  0  0  0  0  0  0  0  0  # atno 8623 bound_to 6391
   -0.6426  -12.0141  -36.4366 LP  0  0  0  0  0  0  0  0  0  0  0  0  # atno 8624 bound_to 5420
   -1.4345  -13.3723  -35.9951 LP  0  0  0  0  0  0  0  0  0  0  0  0  # atno 8625 bound_to 5420
    3.3656  -19.3548  -36.3937 LP  0  0  0  0  0  0  0  0  0  0  0  0  # atno 8626 bound_to 2974
    4.2366  -19.5988  -34.9166 LP  0  0  0  0  0  0  0  0  0  0  0  0  # atno 8627 bound_to 2974
    5.9972  -19.3131  -37.6865 LP  0  0  0  0  0  0  0  0  0  0  0  0  # atno 8632 bound_to 3099
    6.9411  -18.9211  -39.6950 LP  0  0  0  0  0  0  0  0  0  0  0  0  # atno 8633 bound_to 3065
    8.0313  -19.3427  -38.4168 LP  0  0  0  0  0  0  0  0  0  0  0  0  # atno 8634 bound_to 3065
    8.3816  -16.0417  -41.2380 LP  0  0  0  0  0  0  0  0  0  0  0  0  # atno 8635 bound_to 3204
    7.4856  -16.9602  -40.0745 LP  0  0  0  0  0  0  0  0  0  0  0  0  # atno 8636 bound_to 3204
    4.5527  -15.0120  -41.5181 LP  0  0  0  0  0  0  0  0  0  0  0  0  # atno 8637 bound_to 6252
    4.9130  -14.5803  -43.1563 LP  0  0  0  0  0  0  0  0  0  0  0  0  # atno 8638 bound_to 6252
   -0.3075  -20.3844  -36.6343 LP  0  0  0  0  0  0  0  0  0  0  0  0  # atno 8639 bound_to 2971
    2.2215  -20.3998  -33.9128 LP  0  0  0  0  0  0  0  0  0  0  0  0  # atno 8640 bound_to 3009
    1.3129  -12.7222  -43.6860 LP  0  0  0  0  0  0  0  0  0  0  0  0  # atno 8644 bound_to 6249
    1.6277  -14.3677  -43.7631 LP  0  0  0  0  0  0  0  0  0  0  0  0  # atno 8645 bound_to 6287
   -0.4681  -11.5089  -41.3638 LP  0  0  0  0  0  0  0  0  0  0  0  0  # atno 8646 bound_to 6101
   -0.4363  -10.6914  -42.8905 LP  0  0  0  0  0  0  0  0  0  0  0  0  # atno 8647 bound_to 6101
   -0.1749  -14.6727  -42.1121 LP  0  0  0  0  0  0  0  0  0  0  0  0  # atno 8648 bound_to 6134
   -0.0199  -14.8955  -43.8228 LP  0  0  0  0  0  0  0  0  0  0  0  0  # atno 8649 bound_to 6134
    2.2302  -21.8796  -36.9041 LP  0  0  0  0  0  0  0  0  0  0  0  0  # atno 8650 bound_to 2933
    1.6012  -20.9038  -38.1895 LP  0  0  0  0  0  0  0  0  0  0  0  0  # atno 8651 bound_to 2933
    6.1249  -22.7041  -34.2191 LP  0  0  0  0  0  0  0  0  0  0  0  0  # atno 8652 bound_to 3012
    6.0799  -22.3366  -35.9112 LP  0  0  0  0  0  0  0  0  0  0  0  0  # atno 8653 bound_to 3012
    3.5900  -21.1907  -37.4195 LP  0  0  0  0  0  0  0  0  0  0  0  0  # atno 8654 bound_to 3062
    8.4953  -20.4447  -36.1542 LP  0  0  0  0  0  0  0  0  0  0  0  0  # atno 8655 bound_to 3129
   -3.4427  -18.4424  -34.9943 LP  0  0  0  0  0  0  0  0  0  0  0  0  # atno 8656 bound_to 4267
   -4.5063   -5.8101  -33.5055 LP  0  0  0  0  0  0  0  0  0  0  0  0  # atno 8657 bound_to 5387
    1.7960   -1.0821  -27.2344 LP  0  0  0  0  0  0  0  0  0  0  0  0  # atno 8658 bound_to 6623
    2.9171   -0.1366  -26.3130 LP  0  0  0  0  0  0  0  0  0  0  0  0  # atno 8659 bound_to 6623
   -8.5929  -11.1506  -31.4585 LP  0  0  0  0  0  0  0  0  0  0  0  0  # atno 8668 bound_to 5340
   -7.6123  -10.9866  -30.1630 LP  0  0  0  0  0  0  0  0  0  0  0  0  # atno 8669 bound_to 5340
    5.3105  -17.0821  -24.0702 LP  0  0  0  0  0  0  0  0  0  0  0  0  # atno 8672 bound_to 596 
    6.3560  -15.9136  -23.6140 LP  0  0  0  0  0  0  0  0  0  0  0  0  # atno 8673 bound_to 596 
   -3.3701  -20.4134  -34.7647 LP  0  0  0  0  0  0  0  0  0  0  0  0  # atno 8674 bound_to 4240
   -2.5061  -20.1445  -36.2416 LP  0  0  0  0  0  0  0  0  0  0  0  0  # atno 8675 bound_to 4240
   -4.3996  -21.2815  -32.3875 LP  0  0  0  0  0  0  0  0  0  0  0  0  # atno 8676 bound_to 4270
   -5.9387  -20.7443  -31.8021 LP  0  0  0  0  0  0  0  0  0  0  0  0  # atno 8677 bound_to 4270
   -1.7286  -25.0080  -32.0843 LP  0  0  0  0  0  0  0  0  0  0  0  0  # atno 8686 bound_to 2901
    1.0023  -22.8814  -35.0345 LP  0  0  0  0  0  0  0  0  0  0  0  0  # atno 8687 bound_to 2904
    0.5811  -24.5498  -34.8376 LP  0  0  0  0  0  0  0  0  0  0  0  0  # atno 8688 bound_to 2904
   -5.1782  -19.3331  -34.3515 LP  0  0  0  0  0  0  0  0  0  0  0  0  # atno 8689 bound_to 4296
   -1.0018  -22.9939  -35.1451 LP  0  0  0  0  0  0  0  0  0  0  0  0  # atno 8694 bound_to 2930
    3.0282  -22.2989  -36.0315 LP  0  0  0  0  0  0  0  0  0  0  0  0  # atno 8695 bound_to 3038
   -9.6479   -8.4431  -31.5860 LP  0  0  0  0  0  0  0  0  0  0  0  0  # atno 8697 bound_to 5334
   -6.4230   -6.7894  -33.9910 LP  0  0  0  0  0  0  0  0  0  0  0  0  # atno 8698 bound_to 5337
   -7.4319   -8.1938  -34.0908 LP  0  0  0  0  0  0  0  0  0  0  0  0  # atno 8699 bound_to 5337
  -10.6286   -7.7697  -29.7027 LP  0  0  0  0  0  0  0  0  0  0  0  0  # atno 8700 bound_to 5320
   -9.2147   -8.7539  -29.5233 LP  0  0  0  0  0  0  0  0  0  0  0  0  # atno 8701 bound_to 5320
   -5.4552   -5.2403  -35.2615 LP  0  0  0  0  0  0  0  0  0  0  0  0  # atno 8702 bound_to 5365
   -5.2524   -3.9202  -34.1587 LP  0  0  0  0  0  0  0  0  0  0  0  0  # atno 8703 bound_to 5365
   -4.6140   -6.8029  -36.1234 LP  0  0  0  0  0  0  0  0  0  0  0  0  # atno 8704 bound_to 5409
   -4.1129   -6.8886  -38.0614 LP  0  0  0  0  0  0  0  0  0  0  0  0  # atno 8705 bound_to 5390
   -2.5478   -6.6244  -37.3680 LP  0  0  0  0  0  0  0  0  0  0  0  0  # atno 8706 bound_to 5390
   -7.4759   -7.2322  -36.7471 LP  0  0  0  0  0  0  0  0  0  0  0  0  # atno 8707 bound_to 5447
   -6.4501   -2.8907  -29.8802 LP  0  0  0  0  0  0  0  0  0  0  0  0  # atno 8708 bound_to 6834
   -7.9945   -2.8555  -30.4096 LP  0  0  0  0  0  0  0  0  0  0  0  0  # atno 8709 bound_to 6834
  -12.1358   -7.6297  -30.3297 LP  0  0  0  0  0  0  0  0  0  0  0  0  # atno 8710 bound_to 5317
   -9.0934  -15.3115  -34.9531 LP  0  0  0  0  0  0  0  0  0  0  0  0  # atno 8711 bound_to 4131
   -9.6463  -14.4450  -33.5590 LP  0  0  0  0  0  0  0  0  0  0  0  0  # atno 8712 bound_to 4131
  -14.3139   -7.5328  -33.2938 LP  0  0  0  0  0  0  0  0  0  0  0  0  # atno 8713 bound_to 5301
  -12.9516   -6.4714  -33.1609 LP  0  0  0  0  0  0  0  0  0  0  0  0  # atno 8714 bound_to 5301
  -12.6669   -9.5457  -35.5784 LP  0  0  0  0  0  0  0  0  0  0  0  0  # atno 8715 bound_to 4086
  -12.0738  -10.4175  -34.2043 LP  0  0  0  0  0  0  0  0  0  0  0  0  # atno 8716 bound_to 4086
  -13.3827  -12.9301  -35.1062 LP  0  0  0  0  0  0  0  0  0  0  0  0  # atno 8717 bound_to 4128
  -15.4891  -15.6940  -30.7674 LP  0  0  0  0  0  0  0  0  0  0  0  0  # atno 8722 bound_to 4839
  -13.3086  -17.4728  -31.8106 LP  0  0  0  0  0  0  0  0  0  0  0  0  # atno 8723 bound_to 4764
  -12.9189  -18.1240  -33.3676 LP  0  0  0  0  0  0  0  0  0  0  0  0  # atno 8724 bound_to 4764
   -9.9038  -13.0808  -36.0041 LP  0  0  0  0  0  0  0  0  0  0  0  0  # atno 8725 bound_to 4156
   -6.9200  -12.5128  -36.3889 LP  0  0  0  0  0  0  0  0  0  0  0  0  # atno 8726 bound_to 4159
   -8.1110  -12.3192  -37.6316 LP  0  0  0  0  0  0  0  0  0  0  0  0  # atno 8727 bound_to 4159
   -7.2657  -15.8696  -37.2311 LP  0  0  0  0  0  0  0  0  0  0  0  0  # atno 8728 bound_to 4195
   -7.4853  -18.9354  -22.6944 LP  0  0  0  0  0  0  0  0  0  0  0  0  # atno 8729 bound_to 485 
   -8.8518  -19.6402  -23.4918 LP  0  0  0  0  0  0  0  0  0  0  0  0  # atno 8730 bound_to 485 
  -16.6215  -17.9526  -31.1775 LP  0  0  0  0  0  0  0  0  0  0  0  0  # atno 8731 bound_to 4821
  -16.4724   -5.8513  -28.4792 LP  0  0  0  0  0  0  0  0  0  0  0  0  # atno 8732 bound_to 5267
  -15.1348   -4.8026  -28.1461 LP  0  0  0  0  0  0  0  0  0  0  0  0  # atno 8733 bound_to 5267
  -15.0834   -5.4746  -31.8239 LP  0  0  0  0  0  0  0  0  0  0  0  0  # atno 8734 bound_to 5298
  -18.1123   -4.0698  -29.7266 LP  0  0  0  0  0  0  0  0  0  0  0  0  # atno 8735 bound_to 5264
  -18.6072  -15.3759  -28.6846 LP  0  0  0  0  0  0  0  0  0  0  0  0  # atno 8736 bound_to 4824
  -17.2608  -14.6773  -27.8484 LP  0  0  0  0  0  0  0  0  0  0  0  0  # atno 8737 bound_to 4824
  -17.7341  -12.3817  -33.4215 LP  0  0  0  0  0  0  0  0  0  0  0  0  # atno 8738 bound_to 4842
  -18.0270  -11.8909  -31.7864 LP  0  0  0  0  0  0  0  0  0  0  0  0  # atno 8739 bound_to 4842
  -18.6176   -4.6539  -33.3212 LP  0  0  0  0  0  0  0  0  0  0  0  0  # atno 8742 bound_to 5246
  -16.9968   -4.6337  -32.7109 LP  0  0  0  0  0  0  0  0  0  0  0  0  # atno 8743 bound_to 5246
  -16.9252  -15.3840  -32.4852 LP  0  0  0  0  0  0  0  0  0  0  0  0  # atno 8752 bound_to 4874
  -21.5165   -6.2979  -30.9241 LP  0  0  0  0  0  0  0  0  0  0  0  0  # atno 8753 bound_to 5213
  -21.1975   -7.3433  -32.2678 LP  0  0  0  0  0  0  0  0  0  0  0  0  # atno 8754 bound_to 5213
  -21.3163   -3.6742  -32.7836 LP  0  0  0  0  0  0  0  0  0  0  0  0  # atno 8755 bound_to 5243
  -20.1659  -13.9137  -31.8993 LP  0  0  0  0  0  0  0  0  0  0  0  0  # atno 8756 bound_to 4877
  -21.3028  -14.9922  -32.6370 LP  0  0  0  0  0  0  0  0  0  0  0  0  # atno 8757 bound_to 4877

> <Gold.Score>
     Fitness  S(hb_ext) S(vdw_ext)  S(hb_int)    S(int)      intcor
     17.23       4.76      11.70       0.00      -3.62      -0.76

> <Gold.Goldscore.Fitness>
17.2269

> <Gold.Goldscore.Internal.Vdw>
-4.0176

> <Gold.Goldscore.Internal.Torsion>
-0.3670

> <Gold.Goldscore.External.Vdw>
11.6997

> <Gold.Goldscore.Internal.HBond>
0.0000

> <Gold.Goldscore.External.HBond>
4.7594

> <Gold.Goldscore.Internal.Correction>
-0.7650

> <Gold.Goldscore.Hbonds>
donor molecule, donor type, donor heavy atom, donor atom, acceptor molecule, acceptor atom, score
      P1  H  5420  5429       L1    11  0.49
      L1  H     8    22       P1   534  1.00
      L1  H    10    23       P1  4274  0.30

> <Gold.Goldscore.Internal.Vdw.Weighted>
-4.0176

> <Gold.Goldscore.Internal.Torsion.Weighted>
-0.3670

> <Gold.Goldscore.External.Vdw.Weighted>
16.0871

> <Gold.Goldscore.Internal.HBond.Weighted>
0.0000

> <Gold.Goldscore.External.HBond.Weighted>
4.7594

> <Gold.Goldscore.Internal.Correction.Weighted>
-0.7650

> <Gold.Rescore>
     Score     S(PLP)   S(hbond)     S(cho)   S(metal)  DE(clash)   DE(tors)     intcor
     23.58     -25.07       0.00       0.00       0.00       1.11       0.19       ----

> <Gold.PLP.Fitness>
23.5805

> <Gold.PLP.PLP>
-25.0738

> <Gold.PLP.part.hbond>
-1.7490

> <Gold.PLP.part.metal>
0.0000

> <Gold.PLP.part.buried>
-3.8474

> <Gold.PLP.part.nonpolar>
-19.3450

> <Gold.PLP.part.repulsive>
0.0676

> <Gold.PLP.ligand.clash>
1.1089

> <Gold.PLP.ligand.torsion>
0.1922

> <Gold.PLP.Chemscore.Hbond>
0.0000

> <Gold.PLP.Chemscore.CHOScore>
0.0000

> <Gold.PLP.Chemscore.Metal>
0.0000

> <Gold.Chemscore.Hbonds>
donor molecule, donor type, donor heavy atom, donor atom, acceptor molecule, acceptor atom, score
      L1  H     8    22       P1   534  1.00
      L1  H    10    23       P1  4274  0.02
      P1  H  5420  5429       L1    11  1.00

> <Gold.PLP.Chemscore.Internal.Correction>
   9.000000E+99

