#       Name:                CT1002167954
#       Creating user name   hitesit
#       Creation time:       Sun Apr 16 02:23:46 2023


#       File generated by GOLD software.
#

@<TRIPOS>MOLECULE
CT1002167954|ligand_prepared|mol2|1|dock3
    29    30     1
SMALL
NO_CHARGES


@<TRIPOS>ATOM
      1 C1         -14.1231   0.0047 -26.1065 C.3            1 RES1               0.0000
      2 C2         -12.7340   0.3619 -26.6737 C.ar           1 RES1               0.0000
      3 C3         -14.0358  -1.4460 -25.6415 C.2            1 RES1               0.0000
      4 C4         -14.3956   1.0019 -24.9859 C.2            1 RES1               0.0000
      5 C5         -15.2685   0.1214 -27.1390 C.3            1 RES1               0.0000
      6 C6         -11.6797   0.6753 -25.8212 C.ar           1 RES1               0.0000
      7 C7         -12.4914   0.3795 -28.0447 C.ar           1 RES1               0.0000
      8 N8         -13.9850  -1.6769 -24.2983 N.am           1 RES1               0.0000
      9 O9         -13.9727  -2.3709 -26.4419 O.2            1 RES1               0.0000
     10 N10        -14.4798   0.5216 -23.7053 N.am           1 RES1               0.0000
     11 O11        -14.5218   2.2016 -25.1984 O.2            1 RES1               0.0000
     12 C12        -16.6568   0.1066 -26.5189 C.3            1 RES1               0.0000
     13 C13        -10.4274   0.9921 -26.3208 C.ar           1 RES1               0.0000
     14 C14        -11.2383   0.6968 -28.5422 C.ar           1 RES1               0.0000
     15 C15        -14.2563  -0.7683 -23.3071 C.2            1 RES1               0.0000
     16 C16        -10.2057   1.0026 -27.6815 C.ar           1 RES1               0.0000
     17 O17        -14.2967  -1.1129 -22.1295 O.2            1 RES1               0.0000
     18 H18        -15.1429   1.0547 -27.7016 H              1 RES1               0.0000
     19 H19        -15.1901  -0.7112 -27.8490 H              1 RES1               0.0000
     20 H20        -11.8359   0.6746 -24.7476 H              1 RES1               0.0000
     21 H21        -13.2891   0.1433 -28.7407 H              1 RES1               0.0000
     22 H22        -13.7208  -2.6116 -24.0036 H              1 RES1               0.0000
     23 H23        -14.7325   1.1872 -22.9819 H              1 RES1               0.0000
     24 H24        -17.4231   0.1911 -27.2866 H              1 RES1               0.0000
     25 H25        -16.8253  -0.8189 -25.9724 H              1 RES1               0.0000
     26 H26        -16.7785   0.9365 -25.8258 H              1 RES1               0.0000
     27 H27         -9.6184   1.2333 -25.6392 H              1 RES1               0.0000
     28 H28        -11.0685   0.7045 -29.6138 H              1 RES1               0.0000
     29 H29         -9.2244   1.2504 -28.0726 H              1 RES1               0.0000
@<TRIPOS>BOND
    1    1    2 1     
    2    1    3 1     
    3    1    4 1     
    4    1    5 1     
    5    2    6 ar    
    6    2    7 ar    
    7    3    8 1     
    8    3    9 2     
    9    4   10 1     
   10    4   11 2     
   11    5   12 1     
   12    5   18 1     
   13    5   19 1     
   14    6   13 ar    
   15    6   20 1     
   16    7   14 ar    
   17    7   21 1     
   18    8   15 1     
   19    8   22 1     
   20   10   15 1     
   21   10   23 1     
   22   12   24 1     
   23   12   25 1     
   24   12   26 1     
   25   13   16 ar    
   26   13   27 1     
   27   14   16 ar    
   28   14   28 1     
   29   15   17 2     
   30   16   29 1     
@<TRIPOS>SUBSTRUCTURE
      1 RES1           1
@<TRIPOS>SET
DONOR_HYDROGENS      STATIC     ATOMS    <user>   **** ""
2 22 23
ATOM$RED        STATIC     ATOMS    COLORGROUP SYSTEM
2 22 23
@<TRIPOS>COMMENT
> <Gold.Version>
2022.3.0

> <Gold.Id.Protein>
unknown|7kl0_clean|pdb

> <Gold.Protein.RotatedTorsions>
[ 6442 6424 6423 6421 ] final -166.50 input   59.99 | X-H torsion
[ 6434 6413 6414 6415 ] final   51.36 input   40.09 | X-H torsion
[ 6240 6222 6221 6219 ] final -140.85 input   60.01 | X-H torsion
[ 7213 7207 7208 7209 ] final  122.86 input  101.61 | X-H torsion
[ 7269 7260 7261 7262 ] final  -17.68 input  118.90 | X-H torsion
[ 7309 7295 7296 7297 ] final   23.80 input   89.68 | X-H torsion
[ 7217 7212 7211 7208 ] final  -18.57 input   60.02 | X-H torsion
[ 6577 6553 6554 6555 ] final    7.14 input   19.71 | X-H torsion
[ 6607 6595 6596 6597 ] final  148.37 input   28.67 | X-H torsion
[ 6530 6510 6511 6512 ] final -123.93 input   51.84 | X-H torsion
[ 6635 6620 6621 6622 ] final  155.57 input  122.94 | X-H torsion
[ 1420 1410 1409 1406 ] final  -40.98 input   60.02 | X-H torsion
[ 1287 1275 1273 1270 ] final  -33.99 input   60.01 | X-H torsion
[ 6398 6391 6392 6393 ] final   49.14 input  -98.70 | X-H torsion
[ 5429 5420 5419 5417 ] final  179.70 input   59.99 | X-H torsion
[ 3115 3099 3100 3101 ] final  -24.36 input  111.82 | X-H torsion
[ 2982 2971 2972 2973 ] final  -95.77 input  134.80 | X-H torsion
[ 3018 3009 3010 3011 ] final  -43.11 input  114.19 | X-H torsion
[ 6268 6249 6250 6251 ] final   76.58 input  122.80 | X-H torsion
[ 6306 6287 6288 6289 ] final  -50.46 input  127.97 | X-H torsion
[ 3081 3062 3063 3064 ] final   13.46 input  114.53 | X-H torsion
[ 3139 3129 3130 3131 ] final   39.55 input  112.52 | X-H torsion
[ 4214 4203 4202 4201 ] final  -74.87 input   60.00 | X-H torsion
[ 4281 4267 4268 4269 ] final  156.22 input  109.79 | X-H torsion
[ 5391 5387 5388 5389 ] final  104.67 input  115.86 | X-H torsion
[ 1596 1580 1579 1578 ] final  141.51 input   59.99 | X-H torsion
[ 5347 5340 5338 5335 ] final  161.22 input   60.02 | X-H torsion
[  607  596  595  592 ] final  165.63 input   60.02 | X-H torsion
[ 2916 2901 2902 2903 ] final  -58.91 input  112.69 | X-H torsion
[ 4310 4296 4297 4298 ] final  -92.04 input   86.41 | X-H torsion
[ 2946 2930 2931 2932 ] final   -4.39 input  126.41 | X-H torsion
[ 3050 3038 3039 3040 ] final  152.74 input  116.07 | X-H torsion
[ 5341 5334 5335 5336 ] final   -9.33 input   67.75 | X-H torsion
[ 5421 5409 5410 5411 ] final   81.95 input   64.82 | X-H torsion
[ 5455 5447 5448 5449 ] final   -5.22 input  110.01 | X-H torsion
[ 6852 6834 6833 6831 ] final -151.09 input   59.99 | X-H torsion
[ 5322 5317 5318 5319 ] final -168.25 input  -36.16 | X-H torsion
[ 4142 4128 4129 4130 ] final  126.02 input   37.30 | X-H torsion
[ 4847 4839 4840 4841 ] final  149.08 input   74.58 | X-H torsion
[ 4166 4156 4157 4158 ] final -140.77 input  113.65 | X-H torsion
[ 4204 4195 4196 4197 ] final   29.76 input    7.17 | X-H torsion
[ 4825 4821 4822 4823 ] final   36.09 input  114.67 | X-H torsion
[ 5308 5298 5299 5300 ] final  109.42 input   26.27 | X-H torsion
[ 1613 1589 1588 1587 ] final -178.94 input   59.99 | X-H torsion
[ 5284 5264 5265 5266 ] final  -28.96 input   91.93 | X-H torsion
[ 4879 4874 4875 4876 ] final  131.79 input  114.78 | X-H torsion
[ 5250 5243 5244 5245 ] final -113.47 input  -68.46 | X-H torsion
[ 5710 5690 5689 5688 ] final  -99.36 input   60.02 | X-H torsion
[ 7345 7337 7338 7339 ] final  -38.20 input  116.36 | X-H torsion
[ 3215 3201 3202 3203 ] final  -10.59 input -100.55 | X-H torsion
[ 4227 4194 4193 4192 ] final   44.54 input   60.00 | X-H torsion
[  546  536  537  538 ] final   -3.87 input  119.99 | X-H torsion
[ 6843 6822 6821 6819 ] final -173.41 input   59.97 | X-H torsion
[ 5806 5788 5787 5785 ] final  -63.79 input   59.97 | X-H torsion
[ 8545 6453 6452 6451 ] final  -97.13 input   -0.00 | X-H torsion
[ 8553 6365 6364 6363 ] final   65.85 input    0.00 | X-H torsion
[ 8555 6394 6393 6392 ] final  139.12 input    0.00 | X-H torsion
[ 8557 6416 6415 6414 ] final -163.21 input    0.00 | X-H torsion
[ 8560 7183 7182 7181 ] final  114.05 input   -0.00 | X-H torsion
[ 8562 7210 7209 7208 ] final  -98.33 input    0.00 | X-H torsion
[ 8569 7147 7146 7145 ] final -108.41 input    0.00 | X-H torsion
[ 8574 7233 7232 7231 ] final  148.88 input   -0.00 | X-H torsion
[ 8577 6556 6555 6554 ] final   47.53 input    0.00 | X-H torsion
[ 8581 6513 6512 6511 ] final  -72.10 input    0.00 | X-H torsion
[ 8586 6481 6480 6479 ] final -104.30 input    0.00 | X-H torsion
[ 8588 6598 6597 6596 ] final   88.36 input   -0.00 | X-H torsion
[ 8621 3102 3101 3100 ] final  113.78 input    0.00 | X-H torsion
[ 8626 2974 2973 2972 ] final -140.71 input   -0.00 | X-H torsion
[ 8633 3065 3064 3063 ] final   -4.31 input    0.00 | X-H torsion
[ 8635 3204 3203 3202 ] final   11.06 input   -0.00 | X-H torsion
[ 8637 6252 6251 6250 ] final   40.57 input    0.00 | X-H torsion
[ 8646 6101 6100 6099 ] final -144.88 input    0.00 | X-H torsion
[ 8648 6134 6133 6132 ] final  156.04 input    0.00 | X-H torsion
[ 8650 2933 2932 2931 ] final  131.81 input    0.00 | X-H torsion
[ 8652 3012 3011 3010 ] final -125.52 input    0.00 | X-H torsion
[ 8658 6623 6622 6621 ] final -168.94 input    0.00 | X-H torsion
[ 8674 4240 4239 4238 ] final  -70.55 input    0.00 | X-H torsion
[ 8676 4270 4269 4268 ] final -167.91 input    0.00 | X-H torsion
[ 8687 2904 2903 2902 ] final   65.83 input    0.00 | X-H torsion
[ 8698 5337 5336 5335 ] final  162.91 input    0.00 | X-H torsion
[ 8700 5320 5319 5318 ] final  -14.28 input    0.00 | X-H torsion
[ 8702 5365 5364 5363 ] final  -74.77 input   -0.00 | X-H torsion
[ 8705 5390 5389 5388 ] final   -1.57 input   -0.00 | X-H torsion
[ 8711 4131 4130 4129 ] final  179.12 input    0.00 | X-H torsion
[ 8713 5301 5300 5299 ] final  105.57 input    0.00 | X-H torsion
[ 8715 4086 4085 4084 ] final  -28.28 input    0.00 | X-H torsion
[ 8723 4764 4763 4762 ] final -120.73 input    0.00 | X-H torsion
[ 8726 4159 4158 4157 ] final  -56.63 input    0.00 | X-H torsion
[ 8729  485  484  483 ] final  -98.44 input    0.00 | X-H torsion
[ 8732 5267 5266 5265 ] final -167.69 input    0.00 | X-H torsion
[ 8736 4824 4823 4822 ] final   74.31 input   -0.00 | X-H torsion
[ 8738 4842 4841 4840 ] final  -45.25 input    0.00 | X-H torsion
[ 8742 5246 5245 5244 ] final   44.94 input    0.00 | X-H torsion
[ 8753 5213 5212 5211 ] final  -61.78 input   -0.00 | X-H torsion
[ 8756 4877 4876 4875 ] final  -76.41 input    0.00 | X-H torsion

> <Gold.Protein.ActiveResidues>
 GLU18   GLY20   LYS21   GLY22   ALA23   PHE24   SER25   VAL26   VAL27   ARG28  
 ILE43   ILE44   ASN45   THR46   LYS47   LYS48   LEU49   SER50   ARG52   ASP53  
 LYS56   ARG59   GLY83   HIS84   GLY95   GLU96   LEU97   PHE98   GLU99   ASP100 
 ILE101  VAL102  ALA103  GLU105  TYR106  HIS133  ARG134  ASN135  LEU136  LYS137 
 PRO138  GLU139  ASN140  ASP156  GLY158  LEU159  ALA160  ILE161  TRP170  PHE171 
 GLY172  PHE173  ALA174  GLY175  THR176  PRO177  GLY178  TYR179  LEU180  VAL184 
 LYS187  TYR190  VAL201  ILE202  TYR204  ILE205  LEU206  VAL208  GLY209  TYR210 
 PRO211  PRO212  PHE213  TRP214  ASP215  GLU216  ASP217  GLN218  HIS219  LEU221 
 TYR222  GLN224  ILE225  ASP231  PHE232  PRO233  SER234  PRO235  GLU236  TRP237 
 ASP238 

> <Gold.Protein.RotatedAtoms>
  -11.9191  -17.6034  -19.8290 H   0  0  0  0  0  0  0  0  0  0  0  0  # atno 546  bound_to 536 
    6.4563  -16.7816  -22.6750 H   0  0  0  0  0  0  0  0  0  0  0  0  # atno 607  bound_to 596 
   15.8490  -17.5538  -29.9020 H   0  0  0  0  0  0  0  0  0  0  0  0  # atno 1287 bound_to 1275
   12.9685   -6.6971  -28.0183 H   0  0  0  0  0  0  0  0  0  0  0  0  # atno 1420 bound_to 1410
    7.7447   -6.3221  -22.5050 H   0  0  0  0  0  0  0  0  0  0  0  0  # atno 1596 bound_to 1580
    8.1125   -5.0427  -21.5176 H   0  0  0  0  0  0  0  0  0  0  0  0  # atno 1597 bound_to 1580
    8.8822   -5.2126  -22.9759 H   0  0  0  0  0  0  0  0  0  0  0  0  # atno 1598 bound_to 1580
  -18.0557  -11.9055  -25.9061 H   0  0  0  0  0  0  0  0  0  0  0  0  # atno 1613 bound_to 1589
  -19.1131  -10.7859  -25.2918 H   0  0  0  0  0  0  0  0  0  0  0  0  # atno 1614 bound_to 1589
  -18.7062  -12.1208  -24.3969 H   0  0  0  0  0  0  0  0  0  0  0  0  # atno 1615 bound_to 1589
   -1.5169  -25.6475  -33.5254 H   0  0  0  0  0  0  0  0  0  0  0  0  # atno 2916 bound_to 2901
   -1.1572  -22.4507  -35.0658 H   0  0  0  0  0  0  0  0  0  0  0  0  # atno 2946 bound_to 2930
   -0.0439  -20.5106  -36.7301 H   0  0  0  0  0  0  0  0  0  0  0  0  # atno 2982 bound_to 2971
    2.4887  -20.7135  -35.0386 H   0  0  0  0  0  0  0  0  0  0  0  0  # atno 3018 bound_to 3009
    2.8322  -23.5583  -35.6534 H   0  0  0  0  0  0  0  0  0  0  0  0  # atno 3050 bound_to 3038
    4.6564  -21.5305  -37.1903 H   0  0  0  0  0  0  0  0  0  0  0  0  # atno 3081 bound_to 3062
    6.3279  -20.2406  -37.5544 H   0  0  0  0  0  0  0  0  0  0  0  0  # atno 3115 bound_to 3099
    7.6226  -21.2513  -36.9140 H   0  0  0  0  0  0  0  0  0  0  0  0  # atno 3139 bound_to 3129
    8.6584  -20.2965  -40.1594 H   0  0  0  0  0  0  0  0  0  0  0  0  # atno 3215 bound_to 3201
  -13.3960  -12.8175  -35.0360 H   0  0  0  0  0  0  0  0  0  0  0  0  # atno 4142 bound_to 4128
  -11.0078  -14.2990  -36.2000 H   0  0  0  0  0  0  0  0  0  0  0  0  # atno 4166 bound_to 4156
   -7.3326  -15.9292  -36.3618 H   0  0  0  0  0  0  0  0  0  0  0  0  # atno 4204 bound_to 4195
   -5.3211  -13.7439  -29.9754 H   0  0  0  0  0  0  0  0  0  0  0  0  # atno 4214 bound_to 4203
   -6.4253  -12.6535  -30.5583 H   0  0  0  0  0  0  0  0  0  0  0  0  # atno 4215 bound_to 4203
   -6.9284  -13.9183  -29.6118 H   0  0  0  0  0  0  0  0  0  0  0  0  # atno 4216 bound_to 4203
   -3.3988  -11.0891  -15.1815 H   0  0  0  0  0  0  0  0  0  0  0  0  # atno 4227 bound_to 4194
   -2.5026  -12.2129  -16.0072 H   0  0  0  0  0  0  0  0  0  0  0  0  # atno 4228 bound_to 4194
   -4.0486  -12.5732  -15.5303 H   0  0  0  0  0  0  0  0  0  0  0  0  # atno 4229 bound_to 4194
   -2.7686  -17.1892  -34.0542 H   0  0  0  0  0  0  0  0  0  0  0  0  # atno 4281 bound_to 4267
   -5.3097  -19.5041  -33.1434 H   0  0  0  0  0  0  0  0  0  0  0  0  # atno 4310 bound_to 4296
  -15.4767  -17.4432  -30.9567 H   0  0  0  0  0  0  0  0  0  0  0  0  # atno 4825 bound_to 4821
  -15.3855  -15.3949  -29.9214 H   0  0  0  0  0  0  0  0  0  0  0  0  # atno 4847 bound_to 4839
  -17.2921  -15.6875  -32.3039 H   0  0  0  0  0  0  0  0  0  0  0  0  # atno 4879 bound_to 4874
  -21.2330   -3.5934  -32.8098 H   0  0  0  0  0  0  0  0  0  0  0  0  # atno 5250 bound_to 5243
  -18.1109   -4.5225  -30.5687 H   0  0  0  0  0  0  0  0  0  0  0  0  # atno 5284 bound_to 5264
  -16.0450   -5.8079  -31.2245 H   0  0  0  0  0  0  0  0  0  0  0  0  # atno 5308 bound_to 5298
  -13.3430   -8.3342  -31.3892 H   0  0  0  0  0  0  0  0  0  0  0  0  # atno 5322 bound_to 5317
   -9.2658   -8.1305  -32.6435 H   0  0  0  0  0  0  0  0  0  0  0  0  # atno 5341 bound_to 5334
   -7.4472  -12.0959  -31.4924 H   0  0  0  0  0  0  0  0  0  0  0  0  # atno 5347 bound_to 5340
   -3.8306   -7.3402  -32.9928 H   0  0  0  0  0  0  0  0  0  0  0  0  # atno 5391 bound_to 5387
   -5.3812   -7.7963  -34.9240 H   0  0  0  0  0  0  0  0  0  0  0  0  # atno 5421 bound_to 5409
   -1.0514  -12.3302  -34.8570 H   0  0  0  0  0  0  0  0  0  0  0  0  # atno 5429 bound_to 5420
   -6.9504   -6.3694  -37.1210 H   0  0  0  0  0  0  0  0  0  0  0  0  # atno 5455 bound_to 5447
  -13.8984    1.9369  -30.4227 H   0  0  0  0  0  0  0  0  0  0  0  0  # atno 5710 bound_to 5690
  -14.2081    3.5513  -30.2158 H   0  0  0  0  0  0  0  0  0  0  0  0  # atno 5711 bound_to 5690
  -14.4086    2.5011  -28.9499 H   0  0  0  0  0  0  0  0  0  0  0  0  # atno 5712 bound_to 5690
  -19.3078   -6.6155  -34.5412 H   0  0  0  0  0  0  0  0  0  0  0  0  # atno 5806 bound_to 5788
    4.8713   -5.0295  -44.6972 H   0  0  0  0  0  0  0  0  0  0  0  0  # atno 6240 bound_to 6222
    0.8296  -12.5674  -43.1289 H   0  0  0  0  0  0  0  0  0  0  0  0  # atno 6268 bound_to 6249
    2.9256  -14.5443  -42.7878 H   0  0  0  0  0  0  0  0  0  0  0  0  # atno 6306 bound_to 6287
    7.3292  -13.0042  -42.5874 H   0  0  0  0  0  0  0  0  0  0  0  0  # atno 6398 bound_to 6391
    6.5238  -11.7014  -41.2481 H   0  0  0  0  0  0  0  0  0  0  0  0  # atno 6434 bound_to 6413
    9.1844   -7.6102  -44.5179 H   0  0  0  0  0  0  0  0  0  0  0  0  # atno 6442 bound_to 6424
    1.7556   -4.3874  -40.3118 H   0  0  0  0  0  0  0  0  0  0  0  0  # atno 6530 bound_to 6510
    2.2785   -2.3340  -37.0421 H   0  0  0  0  0  0  0  0  0  0  0  0  # atno 6577 bound_to 6553
    2.2451   -1.4098  -34.2777 H   0  0  0  0  0  0  0  0  0  0  0  0  # atno 6607 bound_to 6595
    5.1233   -0.7523  -30.8192 H   0  0  0  0  0  0  0  0  0  0  0  0  # atno 6635 bound_to 6620
   -6.3337   -1.0706  -18.1189 H   0  0  0  0  0  0  0  0  0  0  0  0  # atno 6843 bound_to 6822
   -8.0656   -2.0966  -29.4601 H   0  0  0  0  0  0  0  0  0  0  0  0  # atno 6852 bound_to 6834
   12.0584   -3.0533  -48.9645 H   0  0  0  0  0  0  0  0  0  0  0  0  # atno 7213 bound_to 7207
   15.1699   -5.4416  -50.5767 H   0  0  0  0  0  0  0  0  0  0  0  0  # atno 7217 bound_to 7212
   13.3205   -7.9391  -49.1403 H   0  0  0  0  0  0  0  0  0  0  0  0  # atno 7269 bound_to 7260
   11.7741   -8.2233  -49.8769 H   0  0  0  0  0  0  0  0  0  0  0  0  # atno 7309 bound_to 7295
   10.5721   -8.6697  -52.0671 H   0  0  0  0  0  0  0  0  0  0  0  0  # atno 7345 bound_to 7337
    9.0879   -6.2093  -43.6950 LP  0  0  0  0  0  0  0  0  0  0  0  0  # atno 8537 bound_to 6424
    7.7534   -6.8458  -44.3882 LP  0  0  0  0  0  0  0  0  0  0  0  0  # atno 8538 bound_to 6424
    6.5886  -12.8454  -39.9217 LP  0  0  0  0  0  0  0  0  0  0  0  0  # atno 8543 bound_to 6413
    4.0751   -5.9307  -39.1845 LP  0  0  0  0  0  0  0  0  0  0  0  0  # atno 8545 bound_to 6453
    4.9152   -6.8442  -40.3927 LP  0  0  0  0  0  0  0  0  0  0  0  0  # atno 8546 bound_to 6453
    5.8864   -6.1843  -45.2310 LP  0  0  0  0  0  0  0  0  0  0  0  0  # atno 8551 bound_to 6222
    5.6684   -5.9621  -43.6279 LP  0  0  0  0  0  0  0  0  0  0  0  0  # atno 8552 bound_to 6222
    9.1726  -12.0808  -42.4215 LP  0  0  0  0  0  0  0  0  0  0  0  0  # atno 8553 bound_to 6365
    9.4256  -13.7639  -42.1005 LP  0  0  0  0  0  0  0  0  0  0  0  0  # atno 8554 bound_to 6365
    7.7318  -12.7863  -38.1508 LP  0  0  0  0  0  0  0  0  0  0  0  0  # atno 8555 bound_to 6394
    6.8153  -14.2512  -38.2698 LP  0  0  0  0  0  0  0  0  0  0  0  0  # atno 8556 bound_to 6394
    4.0148   -9.4434  -41.4173 LP  0  0  0  0  0  0  0  0  0  0  0  0  # atno 8557 bound_to 6416
    5.0590  -10.8120  -41.6085 LP  0  0  0  0  0  0  0  0  0  0  0  0  # atno 8558 bound_to 6416
   10.7159   -6.2444  -48.9344 LP  0  0  0  0  0  0  0  0  0  0  0  0  # atno 8560 bound_to 7183
   10.8800   -6.2718  -47.2103 LP  0  0  0  0  0  0  0  0  0  0  0  0  # atno 8561 bound_to 7183
   14.9806   -3.8097  -46.8219 LP  0  0  0  0  0  0  0  0  0  0  0  0  # atno 8562 bound_to 7210
   13.5385   -4.6250  -46.3162 LP  0  0  0  0  0  0  0  0  0  0  0  0  # atno 8563 bound_to 7210
   11.6105   -4.4363  -47.9741 LP  0  0  0  0  0  0  0  0  0  0  0  0  # atno 8566 bound_to 7207
   14.0477   -8.2807  -47.5886 LP  0  0  0  0  0  0  0  0  0  0  0  0  # atno 8568 bound_to 7260
    9.2643   -4.5383  -50.0726 LP  0  0  0  0  0  0  0  0  0  0  0  0  # atno 8569 bound_to 7147
    8.4317   -3.0224  -50.1672 LP  0  0  0  0  0  0  0  0  0  0  0  0  # atno 8570 bound_to 7147
   10.8331   -9.0946  -48.6833 LP  0  0  0  0  0  0  0  0  0  0  0  0  # atno 8571 bound_to 7295
   15.8391   -4.0587  -51.1129 LP  0  0  0  0  0  0  0  0  0  0  0  0  # atno 8572 bound_to 7212
   14.5607   -4.7074  -51.8949 LP  0  0  0  0  0  0  0  0  0  0  0  0  # atno 8573 bound_to 7212
   13.4644   -9.5635  -50.6736 LP  0  0  0  0  0  0  0  0  0  0  0  0  # atno 8574 bound_to 7233
   13.8277   -8.0300  -51.3922 LP  0  0  0  0  0  0  0  0  0  0  0  0  # atno 8575 bound_to 7233
    1.5965   -3.9477  -37.0391 LP  0  0  0  0  0  0  0  0  0  0  0  0  # atno 8576 bound_to 6553
    3.4854   -1.1724  -36.3433 LP  0  0  0  0  0  0  0  0  0  0  0  0  # atno 8577 bound_to 6556
    4.6087   -0.9483  -35.0441 LP  0  0  0  0  0  0  0  0  0  0  0  0  # atno 8578 bound_to 6556
   -0.1218   -5.2382  -36.3979 LP  0  0  0  0  0  0  0  0  0  0  0  0  # atno 8581 bound_to 6513
    1.4567   -5.9167  -36.6175 LP  0  0  0  0  0  0  0  0  0  0  0  0  # atno 8582 bound_to 6513
    2.6707   -2.6339  -33.0937 LP  0  0  0  0  0  0  0  0  0  0  0  0  # atno 8583 bound_to 6595
    0.9169   -5.6313  -39.4002 LP  0  0  0  0  0  0  0  0  0  0  0  0  # atno 8585 bound_to 6510
    3.0519   -2.9436  -40.5651 LP  0  0  0  0  0  0  0  0  0  0  0  0  # atno 8586 bound_to 6481
    1.7466   -2.8475  -41.6996 LP  0  0  0  0  0  0  0  0  0  0  0  0  # atno 8587 bound_to 6481
    2.0785   -2.5213  -30.7546 LP  0  0  0  0  0  0  0  0  0  0  0  0  # atno 8588 bound_to 6598
    1.3994   -0.9683  -30.3983 LP  0  0  0  0  0  0  0  0  0  0  0  0  # atno 8589 bound_to 6598
    3.3960   -0.4353  -30.8078 LP  0  0  0  0  0  0  0  0  0  0  0  0  # atno 8590 bound_to 6620
   12.1399   -5.3073  -28.1883 LP  0  0  0  0  0  0  0  0  0  0  0  0  # atno 8605 bound_to 1410
   13.6767   -5.2829  -27.6367 LP  0  0  0  0  0  0  0  0  0  0  0  0  # atno 8606 bound_to 1410
   17.0420  -17.4852  -28.7972 LP  0  0  0  0  0  0  0  0  0  0  0  0  # atno 8617 bound_to 1275
   17.1463  -16.6088  -30.1712 LP  0  0  0  0  0  0  0  0  0  0  0  0  # atno 8618 bound_to 1275
   10.3580  -19.7497  -35.6647 LP  0  0  0  0  0  0  0  0  0  0  0  0  # atno 8621 bound_to 3102
    9.8295  -19.1213  -37.1898 LP  0  0  0  0  0  0  0  0  0  0  0  0  # atno 8622 bound_to 3102
    6.0584  -14.1688  -42.8929 LP  0  0  0  0  0  0  0  0  0  0  0  0  # atno 8623 bound_to 6391
   -0.6252  -11.9669  -36.3848 LP  0  0  0  0  0  0  0  0  0  0  0  0  # atno 8624 bound_to 5420
   -1.4169  -13.3586  -36.0638 LP  0  0  0  0  0  0  0  0  0  0  0  0  # atno 8625 bound_to 5420
    4.1038  -20.2613  -35.8623 LP  0  0  0  0  0  0  0  0  0  0  0  0  # atno 8626 bound_to 2974
    3.4984  -18.6923  -35.4480 LP  0  0  0  0  0  0  0  0  0  0  0  0  # atno 8627 bound_to 2974
    5.2298  -19.3809  -36.4967 LP  0  0  0  0  0  0  0  0  0  0  0  0  # atno 8632 bound_to 3099
    7.0488  -19.3434  -39.7728 LP  0  0  0  0  0  0  0  0  0  0  0  0  # atno 8633 bound_to 3065
    7.9236  -18.9204  -38.3390 LP  0  0  0  0  0  0  0  0  0  0  0  0  # atno 8634 bound_to 3065
    8.3927  -16.3919  -39.9301 LP  0  0  0  0  0  0  0  0  0  0  0  0  # atno 8635 bound_to 3204
    7.4745  -16.6100  -41.3824 LP  0  0  0  0  0  0  0  0  0  0  0  0  # atno 8636 bound_to 3204
    4.6821  -14.5443  -41.5102 LP  0  0  0  0  0  0  0  0  0  0  0  0  # atno 8637 bound_to 6252
    4.7836  -15.0480  -43.1642 LP  0  0  0  0  0  0  0  0  0  0  0  0  # atno 8638 bound_to 6252
   -0.4180  -21.1675  -35.1458 LP  0  0  0  0  0  0  0  0  0  0  0  0  # atno 8639 bound_to 2971
    1.5515  -21.4415  -33.7435 LP  0  0  0  0  0  0  0  0  0  0  0  0  # atno 8640 bound_to 3009
    2.1627  -11.4597  -43.3927 LP  0  0  0  0  0  0  0  0  0  0  0  0  # atno 8644 bound_to 6249
    1.2745  -14.6766  -43.3564 LP  0  0  0  0  0  0  0  0  0  0  0  0  # atno 8645 bound_to 6287
   -0.4703  -11.8314  -42.5907 LP  0  0  0  0  0  0  0  0  0  0  0  0  # atno 8646 bound_to 6101
   -0.4341  -10.3689  -41.6636 LP  0  0  0  0  0  0  0  0  0  0  0  0  # atno 8647 bound_to 6101
   -0.1433  -15.0889  -43.7768 LP  0  0  0  0  0  0  0  0  0  0  0  0  # atno 8648 bound_to 6134
   -0.0514  -14.4794  -42.1581 LP  0  0  0  0  0  0  0  0  0  0  0  0  # atno 8649 bound_to 6134
    1.9035  -20.5301  -37.6331 LP  0  0  0  0  0  0  0  0  0  0  0  0  # atno 8650 bound_to 2933
    1.9279  -22.2534  -37.4606 LP  0  0  0  0  0  0  0  0  0  0  0  0  # atno 8651 bound_to 2933
    6.0703  -22.1040  -35.8238 LP  0  0  0  0  0  0  0  0  0  0  0  0  # atno 8652 bound_to 3012
    6.1345  -22.9367  -34.3065 LP  0  0  0  0  0  0  0  0  0  0  0  0  # atno 8653 bound_to 3012
    3.5924  -21.8473  -38.5450 LP  0  0  0  0  0  0  0  0  0  0  0  0  # atno 8654 bound_to 3062
    8.1638  -20.8710  -35.2897 LP  0  0  0  0  0  0  0  0  0  0  0  0  # atno 8655 bound_to 3129
   -3.8010  -18.2736  -34.9658 LP  0  0  0  0  0  0  0  0  0  0  0  0  # atno 8656 bound_to 4267
   -4.4909   -5.8003  -33.4967 LP  0  0  0  0  0  0  0  0  0  0  0  0  # atno 8657 bound_to 5387
    1.6960   -0.0604  -26.8845 LP  0  0  0  0  0  0  0  0  0  0  0  0  # atno 8658 bound_to 6623
    3.0171   -1.1583  -26.6629 LP  0  0  0  0  0  0  0  0  0  0  0  0  # atno 8659 bound_to 6623
   -8.6171  -10.9880  -31.2643 LP  0  0  0  0  0  0  0  0  0  0  0  0  # atno 8668 bound_to 5340
   -7.4165  -11.1491  -30.1692 LP  0  0  0  0  0  0  0  0  0  0  0  0  # atno 8669 bound_to 5340
    5.3542  -17.4524  -23.6664 LP  0  0  0  0  0  0  0  0  0  0  0  0  # atno 8672 bound_to 596 
    6.0126  -16.0038  -24.0335 LP  0  0  0  0  0  0  0  0  0  0  0  0  # atno 8673 bound_to 596 
   -3.6655  -20.2723  -35.9731 LP  0  0  0  0  0  0  0  0  0  0  0  0  # atno 8674 bound_to 4240
   -2.2107  -20.2856  -35.0332 LP  0  0  0  0  0  0  0  0  0  0  0  0  # atno 8675 bound_to 4240
   -5.8890  -21.1853  -32.5444 LP  0  0  0  0  0  0  0  0  0  0  0  0  # atno 8676 bound_to 4270
   -4.4493  -20.8406  -31.6453 LP  0  0  0  0  0  0  0  0  0  0  0  0  # atno 8677 bound_to 4270
   -1.0371  -24.8187  -32.0609 LP  0  0  0  0  0  0  0  0  0  0  0  0  # atno 8686 bound_to 2901
    0.5813  -24.5494  -34.8336 LP  0  0  0  0  0  0  0  0  0  0  0  0  # atno 8687 bound_to 2904
    1.0022  -22.8818  -35.0385 LP  0  0  0  0  0  0  0  0  0  0  0  0  # atno 8688 bound_to 2904
   -5.5883  -18.1842  -34.2702 LP  0  0  0  0  0  0  0  0  0  0  0  0  # atno 8689 bound_to 4296
   -2.3044  -23.3208  -36.0622 LP  0  0  0  0  0  0  0  0  0  0  0  0  # atno 8694 bound_to 2930
    4.0488  -22.2977  -35.5727 LP  0  0  0  0  0  0  0  0  0  0  0  0  # atno 8695 bound_to 3038
   -9.5126   -9.6842  -31.8636 LP  0  0  0  0  0  0  0  0  0  0  0  0  # atno 8697 bound_to 5334
   -6.6717   -6.6679  -33.9625 LP  0  0  0  0  0  0  0  0  0  0  0  0  # atno 8698 bound_to 5337
   -7.1831   -8.3153  -34.1194 LP  0  0  0  0  0  0  0  0  0  0  0  0  # atno 8699 bound_to 5337
  -10.7486   -8.0065  -29.6441 LP  0  0  0  0  0  0  0  0  0  0  0  0  # atno 8700 bound_to 5320
   -9.0947   -8.5171  -29.5819 LP  0  0  0  0  0  0  0  0  0  0  0  0  # atno 8701 bound_to 5320
   -6.0832   -5.0339  -34.8208 LP  0  0  0  0  0  0  0  0  0  0  0  0  # atno 8702 bound_to 5365
   -4.6244   -4.1267  -34.5994 LP  0  0  0  0  0  0  0  0  0  0  0  0  # atno 8703 bound_to 5365
   -4.4296   -6.9922  -36.1640 LP  0  0  0  0  0  0  0  0  0  0  0  0  # atno 8704 bound_to 5409
   -2.6158   -6.4212  -37.3583 LP  0  0  0  0  0  0  0  0  0  0  0  0  # atno 8705 bound_to 5390
   -4.0449   -7.0918  -38.0711 LP  0  0  0  0  0  0  0  0  0  0  0  0  # atno 8706 bound_to 5390
   -7.2343   -6.8540  -35.4649 LP  0  0  0  0  0  0  0  0  0  0  0  0  # atno 8707 bound_to 5447
   -6.4898   -2.4967  -29.3863 LP  0  0  0  0  0  0  0  0  0  0  0  0  # atno 8708 bound_to 6834
   -7.4413   -3.1270  -30.5543 LP  0  0  0  0  0  0  0  0  0  0  0  0  # atno 8709 bound_to 6834
  -12.1358   -7.6460  -30.3189 LP  0  0  0  0  0  0  0  0  0  0  0  0  # atno 8710 bound_to 5317
   -9.0075  -15.2365  -34.9563 LP  0  0  0  0  0  0  0  0  0  0  0  0  # atno 8711 bound_to 4131
   -9.7323  -14.5201  -33.5558 LP  0  0  0  0  0  0  0  0  0  0  0  0  # atno 8712 bound_to 4131
  -13.0347   -6.3842  -33.1247 LP  0  0  0  0  0  0  0  0  0  0  0  0  # atno 8713 bound_to 5301
  -14.2307   -7.6201  -33.3300 LP  0  0  0  0  0  0  0  0  0  0  0  0  # atno 8714 bound_to 5301
  -12.7868   -9.5241  -35.4974 LP  0  0  0  0  0  0  0  0  0  0  0  0  # atno 8715 bound_to 4086
  -11.9540  -10.4391  -34.2853 LP  0  0  0  0  0  0  0  0  0  0  0  0  # atno 8716 bound_to 4086
  -12.3814  -12.3764  -36.3896 LP  0  0  0  0  0  0  0  0  0  0  0  0  # atno 8717 bound_to 4128
  -16.9303  -15.9072  -30.5778 LP  0  0  0  0  0  0  0  0  0  0  0  0  # atno 8722 bound_to 4839
  -13.6496  -17.3970  -32.0397 LP  0  0  0  0  0  0  0  0  0  0  0  0  # atno 8723 bound_to 4764
  -12.5779  -18.1997  -33.1384 LP  0  0  0  0  0  0  0  0  0  0  0  0  # atno 8724 bound_to 4764
  -10.0721  -12.8461  -36.4847 LP  0  0  0  0  0  0  0  0  0  0  0  0  # atno 8725 bound_to 4156
   -7.7867  -12.3754  -37.8317 LP  0  0  0  0  0  0  0  0  0  0  0  0  # atno 8726 bound_to 4159
   -7.2443  -12.4566  -36.1888 LP  0  0  0  0  0  0  0  0  0  0  0  0  # atno 8727 bound_to 4159
   -7.4448  -14.4036  -37.2352 LP  0  0  0  0  0  0  0  0  0  0  0  0  # atno 8728 bound_to 4195
   -7.8032  -18.6307  -22.6632 LP  0  0  0  0  0  0  0  0  0  0  0  0  # atno 8729 bound_to 485 
   -8.5338  -19.9449  -23.5230 LP  0  0  0  0  0  0  0  0  0  0  0  0  # atno 8730 bound_to 485 
  -16.3477  -18.9063  -30.5374 LP  0  0  0  0  0  0  0  0  0  0  0  0  # atno 8731 bound_to 4821
  -15.2799   -6.0112  -28.3995 LP  0  0  0  0  0  0  0  0  0  0  0  0  # atno 8732 bound_to 5267
  -16.3273   -4.6427  -28.2257 LP  0  0  0  0  0  0  0  0  0  0  0  0  # atno 8733 bound_to 5267
  -14.5697   -4.9675  -30.7824 LP  0  0  0  0  0  0  0  0  0  0  0  0  # atno 8734 bound_to 5298
  -18.1239   -2.7815  -30.3672 LP  0  0  0  0  0  0  0  0  0  0  0  0  # atno 8735 bound_to 5264
  -17.3195  -15.0272  -27.6563 LP  0  0  0  0  0  0  0  0  0  0  0  0  # atno 8736 bound_to 4824
  -18.5485  -15.0260  -28.8768 LP  0  0  0  0  0  0  0  0  0  0  0  0  # atno 8737 bound_to 4824
  -18.0903  -11.9133  -31.7938 LP  0  0  0  0  0  0  0  0  0  0  0  0  # atno 8738 bound_to 4842
  -17.6708  -12.3592  -33.4141 LP  0  0  0  0  0  0  0  0  0  0  0  0  # atno 8739 bound_to 4842
  -18.4197   -4.1799  -33.4156 LP  0  0  0  0  0  0  0  0  0  0  0  0  # atno 8742 bound_to 5246
  -17.1947   -5.1076  -32.6165 LP  0  0  0  0  0  0  0  0  0  0  0  0  # atno 8743 bound_to 5246
  -17.7215  -13.9990  -32.1077 LP  0  0  0  0  0  0  0  0  0  0  0  0  # atno 8752 bound_to 4874
  -22.2088   -6.7248  -31.4728 LP  0  0  0  0  0  0  0  0  0  0  0  0  # atno 8753 bound_to 5213
  -20.5052   -6.9165  -31.7192 LP  0  0  0  0  0  0  0  0  0  0  0  0  # atno 8754 bound_to 5213
  -20.6077   -5.2285  -32.9024 LP  0  0  0  0  0  0  0  0  0  0  0  0  # atno 8755 bound_to 5243
  -20.9178  -15.2799  -32.4486 LP  0  0  0  0  0  0  0  0  0  0  0  0  # atno 8756 bound_to 4877
  -20.5509  -13.6261  -32.0876 LP  0  0  0  0  0  0  0  0  0  0  0  0  # atno 8757 bound_to 4877

> <Gold.Score>
     Fitness  S(hb_ext) S(vdw_ext)  S(hb_int)    S(int)      intcor
     17.78       1.98      11.74       0.00      -0.36      -0.78

> <Gold.Goldscore.Fitness>
17.7753

> <Gold.Goldscore.Internal.Vdw>
-0.4610

> <Gold.Goldscore.Internal.Torsion>
-0.6727

> <Gold.Goldscore.External.Vdw>
11.7440

> <Gold.Goldscore.Internal.HBond>
0.0000

> <Gold.Goldscore.External.HBond>
1.9841

> <Gold.Goldscore.Internal.Correction>
-0.7769

> <Gold.Goldscore.Hbonds>
donor molecule, donor type, donor heavy atom, donor atom, acceptor molecule, acceptor atom, score
      P1  H  6665  6683       L1    17  0.99

> <Gold.Goldscore.Internal.Vdw.Weighted>
-0.4610

> <Gold.Goldscore.Internal.Torsion.Weighted>
-0.6727

> <Gold.Goldscore.External.Vdw.Weighted>
16.1480

> <Gold.Goldscore.Internal.HBond.Weighted>
0.0000

> <Gold.Goldscore.External.HBond.Weighted>
1.9841

> <Gold.Goldscore.Internal.Correction.Weighted>
-0.7769

> <Gold.Rescore>
     Score     S(PLP)   S(hbond)     S(cho)   S(metal)  DE(clash)   DE(tors)     intcor
     21.78     -18.99       1.00       0.00       0.00       0.00       0.11       ----

> <Gold.PLP.Fitness>
21.7753

> <Gold.PLP.PLP>
-18.9884

> <Gold.PLP.part.hbond>
-1.0000

> <Gold.PLP.part.metal>
0.0000

> <Gold.PLP.part.buried>
-2.3911

> <Gold.PLP.part.nonpolar>
-15.7442

> <Gold.PLP.part.repulsive>
0.1437

> <Gold.PLP.ligand.clash>
0.0000

> <Gold.PLP.ligand.torsion>
0.1065

> <Gold.PLP.Chemscore.Hbond>
1.0000

> <Gold.PLP.Chemscore.CHOScore>
0.0000

> <Gold.PLP.Chemscore.Metal>
0.0000

> <Gold.Chemscore.Hbonds>
donor molecule, donor type, donor heavy atom, donor atom, acceptor molecule, acceptor atom, score
      P1  H  6665  6683       L1    17  0.28

> <Gold.PLP.Chemscore.Internal.Correction>
   9.000000E+99

