#       Name:                CT1002167954
#       Creating user name   hitesit
#       Creation time:       Sun Apr 16 02:24:01 2023


#       File generated by GOLD software.
#

@<TRIPOS>MOLECULE
CT1002167954|ligand_prepared|mol2|1|dock8
    29    30     1
SMALL
NO_CHARGES


@<TRIPOS>ATOM
      1 C1         -14.5783 -16.0117 -23.6126 C.3            1 RES1               0.0000
      2 C2         -13.5946 -14.9397 -23.1009 C.ar           1 RES1               0.0000
      3 C3         -14.4302 -16.0393 -25.1310 C.2            1 RES1               0.0000
      4 C4         -14.1848 -17.3146 -22.9254 C.2            1 RES1               0.0000
      5 C5         -16.0571 -15.7178 -23.2686 C.3            1 RES1               0.0000
      6 C6         -14.0271 -13.6396 -22.8572 C.ar           1 RES1               0.0000
      7 C7         -12.2546 -15.2359 -22.8657 C.ar           1 RES1               0.0000
      8 N8         -13.7739 -17.0999 -25.6827 N.am           1 RES1               0.0000
      9 O9         -14.8480 -15.1248 -25.8305 O.2            1 RES1               0.0000
     10 N10        -13.7017 -18.3319 -23.7061 N.am           1 RES1               0.0000
     11 O11        -14.2731 -17.4636 -21.7128 O.2            1 RES1               0.0000
     12 C12        -16.9829 -16.9059 -23.4772 C.3            1 RES1               0.0000
     13 C13        -13.1525 -12.6714 -22.3925 C.ar           1 RES1               0.0000
     14 C14        -11.3816 -14.2661 -22.4012 C.ar           1 RES1               0.0000
     15 C15        -13.4496 -18.2729 -25.0496 C.2            1 RES1               0.0000
     16 C16        -11.8294 -12.9840 -22.1637 C.ar           1 RES1               0.0000
     17 O17        -12.9631 -19.2122 -25.6727 O.2            1 RES1               0.0000
     18 H18        -16.1196 -15.4012 -22.2202 H              1 RES1               0.0000
     19 H19        -16.4058 -14.8849 -23.8917 H              1 RES1               0.0000
     20 H20        -15.0642 -13.3743 -23.0338 H              1 RES1               0.0000
     21 H21        -11.8798 -16.2377 -23.0466 H              1 RES1               0.0000
     22 H22        -13.4988 -17.0129 -26.6558 H              1 RES1               0.0000
     23 H23        -13.5127 -19.2150 -23.2427 H              1 RES1               0.0000
     24 H24        -18.0079 -16.6457 -23.2213 H              1 RES1               0.0000
     25 H25        -16.9649 -17.2314 -24.5152 H              1 RES1               0.0000
     26 H26        -16.6804 -17.7447 -22.8536 H              1 RES1               0.0000
     27 H27        -13.5096 -11.6635 -22.2085 H              1 RES1               0.0000
     28 H28        -10.3410 -14.5165 -22.2231 H              1 RES1               0.0000
     29 H29        -11.1446 -12.2255 -21.7993 H              1 RES1               0.0000
@<TRIPOS>BOND
    1    1    2 1     
    2    1    3 1     
    3    1    4 1     
    4    1    5 1     
    5    2    6 ar    
    6    2    7 ar    
    7    3    8 1     
    8    3    9 2     
    9    4   10 1     
   10    4   11 2     
   11    5   12 1     
   12    5   18 1     
   13    5   19 1     
   14    6   13 ar    
   15    6   20 1     
   16    7   14 ar    
   17    7   21 1     
   18    8   15 1     
   19    8   22 1     
   20   10   15 1     
   21   10   23 1     
   22   12   24 1     
   23   12   25 1     
   24   12   26 1     
   25   13   16 ar    
   26   13   27 1     
   27   14   16 ar    
   28   14   28 1     
   29   15   17 2     
   30   16   29 1     
@<TRIPOS>SUBSTRUCTURE
      1 RES1           1
@<TRIPOS>SET
DONOR_HYDROGENS      STATIC     ATOMS    <user>   **** ""
2 22 23
ATOM$RED        STATIC     ATOMS    COLORGROUP SYSTEM
2 22 23
@<TRIPOS>COMMENT
> <Gold.Version>
2022.3.0

> <Gold.Id.Protein>
unknown|7kl0_clean|pdb

> <Gold.Protein.RotatedTorsions>
[ 6442 6424 6423 6421 ] final -144.56 input   59.99 | X-H torsion
[ 6434 6413 6414 6415 ] final   44.50 input   40.09 | X-H torsion
[ 6240 6222 6221 6219 ] final   59.45 input   60.01 | X-H torsion
[ 7213 7207 7208 7209 ] final -157.47 input  101.61 | X-H torsion
[ 7269 7260 7261 7262 ] final   51.22 input  118.90 | X-H torsion
[ 7309 7295 7296 7297 ] final  -42.65 input   89.68 | X-H torsion
[ 7217 7212 7211 7208 ] final   51.38 input   60.02 | X-H torsion
[ 6577 6553 6554 6555 ] final -170.51 input   19.71 | X-H torsion
[ 6607 6595 6596 6597 ] final -156.81 input   28.67 | X-H torsion
[ 6530 6510 6511 6512 ] final  -17.03 input   51.84 | X-H torsion
[ 6635 6620 6621 6622 ] final -179.24 input  122.94 | X-H torsion
[ 1420 1410 1409 1406 ] final -128.27 input   60.02 | X-H torsion
[ 1287 1275 1273 1270 ] final  169.79 input   60.01 | X-H torsion
[ 6398 6391 6392 6393 ] final   75.86 input  -98.70 | X-H torsion
[ 5429 5420 5419 5417 ] final  171.27 input   59.99 | X-H torsion
[ 3115 3099 3100 3101 ] final   92.37 input  111.82 | X-H torsion
[ 2982 2971 2972 2973 ] final -161.78 input  134.80 | X-H torsion
[ 3018 3009 3010 3011 ] final   39.88 input  114.19 | X-H torsion
[ 6268 6249 6250 6251 ] final -141.38 input  122.80 | X-H torsion
[ 6306 6287 6288 6289 ] final    9.54 input  127.97 | X-H torsion
[ 3081 3062 3063 3064 ] final   72.58 input  114.53 | X-H torsion
[ 3139 3129 3130 3131 ] final  108.46 input  112.52 | X-H torsion
[ 4214 4203 4202 4201 ] final -125.39 input   60.00 | X-H torsion
[ 4281 4267 4268 4269 ] final  -26.37 input  109.79 | X-H torsion
[ 5391 5387 5388 5389 ] final   76.71 input  115.86 | X-H torsion
[ 1596 1580 1579 1578 ] final  155.86 input   59.99 | X-H torsion
[ 5347 5340 5338 5335 ] final  -84.62 input   60.02 | X-H torsion
[  607  596  595  592 ] final  -84.60 input   60.02 | X-H torsion
[ 2916 2901 2902 2903 ] final  116.77 input  112.69 | X-H torsion
[ 4310 4296 4297 4298 ] final  -89.24 input   86.41 | X-H torsion
[ 2946 2930 2931 2932 ] final   -2.82 input  126.41 | X-H torsion
[ 3050 3038 3039 3040 ] final   65.58 input  116.07 | X-H torsion
[ 5341 5334 5335 5336 ] final  -30.39 input   67.75 | X-H torsion
[ 5421 5409 5410 5411 ] final -134.77 input   64.82 | X-H torsion
[ 5455 5447 5448 5449 ] final   56.78 input  110.01 | X-H torsion
[ 6852 6834 6833 6831 ] final  -57.95 input   59.99 | X-H torsion
[ 5322 5317 5318 5319 ] final -166.78 input  -36.16 | X-H torsion
[ 4142 4128 4129 4130 ] final -106.00 input   37.30 | X-H torsion
[ 4847 4839 4840 4841 ] final   -4.04 input   74.58 | X-H torsion
[ 4166 4156 4157 4158 ] final   44.87 input  113.65 | X-H torsion
[ 4204 4195 4196 4197 ] final  -27.90 input    7.17 | X-H torsion
[ 4825 4821 4822 4823 ] final  -92.52 input  114.67 | X-H torsion
[ 5308 5298 5299 5300 ] final  106.62 input   26.27 | X-H torsion
[ 1613 1589 1588 1587 ] final   42.97 input   59.99 | X-H torsion
[ 5284 5264 5265 5266 ] final   30.17 input   91.93 | X-H torsion
[ 4879 4874 4875 4876 ] final  -69.32 input  114.78 | X-H torsion
[ 5250 5243 5244 5245 ] final  169.31 input  -68.46 | X-H torsion
[ 5710 5690 5689 5688 ] final  169.63 input   60.02 | X-H torsion
[ 7345 7337 7338 7339 ] final   60.25 input  116.36 | X-H torsion
[ 3215 3201 3202 3203 ] final -172.66 input -100.55 | X-H torsion
[ 4227 4194 4193 4192 ] final  150.98 input   60.00 | X-H torsion
[  546  536  537  538 ] final   55.31 input  119.99 | X-H torsion
[ 6843 6822 6821 6819 ] final -114.72 input   59.97 | X-H torsion
[ 5806 5788 5787 5785 ] final  -89.11 input   59.97 | X-H torsion
[ 8545 6453 6452 6451 ] final   24.99 input   -0.00 | X-H torsion
[ 8553 6365 6364 6363 ] final  126.56 input    0.00 | X-H torsion
[ 8555 6394 6393 6392 ] final -157.47 input    0.00 | X-H torsion
[ 8557 6416 6415 6414 ] final  -49.22 input    0.00 | X-H torsion
[ 8560 7183 7182 7181 ] final  149.06 input   -0.00 | X-H torsion
[ 8562 7210 7209 7208 ] final   99.53 input    0.00 | X-H torsion
[ 8569 7147 7146 7145 ] final   78.32 input    0.00 | X-H torsion
[ 8574 7233 7232 7231 ] final  177.76 input   -0.00 | X-H torsion
[ 8577 6556 6555 6554 ] final  -47.94 input    0.00 | X-H torsion
[ 8581 6513 6512 6511 ] final  160.08 input    0.00 | X-H torsion
[ 8586 6481 6480 6479 ] final   80.25 input    0.00 | X-H torsion
[ 8588 6598 6597 6596 ] final -144.76 input   -0.00 | X-H torsion
[ 8621 3102 3101 3100 ] final  128.07 input    0.00 | X-H torsion
[ 8626 2974 2973 2972 ] final -170.49 input   -0.00 | X-H torsion
[ 8633 3065 3064 3063 ] final   87.05 input    0.00 | X-H torsion
[ 8635 3204 3203 3202 ] final  -98.52 input   -0.00 | X-H torsion
[ 8637 6252 6251 6250 ] final   -4.15 input    0.00 | X-H torsion
[ 8646 6101 6100 6099 ] final  -74.31 input    0.00 | X-H torsion
[ 8648 6134 6133 6132 ] final  129.49 input    0.00 | X-H torsion
[ 8650 2933 2932 2931 ] final  174.25 input    0.00 | X-H torsion
[ 8652 3012 3011 3010 ] final   82.90 input    0.00 | X-H torsion
[ 8658 6623 6622 6621 ] final -102.69 input    0.00 | X-H torsion
[ 8674 4240 4239 4238 ] final  -52.29 input    0.00 | X-H torsion
[ 8676 4270 4269 4268 ] final  -64.76 input    0.00 | X-H torsion
[ 8687 2904 2903 2902 ] final   46.57 input    0.00 | X-H torsion
[ 8698 5337 5336 5335 ] final  -19.53 input    0.00 | X-H torsion
[ 8700 5320 5319 5318 ] final  -61.69 input    0.00 | X-H torsion
[ 8702 5365 5364 5363 ] final   -6.98 input   -0.00 | X-H torsion
[ 8705 5390 5389 5388 ] final   57.79 input   -0.00 | X-H torsion
[ 8711 4131 4130 4129 ] final  151.95 input    0.00 | X-H torsion
[ 8713 5301 5300 5299 ] final -157.64 input    0.00 | X-H torsion
[ 8715 4086 4085 4084 ] final  -57.63 input    0.00 | X-H torsion
[ 8723 4764 4763 4762 ] final -147.74 input    0.00 | X-H torsion
[ 8726 4159 4158 4157 ] final  -94.39 input    0.00 | X-H torsion
[ 8729  485  484  483 ] final   37.89 input    0.00 | X-H torsion
[ 8732 5267 5266 5265 ] final   39.54 input    0.00 | X-H torsion
[ 8736 4824 4823 4822 ] final  114.22 input   -0.00 | X-H torsion
[ 8738 4842 4841 4840 ] final  119.60 input    0.00 | X-H torsion
[ 8742 5246 5245 5244 ] final -161.75 input    0.00 | X-H torsion
[ 8753 5213 5212 5211 ] final  167.33 input   -0.00 | X-H torsion
[ 8756 4877 4876 4875 ] final    5.71 input    0.00 | X-H torsion

> <Gold.Protein.ActiveResidues>
 GLU18   GLY20   LYS21   GLY22   ALA23   PHE24   SER25   VAL26   VAL27   ARG28  
 ILE43   ILE44   ASN45   THR46   LYS47   LYS48   LEU49   SER50   ARG52   ASP53  
 LYS56   ARG59   GLY83   HIS84   GLY95   GLU96   LEU97   PHE98   GLU99   ASP100 
 ILE101  VAL102  ALA103  GLU105  TYR106  HIS133  ARG134  ASN135  LEU136  LYS137 
 PRO138  GLU139  ASN140  ASP156  GLY158  LEU159  ALA160  ILE161  TRP170  PHE171 
 GLY172  PHE173  ALA174  GLY175  THR176  PRO177  GLY178  TYR179  LEU180  VAL184 
 LYS187  TYR190  VAL201  ILE202  TYR204  ILE205  LEU206  VAL208  GLY209  TYR210 
 PRO211  PRO212  PHE213  TRP214  ASP215  GLU216  ASP217  GLN218  HIS219  LEU221 
 TYR222  GLN224  ILE225  ASP231  PHE232  PRO233  SER234  PRO235  GLU236  TRP237 
 ASP238 

> <Gold.Protein.RotatedAtoms>
  -12.4629  -17.1435  -20.3631 H   0  0  0  0  0  0  0  0  0  0  0  0  # atno 546  bound_to 536 
    6.1252  -15.9536  -23.9197 H   0  0  0  0  0  0  0  0  0  0  0  0  # atno 607  bound_to 596 
   17.4098  -17.1091  -29.0512 H   0  0  0  0  0  0  0  0  0  0  0  0  # atno 1287 bound_to 1275
   12.0511   -5.8227  -28.2685 H   0  0  0  0  0  0  0  0  0  0  0  0  # atno 1420 bound_to 1410
    7.6502   -6.2730  -22.2909 H   0  0  0  0  0  0  0  0  0  0  0  0  # atno 1596 bound_to 1580
    8.2795   -4.8989  -21.6103 H   0  0  0  0  0  0  0  0  0  0  0  0  # atno 1597 bound_to 1580
    8.8096   -5.4055  -23.0971 H   0  0  0  0  0  0  0  0  0  0  0  0  # atno 1598 bound_to 1580
  -18.8910  -11.8939  -24.3260 H   0  0  0  0  0  0  0  0  0  0  0  0  # atno 1613 bound_to 1589
  -18.0114  -12.1301  -25.7113 H   0  0  0  0  0  0  0  0  0  0  0  0  # atno 1614 bound_to 1589
  -18.9725  -10.7880  -25.5578 H   0  0  0  0  0  0  0  0  0  0  0  0  # atno 1615 bound_to 1589
   -0.9718  -24.7839  -32.0715 H   0  0  0  0  0  0  0  0  0  0  0  0  # atno 2916 bound_to 2901
   -1.1716  -22.4309  -35.0672 H   0  0  0  0  0  0  0  0  0  0  0  0  # atno 2946 bound_to 2930
   -0.7589  -20.1570  -36.1613 H   0  0  0  0  0  0  0  0  0  0  0  0  # atno 2982 bound_to 2971
    1.8712  -21.7345  -34.9866 H   0  0  0  0  0  0  0  0  0  0  0  0  # atno 3018 bound_to 3009
    2.8936  -22.4052  -36.0920 H   0  0  0  0  0  0  0  0  0  0  0  0  # atno 3050 bound_to 3038
    3.8576  -21.1616  -37.2104 H   0  0  0  0  0  0  0  0  0  0  0  0  # atno 3081 bound_to 3062
    5.4853  -20.2402  -36.2957 H   0  0  0  0  0  0  0  0  0  0  0  0  # atno 3115 bound_to 3099
    7.2699  -21.6952  -36.0731 H   0  0  0  0  0  0  0  0  0  0  0  0  # atno 3139 bound_to 3129
    9.9781  -20.3876  -38.9723 H   0  0  0  0  0  0  0  0  0  0  0  0  # atno 3215 bound_to 3201
  -12.5801  -11.7891  -35.9378 H   0  0  0  0  0  0  0  0  0  0  0  0  # atno 4142 bound_to 4128
  -10.0833  -12.8238  -36.5773 H   0  0  0  0  0  0  0  0  0  0  0  0  # atno 4166 bound_to 4156
   -7.1782  -15.9243  -37.2264 H   0  0  0  0  0  0  0  0  0  0  0  0  # atno 4204 bound_to 4195
   -5.8746  -14.1963  -29.5804 H   0  0  0  0  0  0  0  0  0  0  0  0  # atno 4214 bound_to 4203
   -5.6356  -12.8619  -30.5346 H   0  0  0  0  0  0  0  0  0  0  0  0  # atno 4215 bound_to 4203
   -7.1644  -13.2581  -30.0301 H   0  0  0  0  0  0  0  0  0  0  0  0  # atno 4216 bound_to 4203
   -2.4369  -12.0048  -15.9472 H   0  0  0  0  0  0  0  0  0  0  0  0  # atno 4227 bound_to 4194
   -3.9067  -12.7083  -15.6432 H   0  0  0  0  0  0  0  0  0  0  0  0  # atno 4228 bound_to 4194
   -3.6056  -11.1617  -15.1288 H   0  0  0  0  0  0  0  0  0  0  0  0  # atno 4229 bound_to 4194
   -3.7955  -18.3357  -34.9642 H   0  0  0  0  0  0  0  0  0  0  0  0  # atno 4281 bound_to 4267
   -5.2974  -19.5292  -33.1775 H   0  0  0  0  0  0  0  0  0  0  0  0  # atno 4310 bound_to 4296
  -16.7679  -18.4117  -30.9364 H   0  0  0  0  0  0  0  0  0  0  0  0  # atno 4825 bound_to 4821
  -16.7135  -15.9194  -30.9280 H   0  0  0  0  0  0  0  0  0  0  0  0  # atno 4847 bound_to 4839
  -17.4660  -13.9356  -32.2990 H   0  0  0  0  0  0  0  0  0  0  0  0  # atno 4879 bound_to 4874
  -21.6494   -4.5254  -32.3565 H   0  0  0  0  0  0  0  0  0  0  0  0  # atno 5250 bound_to 5243
  -18.0800   -4.1779  -29.7568 H   0  0  0  0  0  0  0  0  0  0  0  0  # atno 5284 bound_to 5264
  -16.0294   -5.8114  -31.2654 H   0  0  0  0  0  0  0  0  0  0  0  0  # atno 5308 bound_to 5298
  -13.3429   -8.3533  -31.3765 H   0  0  0  0  0  0  0  0  0  0  0  0  # atno 5322 bound_to 5317
   -9.3660   -8.0330  -32.3458 H   0  0  0  0  0  0  0  0  0  0  0  0  # atno 5341 bound_to 5334
   -7.3518  -11.2159  -30.1936 H   0  0  0  0  0  0  0  0  0  0  0  0  # atno 5347 bound_to 5340
   -4.1876   -7.4455  -33.2066 H   0  0  0  0  0  0  0  0  0  0  0  0  # atno 5391 bound_to 5387
   -4.1989   -7.4996  -36.1304 H   0  0  0  0  0  0  0  0  0  0  0  0  # atno 5421 bound_to 5409
   -0.9846  -12.2156  -34.8938 H   0  0  0  0  0  0  0  0  0  0  0  0  # atno 5429 bound_to 5420
   -6.6348   -5.8705  -36.4243 H   0  0  0  0  0  0  0  0  0  0  0  0  # atno 5455 bound_to 5447
  -14.2921    2.0689  -29.1226 H   0  0  0  0  0  0  0  0  0  0  0  0  # atno 5710 bound_to 5690
  -13.8764    2.3217  -30.7064 H   0  0  0  0  0  0  0  0  0  0  0  0  # atno 5711 bound_to 5690
  -14.3463    3.5980  -29.7600 H   0  0  0  0  0  0  0  0  0  0  0  0  # atno 5712 bound_to 5690
  -19.4483   -6.2636  -34.3833 H   0  0  0  0  0  0  0  0  0  0  0  0  # atno 5806 bound_to 5788
    6.0809   -6.4202  -44.6710 H   0  0  0  0  0  0  0  0  0  0  0  0  # atno 6240 bound_to 6222
    1.8735  -11.2476  -42.9467 H   0  0  0  0  0  0  0  0  0  0  0  0  # atno 6268 bound_to 6249
    2.6968  -14.1983  -43.5771 H   0  0  0  0  0  0  0  0  0  0  0  0  # atno 6306 bound_to 6287
    7.5338  -13.3353  -42.7205 H   0  0  0  0  0  0  0  0  0  0  0  0  # atno 6398 bound_to 6391
    6.4192  -11.7236  -41.2537 H   0  0  0  0  0  0  0  0  0  0  0  0  # atno 6434 bound_to 6413
    8.8615   -7.6945  -44.6434 H   0  0  0  0  0  0  0  0  0  0  0  0  # atno 6442 bound_to 6424
    1.9037   -5.3290  -39.2256 H   0  0  0  0  0  0  0  0  0  0  0  0  # atno 6530 bound_to 6510
    1.5601   -3.9678  -36.9989 H   0  0  0  0  0  0  0  0  0  0  0  0  # atno 6577 bound_to 6553
    2.9742   -1.7913  -34.3692 H   0  0  0  0  0  0  0  0  0  0  0  0  # atno 6607 bound_to 6595
    4.9700   -1.1121  -30.8557 H   0  0  0  0  0  0  0  0  0  0  0  0  # atno 6635 bound_to 6620
   -5.7817   -1.2247  -17.4023 H   0  0  0  0  0  0  0  0  0  0  0  0  # atno 6843 bound_to 6822
   -7.8382   -2.9580  -30.4877 H   0  0  0  0  0  0  0  0  0  0  0  0  # atno 6852 bound_to 6834
   11.3851   -3.9637  -49.2204 H   0  0  0  0  0  0  0  0  0  0  0  0  # atno 7213 bound_to 7207
   14.4942   -5.3280  -51.4024 H   0  0  0  0  0  0  0  0  0  0  0  0  # atno 7217 bound_to 7212
   12.9339   -7.6611  -48.2608 H   0  0  0  0  0  0  0  0  0  0  0  0  # atno 7269 bound_to 7260
   11.6920   -9.1976  -49.8666 H   0  0  0  0  0  0  0  0  0  0  0  0  # atno 7309 bound_to 7295
   11.8316   -8.9010  -51.6552 H   0  0  0  0  0  0  0  0  0  0  0  0  # atno 7345 bound_to 7337
    9.3677   -6.4243  -43.7606 LP  0  0  0  0  0  0  0  0  0  0  0  0  # atno 8537 bound_to 6424
    7.7986   -6.5460  -44.1962 LP  0  0  0  0  0  0  0  0  0  0  0  0  # atno 8538 bound_to 6424
    6.6890  -12.8241  -39.9164 LP  0  0  0  0  0  0  0  0  0  0  0  0  # atno 8543 bound_to 6413
    4.9485   -7.0995  -39.5951 LP  0  0  0  0  0  0  0  0  0  0  0  0  # atno 8545 bound_to 6453
    4.0418   -5.6754  -39.9820 LP  0  0  0  0  0  0  0  0  0  0  0  0  # atno 8546 bound_to 6453
    5.2482   -5.4789  -43.6370 LP  0  0  0  0  0  0  0  0  0  0  0  0  # atno 8551 bound_to 6222
    5.0884   -5.2668  -45.2483 LP  0  0  0  0  0  0  0  0  0  0  0  0  # atno 8552 bound_to 6222
    8.9081  -12.4313  -41.6643 LP  0  0  0  0  0  0  0  0  0  0  0  0  # atno 8553 bound_to 6365
    9.6900  -13.4134  -42.8577 LP  0  0  0  0  0  0  0  0  0  0  0  0  # atno 8554 bound_to 6365
    6.8486  -12.8171  -37.9325 LP  0  0  0  0  0  0  0  0  0  0  0  0  # atno 8555 bound_to 6394
    7.6985  -14.2204  -38.4880 LP  0  0  0  0  0  0  0  0  0  0  0  0  # atno 8556 bound_to 6394
    5.3531   -9.9221  -41.7167 LP  0  0  0  0  0  0  0  0  0  0  0  0  # atno 8557 bound_to 6416
    3.7207  -10.3333  -41.3091 LP  0  0  0  0  0  0  0  0  0  0  0  0  # atno 8558 bound_to 6416
   11.2154   -6.3450  -48.8261 LP  0  0  0  0  0  0  0  0  0  0  0  0  # atno 8560 bound_to 7183
   10.3804   -6.1712  -47.3186 LP  0  0  0  0  0  0  0  0  0  0  0  0  # atno 8561 bound_to 7183
   13.7204   -4.7921  -46.2099 LP  0  0  0  0  0  0  0  0  0  0  0  0  # atno 8562 bound_to 7210
   14.7987   -3.6427  -46.9282 LP  0  0  0  0  0  0  0  0  0  0  0  0  # atno 8563 bound_to 7210
   12.2434   -3.5806  -47.7335 LP  0  0  0  0  0  0  0  0  0  0  0  0  # atno 8566 bound_to 7207
   14.4253   -8.5522  -48.4474 LP  0  0  0  0  0  0  0  0  0  0  0  0  # atno 8568 bound_to 7260
    8.5114   -2.9825  -50.1182 LP  0  0  0  0  0  0  0  0  0  0  0  0  # atno 8569 bound_to 7147
    9.1847   -4.5783  -50.1216 LP  0  0  0  0  0  0  0  0  0  0  0  0  # atno 8570 bound_to 7147
   10.9121   -8.1562  -48.6933 LP  0  0  0  0  0  0  0  0  0  0  0  0  # atno 8571 bound_to 7295
   15.7438   -4.9063  -50.4492 LP  0  0  0  0  0  0  0  0  0  0  0  0  # atno 8572 bound_to 7212
   15.3368   -3.9742  -51.7268 LP  0  0  0  0  0  0  0  0  0  0  0  0  # atno 8573 bound_to 7212
   13.0890   -9.3503  -50.6678 LP  0  0  0  0  0  0  0  0  0  0  0  0  # atno 8574 bound_to 7233
   14.2032   -8.2433  -51.3980 LP  0  0  0  0  0  0  0  0  0  0  0  0  # atno 8575 bound_to 7233
    2.2875   -2.3761  -37.0806 LP  0  0  0  0  0  0  0  0  0  0  0  0  # atno 8576 bound_to 6553
    4.5213   -1.7626  -35.8726 LP  0  0  0  0  0  0  0  0  0  0  0  0  # atno 8577 bound_to 6556
    3.5729   -0.3582  -35.5148 LP  0  0  0  0  0  0  0  0  0  0  0  0  # atno 8578 bound_to 6556
    1.3276   -5.5785  -35.9472 LP  0  0  0  0  0  0  0  0  0  0  0  0  # atno 8581 bound_to 6513
    0.0073   -5.5764  -37.0682 LP  0  0  0  0  0  0  0  0  0  0  0  0  # atno 8582 bound_to 6513
    1.9768   -2.2709  -33.0066 LP  0  0  0  0  0  0  0  0  0  0  0  0  # atno 8583 bound_to 6595
    0.7761   -4.7359  -40.4331 LP  0  0  0  0  0  0  0  0  0  0  0  0  # atno 8585 bound_to 6510
    1.7089   -2.8190  -41.6496 LP  0  0  0  0  0  0  0  0  0  0  0  0  # atno 8586 bound_to 6481
    3.0896   -2.9722  -40.6151 LP  0  0  0  0  0  0  0  0  0  0  0  0  # atno 8587 bound_to 6481
    1.7886   -1.3156  -29.8259 LP  0  0  0  0  0  0  0  0  0  0  0  0  # atno 8588 bound_to 6598
    1.6894   -2.1740  -31.3270 LP  0  0  0  0  0  0  0  0  0  0  0  0  # atno 8589 bound_to 6598
    3.5415   -0.0938  -30.7731 LP  0  0  0  0  0  0  0  0  0  0  0  0  # atno 8590 bound_to 6620
   13.2996   -4.9235  -27.7396 LP  0  0  0  0  0  0  0  0  0  0  0  0  # atno 8605 bound_to 1410
   13.4412   -6.5476  -27.8335 LP  0  0  0  0  0  0  0  0  0  0  0  0  # atno 8606 bound_to 1410
   16.6468  -16.7511  -30.4434 LP  0  0  0  0  0  0  0  0  0  0  0  0  # atno 8617 bound_to 1275
   15.9694  -17.7907  -29.3818 LP  0  0  0  0  0  0  0  0  0  0  0  0  # atno 8618 bound_to 1275
   10.4101  -19.9213  -35.7839 LP  0  0  0  0  0  0  0  0  0  0  0  0  # atno 8621 bound_to 3102
    9.7774  -18.9498  -37.0707 LP  0  0  0  0  0  0  0  0  0  0  0  0  # atno 8622 bound_to 3102
    5.8608  -13.8488  -42.7643 LP  0  0  0  0  0  0  0  0  0  0  0  0  # atno 8623 bound_to 6391
   -0.6607  -12.0603  -36.4808 LP  0  0  0  0  0  0  0  0  0  0  0  0  # atno 8624 bound_to 5420
   -1.4487  -13.3806  -35.9307 LP  0  0  0  0  0  0  0  0  0  0  0  0  # atno 8625 bound_to 5420
    4.2662  -20.1796  -35.4560 LP  0  0  0  0  0  0  0  0  0  0  0  0  # atno 8626 bound_to 2974
    3.3360  -18.7739  -35.8544 LP  0  0  0  0  0  0  0  0  0  0  0  0  # atno 8627 bound_to 2974
    6.0449  -19.3814  -37.7145 LP  0  0  0  0  0  0  0  0  0  0  0  0  # atno 8632 bound_to 3099
    7.1631  -18.3286  -39.0709 LP  0  0  0  0  0  0  0  0  0  0  0  0  # atno 8633 bound_to 3065
    7.8093  -19.9353  -39.0409 LP  0  0  0  0  0  0  0  0  0  0  0  0  # atno 8634 bound_to 3065
    7.2482  -17.0047  -40.4935 LP  0  0  0  0  0  0  0  0  0  0  0  0  # atno 8635 bound_to 3204
    8.6190  -15.9972  -40.8190 LP  0  0  0  0  0  0  0  0  0  0  0  0  # atno 8636 bound_to 3204
    4.8765  -14.0571  -41.9091 LP  0  0  0  0  0  0  0  0  0  0  0  0  # atno 8637 bound_to 6252
    4.5892  -15.5351  -42.7653 LP  0  0  0  0  0  0  0  0  0  0  0  0  # atno 8638 bound_to 6252
    0.2621  -21.5038  -35.6869 LP  0  0  0  0  0  0  0  0  0  0  0  0  # atno 8639 bound_to 2971
    2.1369  -20.4736  -33.7928 LP  0  0  0  0  0  0  0  0  0  0  0  0  # atno 8640 bound_to 3009
    1.1619  -12.7248  -43.5673 LP  0  0  0  0  0  0  0  0  0  0  0  0  # atno 8644 bound_to 6249
    1.4950  -15.0102  -42.5955 LP  0  0  0  0  0  0  0  0  0  0  0  0  # atno 8645 bound_to 6287
   -0.4419  -10.9065  -42.9712 LP  0  0  0  0  0  0  0  0  0  0  0  0  # atno 8646 bound_to 6101
   -0.4625  -11.2938  -41.2831 LP  0  0  0  0  0  0  0  0  0  0  0  0  # atno 8647 bound_to 6101
   -0.3418  -15.3609  -43.5654 LP  0  0  0  0  0  0  0  0  0  0  0  0  # atno 8648 bound_to 6134
    0.1470  -14.2073  -42.3695 LP  0  0  0  0  0  0  0  0  0  0  0  0  # atno 8649 bound_to 6134
    2.1760  -20.7004  -37.0947 LP  0  0  0  0  0  0  0  0  0  0  0  0  # atno 8650 bound_to 2933
    1.6555  -22.0830  -37.9989 LP  0  0  0  0  0  0  0  0  0  0  0  0  # atno 8651 bound_to 2933
    6.1445  -23.2475  -34.5966 LP  0  0  0  0  0  0  0  0  0  0  0  0  # atno 8652 bound_to 3012
    6.0603  -21.7933  -35.5337 LP  0  0  0  0  0  0  0  0  0  0  0  0  # atno 8653 bound_to 3012
    4.3619  -22.2026  -38.5256 LP  0  0  0  0  0  0  0  0  0  0  0  0  # atno 8654 bound_to 3062
    8.5012  -20.4465  -36.0938 LP  0  0  0  0  0  0  0  0  0  0  0  0  # atno 8655 bound_to 3129
   -2.8153  -17.1731  -34.0923 LP  0  0  0  0  0  0  0  0  0  0  0  0  # atno 8656 bound_to 4267
   -4.1449   -5.6983  -33.2894 LP  0  0  0  0  0  0  0  0  0  0  0  0  # atno 8657 bound_to 5387
    1.6986   -0.9425  -27.2278 LP  0  0  0  0  0  0  0  0  0  0  0  0  # atno 8658 bound_to 6623
    3.0145   -0.2763  -26.3196 LP  0  0  0  0  0  0  0  0  0  0  0  0  # atno 8659 bound_to 6623
   -7.5184  -12.0891  -31.5567 LP  0  0  0  0  0  0  0  0  0  0  0  0  # atno 8668 bound_to 5340
   -8.6113  -10.9341  -31.1849 LP  0  0  0  0  0  0  0  0  0  0  0  0  # atno 8669 bound_to 5340
    6.3825  -16.9288  -22.6430 LP  0  0  0  0  0  0  0  0  0  0  0  0  # atno 8672 bound_to 596 
    5.3178  -17.3614  -23.8031 LP  0  0  0  0  0  0  0  0  0  0  0  0  # atno 8673 bound_to 596 
   -3.4831  -20.2306  -36.1745 LP  0  0  0  0  0  0  0  0  0  0  0  0  # atno 8674 bound_to 4240
   -2.3931  -20.3273  -34.8319 LP  0  0  0  0  0  0  0  0  0  0  0  0  # atno 8675 bound_to 4240
   -4.5455  -21.3733  -32.5757 LP  0  0  0  0  0  0  0  0  0  0  0  0  # atno 8676 bound_to 4270
   -5.7928  -20.6526  -31.6140 LP  0  0  0  0  0  0  0  0  0  0  0  0  # atno 8677 bound_to 4270
   -1.5648  -25.6548  -33.4686 LP  0  0  0  0  0  0  0  0  0  0  0  0  # atno 8686 bound_to 2901
    0.6024  -24.4703  -34.5557 LP  0  0  0  0  0  0  0  0  0  0  0  0  # atno 8687 bound_to 2904
    0.9810  -22.9610  -35.3164 LP  0  0  0  0  0  0  0  0  0  0  0  0  # atno 8688 bound_to 2904
   -5.6000  -18.1606  -34.2380 LP  0  0  0  0  0  0  0  0  0  0  0  0  # atno 8689 bound_to 4296
   -2.2906  -23.3398  -36.0609 LP  0  0  0  0  0  0  0  0  0  0  0  0  # atno 8694 bound_to 2930
    3.9899  -23.4013  -35.1529 LP  0  0  0  0  0  0  0  0  0  0  0  0  # atno 8695 bound_to 3038
   -9.4174   -9.7769  -32.1466 LP  0  0  0  0  0  0  0  0  0  0  0  0  # atno 8697 bound_to 5334
   -7.1477   -8.3252  -34.1226 LP  0  0  0  0  0  0  0  0  0  0  0  0  # atno 8698 bound_to 5337
   -6.7071   -6.6581  -33.9593 LP  0  0  0  0  0  0  0  0  0  0  0  0  # atno 8699 bound_to 5337
  -10.2932   -7.4969  -29.7768 LP  0  0  0  0  0  0  0  0  0  0  0  0  # atno 8700 bound_to 5320
   -9.5502   -9.0267  -29.4492 LP  0  0  0  0  0  0  0  0  0  0  0  0  # atno 8701 bound_to 5320
   -5.9941   -4.3005  -34.1986 LP  0  0  0  0  0  0  0  0  0  0  0  0  # atno 8702 bound_to 5365
   -4.7134   -4.8601  -35.2216 LP  0  0  0  0  0  0  0  0  0  0  0  0  # atno 8703 bound_to 5365
   -5.5462   -7.2724  -35.0246 LP  0  0  0  0  0  0  0  0  0  0  0  0  # atno 8704 bound_to 5409
   -2.6515   -7.2610  -37.5288 LP  0  0  0  0  0  0  0  0  0  0  0  0  # atno 8705 bound_to 5390
   -4.0093   -6.2519  -37.9006 LP  0  0  0  0  0  0  0  0  0  0  0  0  # atno 8706 bound_to 5390
   -7.5412   -7.3392  -36.1424 LP  0  0  0  0  0  0  0  0  0  0  0  0  # atno 8707 bound_to 5447
   -7.7434   -1.9823  -29.1887 LP  0  0  0  0  0  0  0  0  0  0  0  0  # atno 8708 bound_to 6834
   -6.4166   -2.7741  -29.7172 LP  0  0  0  0  0  0  0  0  0  0  0  0  # atno 8709 bound_to 6834
  -12.1358   -7.6277  -30.3309 LP  0  0  0  0  0  0  0  0  0  0  0  0  # atno 8710 bound_to 5317
   -9.3350  -15.4682  -34.8891 LP  0  0  0  0  0  0  0  0  0  0  0  0  # atno 8711 bound_to 4131
   -9.4048  -14.2883  -33.6231 LP  0  0  0  0  0  0  0  0  0  0  0  0  # atno 8712 bound_to 4131
  -13.0905   -7.6282  -33.4802 LP  0  0  0  0  0  0  0  0  0  0  0  0  # atno 8713 bound_to 5301
  -14.1750   -6.3760  -32.9745 LP  0  0  0  0  0  0  0  0  0  0  0  0  # atno 8714 bound_to 5301
  -12.4015   -9.6267  -35.6808 LP  0  0  0  0  0  0  0  0  0  0  0  0  # atno 8715 bound_to 4086
  -12.3393  -10.3365  -34.1020 LP  0  0  0  0  0  0  0  0  0  0  0  0  # atno 8716 bound_to 4086
  -13.1752  -13.3769  -35.5122 LP  0  0  0  0  0  0  0  0  0  0  0  0  # atno 8717 bound_to 4128
  -15.6641  -15.4071  -29.6180 LP  0  0  0  0  0  0  0  0  0  0  0  0  # atno 8722 bound_to 4839
  -13.8615  -17.4126  -32.3840 LP  0  0  0  0  0  0  0  0  0  0  0  0  # atno 8723 bound_to 4764
  -12.3660  -18.1842  -32.7942 LP  0  0  0  0  0  0  0  0  0  0  0  0  # atno 8724 bound_to 4764
  -10.9632  -14.2678  -36.1211 LP  0  0  0  0  0  0  0  0  0  0  0  0  # atno 8725 bound_to 4156
   -7.2342  -12.4690  -37.8276 LP  0  0  0  0  0  0  0  0  0  0  0  0  # atno 8726 bound_to 4159
   -7.7968  -12.3631  -36.1929 LP  0  0  0  0  0  0  0  0  0  0  0  0  # atno 8727 bound_to 4159
   -7.5887  -14.4082  -36.4290 LP  0  0  0  0  0  0  0  0  0  0  0  0  # atno 8728 bound_to 4195
   -7.9209  -20.0703  -23.3694 LP  0  0  0  0  0  0  0  0  0  0  0  0  # atno 8729 bound_to 485 
   -8.4161  -18.5053  -22.8168 LP  0  0  0  0  0  0  0  0  0  0  0  0  # atno 8730 bound_to 485 
  -15.1115  -17.9790  -30.5568 LP  0  0  0  0  0  0  0  0  0  0  0  0  # atno 8731 bound_to 4821
  -16.5828   -4.9490  -28.3104 LP  0  0  0  0  0  0  0  0  0  0  0  0  # atno 8732 bound_to 5267
  -15.0244   -5.7049  -28.3148 LP  0  0  0  0  0  0  0  0  0  0  0  0  # atno 8733 bound_to 5267
  -14.5846   -4.9641  -30.7434 LP  0  0  0  0  0  0  0  0  0  0  0  0  # atno 8734 bound_to 5298
  -18.1535   -3.1121  -31.1462 LP  0  0  0  0  0  0  0  0  0  0  0  0  # atno 8735 bound_to 5264
  -17.2851  -14.5317  -27.9767 LP  0  0  0  0  0  0  0  0  0  0  0  0  # atno 8736 bound_to 4824
  -18.5829  -15.5215  -28.5563 LP  0  0  0  0  0  0  0  0  0  0  0  0  # atno 8737 bound_to 4824
  -17.4681  -12.2739  -33.3529 LP  0  0  0  0  0  0  0  0  0  0  0  0  # atno 8738 bound_to 4842
  -18.2930  -11.9986  -31.8550 LP  0  0  0  0  0  0  0  0  0  0  0  0  # atno 8739 bound_to 4842
  -17.0183   -4.7538  -32.6761 LP  0  0  0  0  0  0  0  0  0  0  0  0  # atno 8742 bound_to 5246
  -18.5961   -4.5337  -33.3560 LP  0  0  0  0  0  0  0  0  0  0  0  0  # atno 8743 bound_to 5246
  -17.5550  -15.6766  -32.1125 LP  0  0  0  0  0  0  0  0  0  0  0  0  # atno 8752 bound_to 4874
  -20.6814   -6.4879  -31.1683 LP  0  0  0  0  0  0  0  0  0  0  0  0  # atno 8753 bound_to 5213
  -22.0326   -7.1533  -32.0236 LP  0  0  0  0  0  0  0  0  0  0  0  0  # atno 8754 bound_to 5213
  -20.2086   -4.3352  -33.3368 LP  0  0  0  0  0  0  0  0  0  0  0  0  # atno 8755 bound_to 5243
  -20.0324  -14.8114  -31.9091 LP  0  0  0  0  0  0  0  0  0  0  0  0  # atno 8756 bound_to 4877
  -21.4362  -14.0946  -32.6271 LP  0  0  0  0  0  0  0  0  0  0  0  0  # atno 8757 bound_to 4877

> <Gold.Score>
     Fitness  S(hb_ext) S(vdw_ext)  S(hb_int)    S(int)      intcor
     22.84       0.12      16.93       0.00      -0.56      -0.76

> <Gold.Goldscore.Fitness>
22.8398

> <Gold.Goldscore.Internal.Vdw>
-0.6812

> <Gold.Goldscore.Internal.Torsion>
-0.6425

> <Gold.Goldscore.External.Vdw>
16.9330

> <Gold.Goldscore.Internal.HBond>
0.0000

> <Gold.Goldscore.External.HBond>
0.1156

> <Gold.Goldscore.Internal.Correction>
-0.7650

> <Gold.Goldscore.Hbonds>
donor molecule, donor type, donor heavy atom, donor atom, acceptor molecule, acceptor atom, score
      P1  H   536   546       L1    11  0.06

> <Gold.Goldscore.Internal.Vdw.Weighted>
-0.6812

> <Gold.Goldscore.Internal.Torsion.Weighted>
-0.6425

> <Gold.Goldscore.External.Vdw.Weighted>
23.2829

> <Gold.Goldscore.Internal.HBond.Weighted>
0.0000

> <Gold.Goldscore.External.HBond.Weighted>
0.1156

> <Gold.Goldscore.Internal.Correction.Weighted>
-0.7650

> <Gold.Rescore>
     Score     S(PLP)   S(hbond)     S(cho)   S(metal)  DE(clash)   DE(tors)     intcor
     26.84     -24.45       1.00       0.00       0.00       0.00       0.30       ----

> <Gold.PLP.Fitness>
26.8410

> <Gold.PLP.PLP>
-24.4471

> <Gold.PLP.part.hbond>
-2.9661

> <Gold.PLP.part.metal>
0.0000

> <Gold.PLP.part.buried>
-4.5481

> <Gold.PLP.part.nonpolar>
-18.0273

> <Gold.PLP.part.repulsive>
0.3249

> <Gold.PLP.ligand.clash>
0.0000

> <Gold.PLP.ligand.torsion>
0.3030

> <Gold.PLP.Chemscore.Hbond>
1.0000

> <Gold.PLP.Chemscore.CHOScore>
0.0000

> <Gold.PLP.Chemscore.Metal>
0.0000

> <Gold.Chemscore.Hbonds>
donor molecule, donor type, donor heavy atom, donor atom, acceptor molecule, acceptor atom, score
      P1  H   536   546       L1    11  0.55

> <Gold.PLP.Chemscore.Internal.Correction>
   9.000000E+99

