#       Name:                CT1002167954
#       Creating user name   hitesit
#       Creation time:       Sun Apr 16 02:23:41 2023


#       File generated by GOLD software.
#

@<TRIPOS>MOLECULE
CT1002167954|ligand_prepared|mol2|1|dock1
    29    30     1
SMALL
NO_CHARGES


@<TRIPOS>ATOM
      1 C1          -9.8705  -5.0138 -25.9913 C.3            1 RES1               0.0000
      2 C2         -11.1800  -4.2740 -25.6498 C.ar           1 RES1               0.0000
      3 C3         -10.2769  -6.2853 -26.7304 C.2            1 RES1               0.0000
      4 C4          -9.0399  -4.0466 -26.8276 C.2            1 RES1               0.0000
      5 C5          -9.0360  -5.4116 -24.7516 C.3            1 RES1               0.0000
      6 C6         -11.1754  -3.1931 -24.7733 C.ar           1 RES1               0.0000
      7 C7         -12.3979  -4.6586 -26.2044 C.ar           1 RES1               0.0000
      8 N8         -10.0622  -6.3297 -28.0765 N.am           1 RES1               0.0000
      9 O9         -10.8139  -7.2193 -26.1476 O.2            1 RES1               0.0000
     10 N10         -8.7923  -4.3769 -28.1343 N.am           1 RES1               0.0000
     11 O11         -8.6116  -2.9936 -26.3715 O.2            1 RES1               0.0000
     12 C12         -7.8116  -6.2512 -25.0804 C.3            1 RES1               0.0000
     13 C13        -12.3453  -2.5191 -24.4647 C.ar           1 RES1               0.0000
     14 C14        -13.5668  -3.9833 -25.8942 C.ar           1 RES1               0.0000
     15 C15         -9.2917  -5.4598 -28.8052 C.2            1 RES1               0.0000
     16 C16        -13.5416  -2.9134 -25.0251 C.ar           1 RES1               0.0000
     17 O17         -9.0685  -5.6603 -29.9957 O.2            1 RES1               0.0000
     18 H18         -8.7107  -4.4990 -24.2372 H              1 RES1               0.0000
     19 H19         -9.6757  -5.9755 -24.0615 H              1 RES1               0.0000
     20 H20        -10.2439  -2.8699 -24.3206 H              1 RES1               0.0000
     21 H21        -12.4418  -5.4982 -26.8897 H              1 RES1               0.0000
     22 H22        -10.5167  -7.0791 -28.5886 H              1 RES1               0.0000
     23 H23         -8.1787  -3.7582 -28.6550 H              1 RES1               0.0000
     24 H24         -7.2621  -6.5027 -24.1757 H              1 RES1               0.0000
     25 H25         -8.1001  -7.1787 -25.5705 H              1 RES1               0.0000
     26 H26         -7.1407  -5.7109 -25.7452 H              1 RES1               0.0000
     27 H27        -12.3204  -1.6785 -23.7791 H              1 RES1               0.0000
     28 H28        -14.5061  -4.2975 -26.3371 H              1 RES1               0.0000
     29 H29        -14.4579  -2.3849 -24.7835 H              1 RES1               0.0000
@<TRIPOS>BOND
    1    1    2 1     
    2    1    3 1     
    3    1    4 1     
    4    1    5 1     
    5    2    6 ar    
    6    2    7 ar    
    7    3    8 1     
    8    3    9 2     
    9    4   10 1     
   10    4   11 2     
   11    5   12 1     
   12    5   18 1     
   13    5   19 1     
   14    6   13 ar    
   15    6   20 1     
   16    7   14 ar    
   17    7   21 1     
   18    8   15 1     
   19    8   22 1     
   20   10   15 1     
   21   10   23 1     
   22   12   24 1     
   23   12   25 1     
   24   12   26 1     
   25   13   16 ar    
   26   13   27 1     
   27   14   16 ar    
   28   14   28 1     
   29   15   17 2     
   30   16   29 1     
@<TRIPOS>SUBSTRUCTURE
      1 RES1           1
@<TRIPOS>SET
DONOR_HYDROGENS      STATIC     ATOMS    <user>   **** ""
2 22 23
ATOM$RED        STATIC     ATOMS    COLORGROUP SYSTEM
2 22 23
@<TRIPOS>COMMENT
> <Gold.Version>
2022.3.0

> <Gold.Id.Protein>
unknown|7kl0_clean|pdb

> <Gold.Protein.RotatedTorsions>
[ 6442 6424 6423 6421 ] final  -22.51 input   59.99 | X-H torsion
[ 6434 6413 6414 6415 ] final  151.97 input   40.09 | X-H torsion
[ 6240 6222 6221 6219 ] final  123.65 input   60.01 | X-H torsion
[ 7213 7207 7208 7209 ] final  -11.49 input  101.61 | X-H torsion
[ 7269 7260 7261 7262 ] final   54.97 input  118.90 | X-H torsion
[ 7309 7295 7296 7297 ] final  109.93 input   89.68 | X-H torsion
[ 7217 7212 7211 7208 ] final  170.12 input   60.02 | X-H torsion
[ 6577 6553 6554 6555 ] final  -38.86 input   19.71 | X-H torsion
[ 6607 6595 6596 6597 ] final  113.62 input   28.67 | X-H torsion
[ 6530 6510 6511 6512 ] final   54.11 input   51.84 | X-H torsion
[ 6635 6620 6621 6622 ] final  -34.10 input  122.94 | X-H torsion
[ 1420 1410 1409 1406 ] final   18.26 input   60.02 | X-H torsion
[ 1287 1275 1273 1270 ] final  -48.29 input   60.01 | X-H torsion
[ 6398 6391 6392 6393 ] final -131.04 input  -98.70 | X-H torsion
[ 5429 5420 5419 5417 ] final -108.42 input   59.99 | X-H torsion
[ 3115 3099 3100 3101 ] final  -34.17 input  111.82 | X-H torsion
[ 2982 2971 2972 2973 ] final -143.70 input  134.80 | X-H torsion
[ 3018 3009 3010 3011 ] final   41.01 input  114.19 | X-H torsion
[ 6268 6249 6250 6251 ] final   94.86 input  122.80 | X-H torsion
[ 6306 6287 6288 6289 ] final -102.53 input  127.97 | X-H torsion
[ 3081 3062 3063 3064 ] final    7.83 input  114.53 | X-H torsion
[ 3139 3129 3130 3131 ] final  164.71 input  112.52 | X-H torsion
[ 4214 4203 4202 4201 ] final  -26.95 input   60.00 | X-H torsion
[ 4281 4267 4268 4269 ] final   52.27 input  109.79 | X-H torsion
[ 5391 5387 5388 5389 ] final  -12.01 input  115.86 | X-H torsion
[ 1596 1580 1579 1578 ] final  -10.36 input   59.99 | X-H torsion
[ 5347 5340 5338 5335 ] final   36.05 input   60.02 | X-H torsion
[  607  596  595  592 ] final  -56.62 input   60.02 | X-H torsion
[ 2916 2901 2902 2903 ] final  143.60 input  112.69 | X-H torsion
[ 4310 4296 4297 4298 ] final   -3.57 input   86.41 | X-H torsion
[ 2946 2930 2931 2932 ] final   23.67 input  126.41 | X-H torsion
[ 3050 3038 3039 3040 ] final -111.81 input  116.07 | X-H torsion
[ 5341 5334 5335 5336 ] final  -70.18 input   67.75 | X-H torsion
[ 5421 5409 5410 5411 ] final    8.50 input   64.82 | X-H torsion
[ 5455 5447 5448 5449 ] final -136.13 input  110.01 | X-H torsion
[ 6852 6834 6833 6831 ] final   79.46 input   59.99 | X-H torsion
[ 5322 5317 5318 5319 ] final -110.49 input  -36.16 | X-H torsion
[ 4142 4128 4129 4130 ] final  149.73 input   37.30 | X-H torsion
[ 4847 4839 4840 4841 ] final   98.30 input   74.58 | X-H torsion
[ 4166 4156 4157 4158 ] final   10.81 input  113.65 | X-H torsion
[ 4204 4195 4196 4197 ] final -165.93 input    7.17 | X-H torsion
[ 4825 4821 4822 4823 ] final  -99.22 input  114.67 | X-H torsion
[ 5308 5298 5299 5300 ] final   40.12 input   26.27 | X-H torsion
[ 1613 1589 1588 1587 ] final  -23.29 input   59.99 | X-H torsion
[ 5284 5264 5265 5266 ] final  -94.02 input   91.93 | X-H torsion
[ 4879 4874 4875 4876 ] final  -13.24 input  114.78 | X-H torsion
[ 5250 5243 5244 5245 ] final -140.40 input  -68.46 | X-H torsion
[ 5710 5690 5689 5688 ] final  -35.81 input   60.02 | X-H torsion
[ 7345 7337 7338 7339 ] final  121.69 input  116.36 | X-H torsion
[ 3215 3201 3202 3203 ] final    5.96 input -100.55 | X-H torsion
[ 4227 4194 4193 4192 ] final    9.05 input   60.00 | X-H torsion
[  546  536  537  538 ] final -178.41 input  119.99 | X-H torsion
[ 6843 6822 6821 6819 ] final -131.49 input   59.97 | X-H torsion
[ 5806 5788 5787 5785 ] final   68.08 input   59.97 | X-H torsion
[ 8545 6453 6452 6451 ] final  146.10 input   -0.00 | X-H torsion
[ 8553 6365 6364 6363 ] final   89.78 input    0.00 | X-H torsion
[ 8555 6394 6393 6392 ] final   61.56 input    0.00 | X-H torsion
[ 8557 6416 6415 6414 ] final  106.58 input    0.00 | X-H torsion
[ 8560 7183 7182 7181 ] final -133.87 input   -0.00 | X-H torsion
[ 8562 7210 7209 7208 ] final  116.47 input    0.00 | X-H torsion
[ 8569 7147 7146 7145 ] final  -91.42 input    0.00 | X-H torsion
[ 8574 7233 7232 7231 ] final -157.50 input   -0.00 | X-H torsion
[ 8577 6556 6555 6554 ] final  174.37 input    0.00 | X-H torsion
[ 8581 6513 6512 6511 ] final  -83.01 input    0.00 | X-H torsion
[ 8586 6481 6480 6479 ] final  115.18 input    0.00 | X-H torsion
[ 8588 6598 6597 6596 ] final   23.90 input   -0.00 | X-H torsion
[ 8621 3102 3101 3100 ] final -154.74 input    0.00 | X-H torsion
[ 8626 2974 2973 2972 ] final   95.55 input   -0.00 | X-H torsion
[ 8633 3065 3064 3063 ] final -126.63 input    0.00 | X-H torsion
[ 8635 3204 3203 3202 ] final   80.00 input   -0.00 | X-H torsion
[ 8637 6252 6251 6250 ] final  102.50 input    0.00 | X-H torsion
[ 8646 6101 6100 6099 ] final   64.84 input    0.00 | X-H torsion
[ 8648 6134 6133 6132 ] final  147.41 input    0.00 | X-H torsion
[ 8650 2933 2932 2931 ] final  148.74 input    0.00 | X-H torsion
[ 8652 3012 3011 3010 ] final -115.18 input    0.00 | X-H torsion
[ 8658 6623 6622 6621 ] final  -92.71 input    0.00 | X-H torsion
[ 8674 4240 4239 4238 ] final  -32.31 input    0.00 | X-H torsion
[ 8676 4270 4269 4268 ] final   68.45 input    0.00 | X-H torsion
[ 8687 2904 2903 2902 ] final -132.57 input    0.00 | X-H torsion
[ 8698 5337 5336 5335 ] final -170.61 input    0.00 | X-H torsion
[ 8700 5320 5319 5318 ] final  148.62 input    0.00 | X-H torsion
[ 8702 5365 5364 5363 ] final  101.25 input   -0.00 | X-H torsion
[ 8705 5390 5389 5388 ] final  -50.66 input   -0.00 | X-H torsion
[ 8711 4131 4130 4129 ] final   44.46 input    0.00 | X-H torsion
[ 8713 5301 5300 5299 ] final -101.61 input    0.00 | X-H torsion
[ 8715 4086 4085 4084 ] final -118.47 input    0.00 | X-H torsion
[ 8723 4764 4763 4762 ] final  113.69 input    0.00 | X-H torsion
[ 8726 4159 4158 4157 ] final   22.40 input    0.00 | X-H torsion
[ 8729  485  484  483 ] final -104.24 input    0.00 | X-H torsion
[ 8732 5267 5266 5265 ] final   16.89 input    0.00 | X-H torsion
[ 8736 4824 4823 4822 ] final -146.48 input   -0.00 | X-H torsion
[ 8738 4842 4841 4840 ] final  163.99 input    0.00 | X-H torsion
[ 8742 5246 5245 5244 ] final -170.70 input    0.00 | X-H torsion
[ 8753 5213 5212 5211 ] final  -36.94 input   -0.00 | X-H torsion
[ 8756 4877 4876 4875 ] final -169.32 input    0.00 | X-H torsion

> <Gold.Protein.ActiveResidues>
 GLU18   GLY20   LYS21   GLY22   ALA23   PHE24   SER25   VAL26   VAL27   ARG28  
 ILE43   ILE44   ASN45   THR46   LYS47   LYS48   LEU49   SER50   ARG52   ASP53  
 LYS56   ARG59   GLY83   HIS84   GLY95   GLU96   LEU97   PHE98   GLU99   ASP100 
 ILE101  VAL102  ALA103  GLU105  TYR106  HIS133  ARG134  ASN135  LEU136  LYS137 
 PRO138  GLU139  ASN140  ASP156  GLY158  LEU159  ALA160  ILE161  TRP170  PHE171 
 GLY172  PHE173  ALA174  GLY175  THR176  PRO177  GLY178  TYR179  LEU180  VAL184 
 LYS187  TYR190  VAL201  ILE202  TYR204  ILE205  LEU206  VAL208  GLY209  TYR210 
 PRO211  PRO212  PHE213  TRP214  ASP215  GLU216  ASP217  GLN218  HIS219  LEU221 
 TYR222  GLN224  ILE225  ASP231  PHE232  PRO233  SER234  PRO235  GLU236  TRP237 
 ASP238 

> <Gold.Protein.RotatedAtoms>
  -11.2154  -16.1769  -20.6733 H   0  0  0  0  0  0  0  0  0  0  0  0  # atno 546  bound_to 536 
    5.8176  -16.1627  -24.1776 H   0  0  0  0  0  0  0  0  0  0  0  0  # atno 607  bound_to 596 
   15.8598  -17.6674  -29.6988 H   0  0  0  0  0  0  0  0  0  0  0  0  # atno 1287 bound_to 1275
   13.7060   -6.2295  -27.7130 H   0  0  0  0  0  0  0  0  0  0  0  0  # atno 1420 bound_to 1410
    8.8989   -4.8695  -22.5778 H   0  0  0  0  0  0  0  0  0  0  0  0  # atno 1596 bound_to 1580
    8.0547   -6.2533  -22.9239 H   0  0  0  0  0  0  0  0  0  0  0  0  # atno 1597 bound_to 1580
    7.7866   -5.4536  -21.4968 H   0  0  0  0  0  0  0  0  0  0  0  0  # atno 1598 bound_to 1580
  -19.2395  -11.0113  -24.7662 H   0  0  0  0  0  0  0  0  0  0  0  0  # atno 1613 bound_to 1589
  -18.3353  -12.4008  -24.7539 H   0  0  0  0  0  0  0  0  0  0  0  0  # atno 1614 bound_to 1589
  -18.3000  -11.4001  -26.0751 H   0  0  0  0  0  0  0  0  0  0  0  0  # atno 1615 bound_to 1589
   -1.3708  -24.8434  -31.9850 H   0  0  0  0  0  0  0  0  0  0  0  0  # atno 2916 bound_to 2901
   -1.4674  -22.1608  -35.1459 H   0  0  0  0  0  0  0  0  0  0  0  0  # atno 2946 bound_to 2930
   -0.5980  -20.1745  -36.3930 H   0  0  0  0  0  0  0  0  0  0  0  0  # atno 2982 bound_to 2971
    1.8618  -21.7436  -34.9746 H   0  0  0  0  0  0  0  0  0  0  0  0  # atno 3018 bound_to 3009
    4.0552  -23.4055  -35.1648 H   0  0  0  0  0  0  0  0  0  0  0  0  # atno 3050 bound_to 3038
    4.7153  -21.5817  -37.2301 H   0  0  0  0  0  0  0  0  0  0  0  0  # atno 3081 bound_to 3062
    6.3285  -20.1125  -37.6364 H   0  0  0  0  0  0  0  0  0  0  0  0  # atno 3115 bound_to 3099
    7.6084  -21.4574  -35.3363 H   0  0  0  0  0  0  0  0  0  0  0  0  # atno 3139 bound_to 3129
    8.8214  -20.3604  -40.3502 H   0  0  0  0  0  0  0  0  0  0  0  0  # atno 3215 bound_to 3201
  -13.3642  -12.4576  -34.9914 H   0  0  0  0  0  0  0  0  0  0  0  0  # atno 4142 bound_to 4128
   -9.8806  -12.9902  -36.1254 H   0  0  0  0  0  0  0  0  0  0  0  0  # atno 4166 bound_to 4156
   -7.4195  -14.2532  -37.0241 H   0  0  0  0  0  0  0  0  0  0  0  0  # atno 4204 bound_to 4195
   -5.4035  -13.1014  -30.4049 H   0  0  0  0  0  0  0  0  0  0  0  0  # atno 4214 bound_to 4203
   -7.0486  -12.9871  -30.2344 H   0  0  0  0  0  0  0  0  0  0  0  0  # atno 4215 bound_to 4203
   -6.2232  -14.2269  -29.5062 H   0  0  0  0  0  0  0  0  0  0  0  0  # atno 4216 bound_to 4203
   -3.9016  -11.3716  -15.0944 H   0  0  0  0  0  0  0  0  0  0  0  0  # atno 4227 bound_to 4194
   -2.4361  -11.6680  -15.8099 H   0  0  0  0  0  0  0  0  0  0  0  0  # atno 4228 bound_to 4194
   -3.6123  -12.8358  -15.8148 H   0  0  0  0  0  0  0  0  0  0  0  0  # atno 4229 bound_to 4194
   -4.1087  -17.3777  -34.4463 H   0  0  0  0  0  0  0  0  0  0  0  0  # atno 4281 bound_to 4267
   -5.2196  -19.3831  -34.3951 H   0  0  0  0  0  0  0  0  0  0  0  0  # atno 4310 bound_to 4296
  -16.7513  -18.4991  -30.8812 H   0  0  0  0  0  0  0  0  0  0  0  0  # atno 4825 bound_to 4821
  -15.3772  -15.5996  -30.6638 H   0  0  0  0  0  0  0  0  0  0  0  0  # atno 4847 bound_to 4839
  -18.1353  -14.2573  -31.9023 H   0  0  0  0  0  0  0  0  0  0  0  0  # atno 4879 bound_to 4874
  -21.5096   -3.8156  -32.5911 H   0  0  0  0  0  0  0  0  0  0  0  0  # atno 5250 bound_to 5243
  -18.1317   -3.9158  -31.3147 H   0  0  0  0  0  0  0  0  0  0  0  0  # atno 5284 bound_to 5264
  -15.2711   -5.6194  -31.8628 H   0  0  0  0  0  0  0  0  0  0  0  0  # atno 5308 bound_to 5298
  -13.0517   -8.8099  -30.7265 H   0  0  0  0  0  0  0  0  0  0  0  0  # atno 5322 bound_to 5317
   -9.5455   -8.1726  -31.7770 H   0  0  0  0  0  0  0  0  0  0  0  0  # atno 5341 bound_to 5334
   -8.6057  -10.9419  -31.1937 H   0  0  0  0  0  0  0  0  0  0  0  0  # atno 5347 bound_to 5340
   -4.9162   -6.5825  -33.7240 H   0  0  0  0  0  0  0  0  0  0  0  0  # atno 5391 bound_to 5387
   -5.5768   -6.8279  -35.3616 H   0  0  0  0  0  0  0  0  0  0  0  0  # atno 5421 bound_to 5409
   -1.4697  -13.2402  -35.3088 H   0  0  0  0  0  0  0  0  0  0  0  0  # atno 5429 bound_to 5420
   -7.5357   -7.3073  -35.9466 H   0  0  0  0  0  0  0  0  0  0  0  0  # atno 5455 bound_to 5447
  -13.9467    2.8829  -30.7662 H   0  0  0  0  0  0  0  0  0  0  0  0  # atno 5710 bound_to 5690
  -14.4515    3.3501  -29.2589 H   0  0  0  0  0  0  0  0  0  0  0  0  # atno 5711 bound_to 5690
  -14.1171    1.7559  -29.5627 H   0  0  0  0  0  0  0  0  0  0  0  0  # atno 5712 bound_to 5690
  -17.6189   -6.4148  -34.3653 H   0  0  0  0  0  0  0  0  0  0  0  0  # atno 5806 bound_to 5788
    5.6552   -5.9177  -45.4170 H   0  0  0  0  0  0  0  0  0  0  0  0  # atno 6240 bound_to 6222
    0.7675  -12.3739  -42.9302 H   0  0  0  0  0  0  0  0  0  0  0  0  # atno 6268 bound_to 6249
    2.4299  -14.9258  -42.3174 H   0  0  0  0  0  0  0  0  0  0  0  0  # atno 6306 bound_to 6287
    6.0407  -14.1980  -42.8773 H   0  0  0  0  0  0  0  0  0  0  0  0  # atno 6398 bound_to 6391
    7.4211  -12.2290  -40.3482 H   0  0  0  0  0  0  0  0  0  0  0  0  # atno 6434 bound_to 6413
    7.8148   -6.5238  -44.1758 H   0  0  0  0  0  0  0  0  0  0  0  0  # atno 6442 bound_to 6424
    0.9076   -5.6325  -39.3291 H   0  0  0  0  0  0  0  0  0  0  0  0  # atno 6530 bound_to 6510
    1.6095   -2.3468  -36.8445 H   0  0  0  0  0  0  0  0  0  0  0  0  # atno 6577 bound_to 6553
    1.8451   -1.4331  -33.9204 H   0  0  0  0  0  0  0  0  0  0  0  0  # atno 6607 bound_to 6595
    3.3370   -0.5829  -30.7719 H   0  0  0  0  0  0  0  0  0  0  0  0  # atno 6635 bound_to 6620
   -5.8727   -1.1146  -17.6351 H   0  0  0  0  0  0  0  0  0  0  0  0  # atno 6843 bound_to 6822
   -6.4472   -2.5937  -29.4995 H   0  0  0  0  0  0  0  0  0  0  0  0  # atno 6852 bound_to 6834
   12.0801   -4.0659  -47.6362 H   0  0  0  0  0  0  0  0  0  0  0  0  # atno 7213 bound_to 7207
   15.3187   -3.9844  -51.7339 H   0  0  0  0  0  0  0  0  0  0  0  0  # atno 7217 bound_to 7212
   12.9421   -7.6630  -48.2036 H   0  0  0  0  0  0  0  0  0  0  0  0  # atno 7269 bound_to 7260
   11.0862   -7.8654  -48.9369 H   0  0  0  0  0  0  0  0  0  0  0  0  # atno 7309 bound_to 7295
   12.0733   -8.0626  -51.4062 H   0  0  0  0  0  0  0  0  0  0  0  0  # atno 7345 bound_to 7337
    8.8309   -7.7004  -44.6573 LP  0  0  0  0  0  0  0  0  0  0  0  0  # atno 8537 bound_to 6424
    9.3891   -6.4482  -43.7702 LP  0  0  0  0  0  0  0  0  0  0  0  0  # atno 8538 bound_to 6424
    5.7273  -12.3390  -40.7856 LP  0  0  0  0  0  0  0  0  0  0  0  0  # atno 8543 bound_to 6413
    4.4418   -6.0985  -40.6032 LP  0  0  0  0  0  0  0  0  0  0  0  0  # atno 8545 bound_to 6453
    4.5485   -6.6764  -38.9739 LP  0  0  0  0  0  0  0  0  0  0  0  0  # atno 8546 bound_to 6453
    5.8946   -6.2184  -43.8356 LP  0  0  0  0  0  0  0  0  0  0  0  0  # atno 8551 bound_to 6222
    4.8708   -5.0334  -44.2984 LP  0  0  0  0  0  0  0  0  0  0  0  0  # atno 8552 bound_to 6222
    9.0304  -12.1162  -42.0937 LP  0  0  0  0  0  0  0  0  0  0  0  0  # atno 8553 bound_to 6365
    9.5677  -13.7285  -42.4283 LP  0  0  0  0  0  0  0  0  0  0  0  0  # atno 8554 bound_to 6365
    8.0603  -13.7692  -38.4717 LP  0  0  0  0  0  0  0  0  0  0  0  0  # atno 8555 bound_to 6394
    6.4868  -13.2683  -37.9489 LP  0  0  0  0  0  0  0  0  0  0  0  0  # atno 8556 bound_to 6394
    3.8778  -10.6597  -41.3327 LP  0  0  0  0  0  0  0  0  0  0  0  0  # atno 8557 bound_to 6416
    5.1961   -9.5957  -41.6931 LP  0  0  0  0  0  0  0  0  0  0  0  0  # atno 8558 bound_to 6416
   11.6117   -6.4218  -47.8255 LP  0  0  0  0  0  0  0  0  0  0  0  0  # atno 8560 bound_to 7183
    9.9841   -6.0944  -48.3193 LP  0  0  0  0  0  0  0  0  0  0  0  0  # atno 8561 bound_to 7183
   13.9412   -4.8995  -46.1409 LP  0  0  0  0  0  0  0  0  0  0  0  0  # atno 8562 bound_to 7210
   14.5779   -3.5352  -46.9972 LP  0  0  0  0  0  0  0  0  0  0  0  0  # atno 8563 bound_to 7210
   11.5901   -3.4846  -49.2225 LP  0  0  0  0  0  0  0  0  0  0  0  0  # atno 8566 bound_to 7207
   14.4172   -8.5504  -48.5033 LP  0  0  0  0  0  0  0  0  0  0  0  0  # atno 8568 bound_to 7260
    9.0547   -4.6179  -50.1961 LP  0  0  0  0  0  0  0  0  0  0  0  0  # atno 8569 bound_to 7147
    8.6413   -2.9428  -50.0437 LP  0  0  0  0  0  0  0  0  0  0  0  0  # atno 8570 bound_to 7147
   11.4957   -9.4393  -49.5886 LP  0  0  0  0  0  0  0  0  0  0  0  0  # atno 8571 bound_to 7295
   14.4956   -5.3449  -51.3886 LP  0  0  0  0  0  0  0  0  0  0  0  0  # atno 8572 bound_to 7212
   15.7543   -4.8892  -50.4534 LP  0  0  0  0  0  0  0  0  0  0  0  0  # atno 8573 bound_to 7212
   12.8747   -9.0550  -50.7356 LP  0  0  0  0  0  0  0  0  0  0  0  0  # atno 8574 bound_to 7233
   14.4174   -8.5386  -51.3302 LP  0  0  0  0  0  0  0  0  0  0  0  0  # atno 8575 bound_to 7233
    2.2401   -3.9354  -37.2291 LP  0  0  0  0  0  0  0  0  0  0  0  0  # atno 8576 bound_to 6553
    4.0456   -0.4201  -35.1106 LP  0  0  0  0  0  0  0  0  0  0  0  0  # atno 8577 bound_to 6556
    4.0486   -1.7007  -36.2768 LP  0  0  0  0  0  0  0  0  0  0  0  0  # atno 8578 bound_to 6556
   -0.0653   -5.1948  -36.2495 LP  0  0  0  0  0  0  0  0  0  0  0  0  # atno 8581 bound_to 6513
    1.4002   -5.9601  -36.7659 LP  0  0  0  0  0  0  0  0  0  0  0  0  # atno 8582 bound_to 6513
    3.0514   -2.6118  -33.4337 LP  0  0  0  0  0  0  0  0  0  0  0  0  # atno 8583 bound_to 6595
    1.7233   -4.4472  -40.3348 LP  0  0  0  0  0  0  0  0  0  0  0  0  # atno 8585 bound_to 6510
    1.5771   -2.6285  -41.1844 LP  0  0  0  0  0  0  0  0  0  0  0  0  # atno 8586 bound_to 6481
    3.2214   -3.1627  -41.0804 LP  0  0  0  0  0  0  0  0  0  0  0  0  # atno 8587 bound_to 6481
    1.5995   -2.0379  -31.3793 LP  0  0  0  0  0  0  0  0  0  0  0  0  # atno 8588 bound_to 6598
    1.8785   -1.4516  -29.7736 LP  0  0  0  0  0  0  0  0  0  0  0  0  # atno 8589 bound_to 6598
    5.0913   -0.5960  -30.8527 LP  0  0  0  0  0  0  0  0  0  0  0  0  # atno 8590 bound_to 6620
   12.1734   -6.2360  -28.2590 LP  0  0  0  0  0  0  0  0  0  0  0  0  # atno 8605 bound_to 1410
   12.9001   -4.8253  -27.8736 LP  0  0  0  0  0  0  0  0  0  0  0  0  # atno 8606 bound_to 1410
   17.2163  -17.3416  -28.8609 LP  0  0  0  0  0  0  0  0  0  0  0  0  # atno 8617 bound_to 1275
   16.9610  -16.6380  -30.3122 LP  0  0  0  0  0  0  0  0  0  0  0  0  # atno 8618 bound_to 1275
   10.3313  -20.1622  -36.8342 LP  0  0  0  0  0  0  0  0  0  0  0  0  # atno 8621 bound_to 3102
    9.8563  -18.7089  -36.0204 LP  0  0  0  0  0  0  0  0  0  0  0  0  # atno 8622 bound_to 3102
    7.3037  -13.0151  -42.6128 LP  0  0  0  0  0  0  0  0  0  0  0  0  # atno 8623 bound_to 6391
   -0.7029  -11.8052  -35.2927 LP  0  0  0  0  0  0  0  0  0  0  0  0  # atno 8624 bound_to 5420
   -0.9179  -12.6036  -36.7008 LP  0  0  0  0  0  0  0  0  0  0  0  0  # atno 8625 bound_to 5420
    3.9717  -19.0777  -34.9057 LP  0  0  0  0  0  0  0  0  0  0  0  0  # atno 8626 bound_to 2974
    3.6305  -19.8758  -36.4046 LP  0  0  0  0  0  0  0  0  0  0  0  0  # atno 8627 bound_to 2974
    5.2292  -19.5049  -36.4174 LP  0  0  0  0  0  0  0  0  0  0  0  0  # atno 8632 bound_to 3099
    8.0020  -19.6936  -38.6455 LP  0  0  0  0  0  0  0  0  0  0  0  0  # atno 8633 bound_to 3065
    6.9704  -18.5702  -39.4663 LP  0  0  0  0  0  0  0  0  0  0  0  0  # atno 8634 bound_to 3065
    8.6250  -15.9990  -40.7976 LP  0  0  0  0  0  0  0  0  0  0  0  0  # atno 8635 bound_to 3204
    7.2422  -17.0029  -40.5149 LP  0  0  0  0  0  0  0  0  0  0  0  0  # atno 8636 bound_to 3204
    4.4837  -15.3798  -41.7480 LP  0  0  0  0  0  0  0  0  0  0  0  0  # atno 8637 bound_to 6252
    4.9821  -14.2125  -42.9265 LP  0  0  0  0  0  0  0  0  0  0  0  0  # atno 8638 bound_to 6252
    0.1092  -21.4871  -35.4665 LP  0  0  0  0  0  0  0  0  0  0  0  0  # atno 8639 bound_to 2971
    2.1459  -20.4649  -33.8042 LP  0  0  0  0  0  0  0  0  0  0  0  0  # atno 8640 bound_to 3009
    2.2222  -11.6451  -43.5831 LP  0  0  0  0  0  0  0  0  0  0  0  0  # atno 8644 bound_to 6249
    1.7524  -14.3088  -43.8098 LP  0  0  0  0  0  0  0  0  0  0  0  0  # atno 8645 bound_to 6287
   -0.4451  -10.6948  -41.3619 LP  0  0  0  0  0  0  0  0  0  0  0  0  # atno 8646 bound_to 6101
   -0.4594  -11.5056  -42.8924 LP  0  0  0  0  0  0  0  0  0  0  0  0  # atno 8647 bound_to 6101
   -0.2110  -15.1875  -43.7253 LP  0  0  0  0  0  0  0  0  0  0  0  0  # atno 8648 bound_to 6134
    0.0163  -14.3808  -42.2095 LP  0  0  0  0  0  0  0  0  0  0  0  0  # atno 8649 bound_to 6134
    2.0203  -20.5435  -37.4068 LP  0  0  0  0  0  0  0  0  0  0  0  0  # atno 8650 bound_to 2933
    1.8112  -22.2399  -37.6869 LP  0  0  0  0  0  0  0  0  0  0  0  0  # atno 8651 bound_to 2933
    6.0656  -21.9746  -35.7365 LP  0  0  0  0  0  0  0  0  0  0  0  0  # atno 8652 bound_to 3012
    6.1392  -23.0661  -34.3938 LP  0  0  0  0  0  0  0  0  0  0  0  0  # atno 8653 bound_to 3012
    3.5357  -21.7979  -38.5066 LP  0  0  0  0  0  0  0  0  0  0  0  0  # atno 8654 bound_to 3062
    8.1775  -20.6738  -36.7984 LP  0  0  0  0  0  0  0  0  0  0  0  0  # atno 8655 bound_to 3129
   -2.5147  -18.0927  -34.5895 LP  0  0  0  0  0  0  0  0  0  0  0  0  # atno 8656 bound_to 4267
   -3.4388   -6.5347  -32.7880 LP  0  0  0  0  0  0  0  0  0  0  0  0  # atno 8657 bound_to 5387
    1.7835   -1.0668  -27.2345 LP  0  0  0  0  0  0  0  0  0  0  0  0  # atno 8658 bound_to 6623
    2.9296   -0.1520  -26.3128 LP  0  0  0  0  0  0  0  0  0  0  0  0  # atno 8659 bound_to 6623
   -7.3571  -11.2082  -30.1845 LP  0  0  0  0  0  0  0  0  0  0  0  0  # atno 8668 bound_to 5340
   -7.5098  -12.0910  -31.5498 LP  0  0  0  0  0  0  0  0  0  0  0  0  # atno 8669 bound_to 5340
    6.5496  -16.5241  -22.7702 LP  0  0  0  0  0  0  0  0  0  0  0  0  # atno 8672 bound_to 596 
    5.4606  -17.5555  -23.4160 LP  0  0  0  0  0  0  0  0  0  0  0  0  # atno 8673 bound_to 596 
   -3.2214  -20.1906  -36.3168 LP  0  0  0  0  0  0  0  0  0  0  0  0  # atno 8674 bound_to 4240
   -2.6548  -20.3673  -34.6896 LP  0  0  0  0  0  0  0  0  0  0  0  0  # atno 8675 bound_to 4240
   -5.1635  -20.5758  -31.3472 LP  0  0  0  0  0  0  0  0  0  0  0  0  # atno 8676 bound_to 4270
   -5.1748  -21.4500  -32.8424 LP  0  0  0  0  0  0  0  0  0  0  0  0  # atno 8677 bound_to 4270
   -1.1785  -25.5973  -33.5523 LP  0  0  0  0  0  0  0  0  0  0  0  0  # atno 8686 bound_to 2901
    0.9824  -22.9555  -35.3046 LP  0  0  0  0  0  0  0  0  0  0  0  0  # atno 8687 bound_to 2904
    0.6010  -24.4757  -34.5674 LP  0  0  0  0  0  0  0  0  0  0  0  0  # atno 8688 bound_to 2904
   -5.6734  -18.2985  -33.0886 LP  0  0  0  0  0  0  0  0  0  0  0  0  # atno 8689 bound_to 4296
   -2.0051  -23.6005  -35.9850 LP  0  0  0  0  0  0  0  0  0  0  0  0  # atno 8694 bound_to 2930
    2.8783  -22.4440  -36.0403 LP  0  0  0  0  0  0  0  0  0  0  0  0  # atno 8695 bound_to 3038
   -9.2468   -9.6442  -32.6872 LP  0  0  0  0  0  0  0  0  0  0  0  0  # atno 8697 bound_to 5334
   -6.3303   -6.8654  -34.0052 LP  0  0  0  0  0  0  0  0  0  0  0  0  # atno 8698 bound_to 5337
   -7.5245   -8.1179  -34.0767 LP  0  0  0  0  0  0  0  0  0  0  0  0  # atno 8699 bound_to 5337
   -9.2065   -8.7423  -29.5263 LP  0  0  0  0  0  0  0  0  0  0  0  0  # atno 8700 bound_to 5320
  -10.6369   -7.7813  -29.6998 LP  0  0  0  0  0  0  0  0  0  0  0  0  # atno 8701 bound_to 5320
   -4.6534   -4.0940  -34.5582 LP  0  0  0  0  0  0  0  0  0  0  0  0  # atno 8702 bound_to 5365
   -6.0541   -5.0666  -34.8620 LP  0  0  0  0  0  0  0  0  0  0  0  0  # atno 8703 bound_to 5365
   -4.2448   -7.9068  -35.7507 LP  0  0  0  0  0  0  0  0  0  0  0  0  # atno 8704 bound_to 5409
   -3.1390   -5.9437  -37.4851 LP  0  0  0  0  0  0  0  0  0  0  0  0  # atno 8705 bound_to 5390
   -3.5218   -7.5693  -37.9442 LP  0  0  0  0  0  0  0  0  0  0  0  0  # atno 8706 bound_to 5390
   -6.6651   -5.9420  -36.6069 LP  0  0  0  0  0  0  0  0  0  0  0  0  # atno 8707 bound_to 5447
   -7.5898   -3.0814  -30.5506 LP  0  0  0  0  0  0  0  0  0  0  0  0  # atno 8708 bound_to 6834
   -7.9709   -2.0419  -29.3503 LP  0  0  0  0  0  0  0  0  0  0  0  0  # atno 8709 bound_to 6834
  -12.4140   -7.1915  -30.9519 LP  0  0  0  0  0  0  0  0  0  0  0  0  # atno 8710 bound_to 5317
  -10.0725  -15.0491  -33.7795 LP  0  0  0  0  0  0  0  0  0  0  0  0  # atno 8711 bound_to 4131
   -8.6672  -14.7075  -34.7326 LP  0  0  0  0  0  0  0  0  0  0  0  0  # atno 8712 bound_to 4131
  -13.8827   -7.8063  -33.4294 LP  0  0  0  0  0  0  0  0  0  0  0  0  # atno 8713 bound_to 5301
  -13.3828   -6.1980  -33.0253 LP  0  0  0  0  0  0  0  0  0  0  0  0  # atno 8714 bound_to 5301
  -11.6921  -10.0726  -35.4221 LP  0  0  0  0  0  0  0  0  0  0  0  0  # atno 8715 bound_to 4086
  -13.0487   -9.8906  -34.3607 LP  0  0  0  0  0  0  0  0  0  0  0  0  # atno 8716 bound_to 4086
  -12.4124  -12.7265  -36.4330 LP  0  0  0  0  0  0  0  0  0  0  0  0  # atno 8717 bound_to 4128
  -16.9382  -15.7121  -29.8699 LP  0  0  0  0  0  0  0  0  0  0  0  0  # atno 8722 bound_to 4839
  -13.2860  -17.9814  -33.4178 LP  0  0  0  0  0  0  0  0  0  0  0  0  # atno 8723 bound_to 4764
  -12.9415  -17.6153  -31.7603 LP  0  0  0  0  0  0  0  0  0  0  0  0  # atno 8724 bound_to 4764
  -11.1585  -14.1075  -36.5566 LP  0  0  0  0  0  0  0  0  0  0  0  0  # atno 8725 bound_to 4156
   -8.3620  -12.2719  -36.8973 LP  0  0  0  0  0  0  0  0  0  0  0  0  # atno 8726 bound_to 4159
   -6.6690  -12.5601  -37.1231 LP  0  0  0  0  0  0  0  0  0  0  0  0  # atno 8727 bound_to 4159
   -7.3637  -15.9663  -36.6176 LP  0  0  0  0  0  0  0  0  0  0  0  0  # atno 8728 bound_to 4195
   -7.8800  -18.5891  -22.6705 LP  0  0  0  0  0  0  0  0  0  0  0  0  # atno 8729 bound_to 485 
   -8.4571  -19.9864  -23.5157 LP  0  0  0  0  0  0  0  0  0  0  0  0  # atno 8730 bound_to 485 
  -15.1274  -17.8954  -30.6097 LP  0  0  0  0  0  0  0  0  0  0  0  0  # atno 8731 bound_to 4821
  -16.3804   -4.6851  -28.2391 LP  0  0  0  0  0  0  0  0  0  0  0  0  # atno 8732 bound_to 5267
  -15.2269   -5.9688  -28.3861 LP  0  0  0  0  0  0  0  0  0  0  0  0  # atno 8733 bound_to 5267
  -15.3080   -5.1472  -30.1735 LP  0  0  0  0  0  0  0  0  0  0  0  0  # atno 8734 bound_to 5298
  -18.1040   -3.3636  -29.6515 LP  0  0  0  0  0  0  0  0  0  0  0  0  # atno 8735 bound_to 5264
  -18.2185  -14.5217  -28.9101 LP  0  0  0  0  0  0  0  0  0  0  0  0  # atno 8736 bound_to 4824
  -17.6495  -15.5315  -27.6230 LP  0  0  0  0  0  0  0  0  0  0  0  0  # atno 8737 bound_to 4824
  -18.0901  -12.4758  -33.3726 LP  0  0  0  0  0  0  0  0  0  0  0  0  # atno 8738 bound_to 4842
  -17.6710  -11.7967  -31.8353 LP  0  0  0  0  0  0  0  0  0  0  0  0  # atno 8739 bound_to 4842
  -16.9960   -4.6259  -32.7134 LP  0  0  0  0  0  0  0  0  0  0  0  0  # atno 8742 bound_to 5246
  -18.6184   -4.6616  -33.3187 LP  0  0  0  0  0  0  0  0  0  0  0  0  # atno 8743 bound_to 5246
  -16.9141  -15.3685  -32.4923 LP  0  0  0  0  0  0  0  0  0  0  0  0  # atno 8752 bound_to 4874
  -22.1956   -6.9534  -31.7666 LP  0  0  0  0  0  0  0  0  0  0  0  0  # atno 8753 bound_to 5213
  -20.5184   -6.6879  -31.4253 LP  0  0  0  0  0  0  0  0  0  0  0  0  # atno 8754 bound_to 5213
  -20.3425   -5.0155  -33.1119 LP  0  0  0  0  0  0  0  0  0  0  0  0  # atno 8755 bound_to 5243
  -21.4581  -14.1639  -32.6459 LP  0  0  0  0  0  0  0  0  0  0  0  0  # atno 8756 bound_to 4877
  -20.0106  -14.7420  -31.8904 LP  0  0  0  0  0  0  0  0  0  0  0  0  # atno 8757 bound_to 4877

> <Gold.Score>
     Fitness  S(hb_ext) S(vdw_ext)  S(hb_int)    S(int)      intcor
     17.34       2.59      11.77       0.00      -1.43      -0.82

> <Gold.Goldscore.Fitness>
17.3367

> <Gold.Goldscore.Internal.Vdw>
-1.8370

> <Gold.Goldscore.Internal.Torsion>
-0.4155

> <Gold.Goldscore.External.Vdw>
11.7655

> <Gold.Goldscore.Internal.HBond>
0.0000

> <Gold.Goldscore.External.HBond>
2.5931

> <Gold.Goldscore.Internal.Correction>
-0.8186

> <Gold.Goldscore.Hbonds>
donor molecule, donor type, donor heavy atom, donor atom, acceptor molecule, acceptor atom, score
      P1  H  6681  6697       L1    11  0.58
      L1  H     8    22       P1  5320  0.04
      L1  H    10    23       P1  6834  0.69

> <Gold.Goldscore.Internal.Vdw.Weighted>
-1.8370

> <Gold.Goldscore.Internal.Torsion.Weighted>
-0.4155

> <Gold.Goldscore.External.Vdw.Weighted>
16.1775

> <Gold.Goldscore.Internal.HBond.Weighted>
0.0000

> <Gold.Goldscore.External.HBond.Weighted>
2.5931

> <Gold.Goldscore.Internal.Correction.Weighted>
-0.8186

> <Gold.Rescore>
     Score     S(PLP)   S(hbond)     S(cho)   S(metal)  DE(clash)   DE(tors)     intcor
     22.99     -17.01       2.50       0.00       0.00       1.32       0.10       ----

> <Gold.PLP.Fitness>
22.9940

> <Gold.PLP.PLP>
-17.0064

> <Gold.PLP.part.hbond>
-3.5588

> <Gold.PLP.part.metal>
0.0000

> <Gold.PLP.part.buried>
0.7216

> <Gold.PLP.part.nonpolar>
-15.1062

> <Gold.PLP.part.repulsive>
0.3785

> <Gold.PLP.ligand.clash>
1.3177

> <Gold.PLP.ligand.torsion>
0.0973

> <Gold.PLP.Chemscore.Hbond>
2.5000

> <Gold.PLP.Chemscore.CHOScore>
0.0000

> <Gold.PLP.Chemscore.Metal>
0.0000

> <Gold.Chemscore.Hbonds>
donor molecule, donor type, donor heavy atom, donor atom, acceptor molecule, acceptor atom, score
      L1  H     8    22       P1  5320  0.69
      L1  H    10    23       P1  6834  0.04
      P1  H  6681  6697       L1    11  0.47

> <Gold.PLP.Chemscore.Internal.Correction>
   9.000000E+99

