#       Name:                CT1002167954
#       Creating user name   hitesit
#       Creation time:       Sun Apr 16 20:17:48 2023


#       File generated by GOLD software.
#

@<TRIPOS>MOLECULE
CT1002167954|ligand_prepared|mol2|1|dock10
    29    30     1
SMALL
NO_CHARGES


@<TRIPOS>ATOM
      1 C1         112.5821 241.6224 324.1307 C.3            1 RES1               0.0000
      2 C2         112.5769 241.9335 325.6414 C.ar           1 RES1               0.0000
      3 C3         112.9646 242.9212 323.4271 C.2            1 RES1               0.0000
      4 C4         113.5825 240.4892 323.9320 C.2            1 RES1               0.0000
      5 C5         111.2135 241.1527 323.5849 C.3            1 RES1               0.0000
      6 C6         113.7302 241.7692 326.4026 C.ar           1 RES1               0.0000
      7 C7         111.4292 242.3873 326.2860 C.ar           1 RES1               0.0000
      8 N8         114.2199 243.0089 322.9012 N.am           1 RES1               0.0000
      9 O9         112.1905 243.8686 323.3693 O.2            1 RES1               0.0000
     10 N10        114.7167 240.7533 323.2097 N.am           1 RES1               0.0000
     11 O11        113.4069 239.3745 324.4084 O.2            1 RES1               0.0000
     12 C12        111.2734 240.6078 322.1666 C.3            1 RES1               0.0000
     13 C13        113.7369 242.0512 327.7587 C.ar           1 RES1               0.0000
     14 C14        111.4380 242.6684 327.6423 C.ar           1 RES1               0.0000
     15 C15        115.0953 241.9700 322.7114 C.2            1 RES1               0.0000
     16 C16        112.5911 242.5013 328.3792 C.ar           1 RES1               0.0000
     17 O17        116.1571 242.1403 322.1191 O.2            1 RES1               0.0000
     18 H18        110.8184 240.3722 324.2467 H              1 RES1               0.0000
     19 H19        110.5148 241.9981 323.6090 H              1 RES1               0.0000
     20 H20        114.6408 241.4136 325.9321 H              1 RES1               0.0000
     21 H21        110.5103 242.5251 325.7264 H              1 RES1               0.0000
     22 H22        114.5370 243.9322 322.6234 H              1 RES1               0.0000
     23 H23        115.3360 239.9702 323.0264 H              1 RES1               0.0000
     24 H24        110.2872 240.2926 321.8325 H              1 RES1               0.0000
     25 H25        111.6385 241.3661 321.4770 H              1 RES1               0.0000
     26 H26        111.9403 239.7499 322.1109 H              1 RES1               0.0000
     27 H27        114.6466 241.9167 328.3345 H              1 RES1               0.0000
     28 H28        110.5338 243.0219 328.1267 H              1 RES1               0.0000
     29 H29        112.5967 242.7225 329.4415 H              1 RES1               0.0000
@<TRIPOS>BOND
    1    1    2 1     
    2    1    3 1     
    3    1    4 1     
    4    1    5 1     
    5    2    6 ar    
    6    2    7 ar    
    7    3    8 1     
    8    3    9 2     
    9    4   10 1     
   10    4   11 2     
   11    5   12 1     
   12    5   18 1     
   13    5   19 1     
   14    6   13 ar    
   15    6   20 1     
   16    7   14 ar    
   17    7   21 1     
   18    8   15 1     
   19    8   22 1     
   20   10   15 1     
   21   10   23 1     
   22   12   24 1     
   23   12   25 1     
   24   12   26 1     
   25   13   16 ar    
   26   13   27 1     
   27   14   16 ar    
   28   14   28 1     
   29   15   17 2     
   30   16   29 1     
@<TRIPOS>SUBSTRUCTURE
      1 RES1           1
@<TRIPOS>SET
DONOR_HYDROGENS      STATIC     ATOMS    <user>   **** ""
2 22 23
ATOM$RED        STATIC     ATOMS    COLORGROUP SYSTEM
2 22 23
@<TRIPOS>COMMENT
> <Gold.Version>
2022.3.0

> <Gold.Id.Protein>
unknown|4uh5_clean|pdb

> <Gold.Protein.RotatedTorsions>
[ 8492 8482 8483 8484 ] final  -33.62 input   34.95 | X-H torsion
[ 8520 8504 8505 8506 ] final  147.15 input  102.00 | X-H torsion
[ 9058 9051 9052 9053 ] final  -49.26 input   39.76 | X-H torsion
[ 9099 9075 9076 9077 ] final   91.39 input   37.88 | X-H torsion
[ 9142 9121 9122 9123 ] final  -34.82 input   94.46 | X-H torsion
[ 9150 9132 9131 9129 ] final  -85.87 input   60.01 | X-H torsion
[ 9176 9159 9160 9161 ] final   93.77 input   86.63 | X-H torsion
[ 9251 9236 9237 9238 ] final   55.46 input  127.08 | X-H torsion
[ 3623 3616 3617 3618 ] final -175.75 input   94.27 | X-H torsion
[ 3649 3645 3646 3647 ] final   58.59 input   86.49 | X-H torsion
[ 9041 9031 9032 9033 ] final   -6.93 input   26.45 | X-H torsion
[ 9196 9189 9190 9191 ] final  172.27 input  130.40 | X-H torsion
[ 4948 4938 4937 4934 ] final -168.11 input   60.00 | X-H torsion
[ 9045 9036 9035 9032 ] final   97.67 input   59.99 | X-H torsion
[ 9007 8996 8997 8998 ] final  147.08 input   49.09 | X-H torsion
[ 8546 8535 8536 8537 ] final   82.16 input   50.11 | X-H torsion
[ 4964 4954 4955 4956 ] final   38.80 input   27.83 | X-H torsion
[ 8387 8378 8377 8375 ] final   11.73 input   59.99 | X-H torsion
[ 5633 5624 5625 5626 ] final  -87.78 input   44.71 | X-H torsion
[ 5606 5601 5600 5597 ] final  -27.75 input   59.98 | X-H torsion
[ 5665 5657 5658 5659 ] final  162.03 input  114.33 | X-H torsion
[ 5703 5695 5696 5697 ] final  -88.02 input   57.04 | X-H torsion
[ 5747 5736 5737 5738 ] final -102.94 input   30.88 | X-H torsion
[ 5805 5785 5786 5787 ] final -127.22 input   92.04 | X-H torsion
[ 9405 9397 9398 9399 ] final    8.01 input  123.68 | X-H torsion
[ 9388 9352 9353 9354 ] final  132.93 input  105.06 | X-H torsion
[ 11118 11102 11103 11104 ] final  126.60 input   57.11 | X-H torsion
[ 8379 8367 8368 8369 ] final  -61.79 input   85.33 | X-H torsion
[ 5602 5596 5597 5598 ] final  -15.08 input  106.64 | X-H torsion
[ 13518 8422 8421 8420 ] final -118.49 input    0.00 | X-H torsion
[ 13521 8459 8458 8457 ] final  -28.54 input   -0.00 | X-H torsion
[ 13525 8999 8998 8997 ] final -155.09 input   -0.00 | X-H torsion
[ 13528 9054 9053 9052 ] final  152.52 input   -0.00 | X-H torsion
[ 13531 9078 9077 9076 ] final   37.53 input    0.00 | X-H torsion
[ 13534 9124 9123 9122 ] final -156.44 input   -0.00 | X-H torsion
[ 13539 9162 9161 9160 ] final  -43.89 input   -0.00 | X-H torsion
[ 13553 9034 9033 9032 ] final -156.99 input    0.00 | X-H torsion
[ 13555 8404 8403 8402 ] final  -58.23 input    0.00 | X-H torsion
[ 13562 8485 8484 8483 ] final  -91.91 input    0.00 | X-H torsion
[ 13564 8507 8506 8505 ] final  -19.51 input   -0.00 | X-H torsion
[ 13571 4957 4956 4955 ] final  -33.33 input   -0.00 | X-H torsion
[ 13573 5599 5598 5597 ] final   88.55 input   -0.00 | X-H torsion
[ 13582 5698 5697 5696 ] final  179.11 input   -0.00 | X-H torsion
[ 13584 9239 9238 9237 ] final  145.89 input    0.00 | X-H torsion
[ 13588 5627 5626 5625 ] final  -33.34 input    0.00 | X-H torsion
[ 13596 8370 8369 8368 ] final   86.54 input   -0.00 | X-H torsion
[ 13601 9355 9354 9353 ] final  160.08 input   -0.00 | X-H torsion
[ 13603 9400 9399 9398 ] final -140.03 input   -0.00 | X-H torsion

> <Gold.Protein.ActiveResidues>
 MET341  TRP414  CYS420  VAL421  GLY422  LEU429  LEU460  SER462  ALA463  ILE464 
 SER482  GLN483  LEU484  ILE485  ARG486  TYR487  ASP500  ALA502  ASN503  TRP566 
 TYR567  GLY568  LEU569  PRO570  ALA571  VAL572  SER573  ASN574  PRO588  PHE589 
 SER590  GLY591  TRP592  TYR593  MET594  GLY595  GLU597  ILE598  ARG601  ASP602 
 ASP605  ARG608  ILE653  VAL654  TRP683  PRO687  PHE696  HIS697  TYR711  HEM750 
 H4B760 

> <Gold.Protein.RotatedAtoms>
  122.1053  249.4293  328.3370 H   0  0  0  0  0  0  0  0  0  0  0  0  # atno 3623 bound_to 3616
  124.0260  249.0020  325.8420 H   0  0  0  0  0  0  0  0  0  0  0  0  # atno 3649 bound_to 3645
  125.9691  247.6135  317.4569 H   0  0  0  0  0  0  0  0  0  0  0  0  # atno 4948 bound_to 4938
  122.4219  247.3839  313.8000 H   0  0  0  0  0  0  0  0  0  0  0  0  # atno 4964 bound_to 4954
  107.1271  245.5004  316.1301 H   0  0  0  0  0  0  0  0  0  0  0  0  # atno 5602 bound_to 5596
  106.5380  244.4842  318.6318 H   0  0  0  0  0  0  0  0  0  0  0  0  # atno 5606 bound_to 5601
  108.8727  245.8730  316.9852 H   0  0  0  0  0  0  0  0  0  0  0  0  # atno 5633 bound_to 5624
  111.9412  244.6734  314.9602 H   0  0  0  0  0  0  0  0  0  0  0  0  # atno 5665 bound_to 5657
  110.9217  241.6258  314.1213 H   0  0  0  0  0  0  0  0  0  0  0  0  # atno 5703 bound_to 5695
  110.6560  238.4859  315.9512 H   0  0  0  0  0  0  0  0  0  0  0  0  # atno 5747 bound_to 5736
  108.5253  236.5211  317.2174 H   0  0  0  0  0  0  0  0  0  0  0  0  # atno 5805 bound_to 5785
  115.7011  233.0213  318.7687 H   0  0  0  0  0  0  0  0  0  0  0  0  # atno 8379 bound_to 8367
  111.3841  238.1488  320.5447 H   0  0  0  0  0  0  0  0  0  0  0  0  # atno 8387 bound_to 8378
  115.6023  243.6543  318.2717 H   0  0  0  0  0  0  0  0  0  0  0  0  # atno 8492 bound_to 8482
  115.5081  246.4289  318.0742 H   0  0  0  0  0  0  0  0  0  0  0  0  # atno 8520 bound_to 8504
  111.3851  247.4850  316.8862 H   0  0  0  0  0  0  0  0  0  0  0  0  # atno 8546 bound_to 8535
  115.8189  250.5206  314.4780 H   0  0  0  0  0  0  0  0  0  0  0  0  # atno 9007 bound_to 8996
  119.8195  248.3238  315.4729 H   0  0  0  0  0  0  0  0  0  0  0  0  # atno 9041 bound_to 9031
  120.6059  244.4933  313.8614 H   0  0  0  0  0  0  0  0  0  0  0  0  # atno 9045 bound_to 9036
  120.6950  244.6786  316.3257 H   0  0  0  0  0  0  0  0  0  0  0  0  # atno 9058 bound_to 9051
  123.8072  243.5407  319.0627 H   0  0  0  0  0  0  0  0  0  0  0  0  # atno 9099 bound_to 9075
  123.1099  240.7478  321.1130 H   0  0  0  0  0  0  0  0  0  0  0  0  # atno 9142 bound_to 9121
  114.8040  238.4049  321.7547 H   0  0  0  0  0  0  0  0  0  0  0  0  # atno 9150 bound_to 9132
  121.3219  241.0047  324.6934 H   0  0  0  0  0  0  0  0  0  0  0  0  # atno 9176 bound_to 9159
  123.2434  237.5782  326.4131 H   0  0  0  0  0  0  0  0  0  0  0  0  # atno 9196 bound_to 9189
  118.7971  238.0030  327.9247 H   0  0  0  0  0  0  0  0  0  0  0  0  # atno 9251 bound_to 9236
  114.8743  237.7951  330.7162 H   0  0  0  0  0  0  0  0  0  0  0  0  # atno 9388 bound_to 9352
  112.5462  236.5276  329.0946 H   0  0  0  0  0  0  0  0  0  0  0  0  # atno 9405 bound_to 9397
  126.0493  238.7381  323.4738 H   0  0  0  0  0  0  0  0  0  0  0  0  # atno 11118 bound_to 11102
  115.7909  240.8282  316.1322 LP  0  0  0  0  0  0  0  0  0  0  0  0  # atno 13518 bound_to 8422
  115.8387  239.1361  316.4988 LP  0  0  0  0  0  0  0  0  0  0  0  0  # atno 13519 bound_to 8422
  118.8918  243.7246  318.1774 LP  0  0  0  0  0  0  0  0  0  0  0  0  # atno 13521 bound_to 8459
  118.1939  244.4719  316.7794 LP  0  0  0  0  0  0  0  0  0  0  0  0  # atno 13522 bound_to 8459
  116.2978  242.7156  316.9736 LP  0  0  0  0  0  0  0  0  0  0  0  0  # atno 13523 bound_to 8482
  114.7844  246.2993  316.4885 LP  0  0  0  0  0  0  0  0  0  0  0  0  # atno 13524 bound_to 8504
  117.1971  246.9524  316.8930 LP  0  0  0  0  0  0  0  0  0  0  0  0  # atno 13525 bound_to 8999
  116.0196  247.7738  315.9241 LP  0  0  0  0  0  0  0  0  0  0  0  0  # atno 13526 bound_to 8999
  120.4776  245.8698  317.5901 LP  0  0  0  0  0  0  0  0  0  0  0  0  # atno 13527 bound_to 9051
  122.8359  241.7665  316.7429 LP  0  0  0  0  0  0  0  0  0  0  0  0  # atno 13528 bound_to 9054
  121.6996  242.8970  316.0865 LP  0  0  0  0  0  0  0  0  0  0  0  0  # atno 13529 bound_to 9054
  122.1317  243.3862  318.5861 LP  0  0  0  0  0  0  0  0  0  0  0  0  # atno 13530 bound_to 9075
  122.2012  243.2354  321.1169 LP  0  0  0  0  0  0  0  0  0  0  0  0  # atno 13531 bound_to 9078
  122.7975  242.2681  322.4241 LP  0  0  0  0  0  0  0  0  0  0  0  0  # atno 13532 bound_to 9078
  121.9512  239.7535  320.2595 LP  0  0  0  0  0  0  0  0  0  0  0  0  # atno 13533 bound_to 9121
  124.0934  238.9288  324.3080 LP  0  0  0  0  0  0  0  0  0  0  0  0  # atno 13534 bound_to 9124
  124.1140  239.2955  322.6154 LP  0  0  0  0  0  0  0  0  0  0  0  0  # atno 13535 bound_to 9124
  115.1278  239.0558  320.2993 LP  0  0  0  0  0  0  0  0  0  0  0  0  # atno 13536 bound_to 9132
  114.9684  240.0170  321.6098 LP  0  0  0  0  0  0  0  0  0  0  0  0  # atno 13537 bound_to 9132
  122.3320  239.8264  323.8892 LP  0  0  0  0  0  0  0  0  0  0  0  0  # atno 13538 bound_to 9159
  120.0033  239.5656  326.7228 LP  0  0  0  0  0  0  0  0  0  0  0  0  # atno 13539 bound_to 9162
  119.9567  237.9586  326.0782 LP  0  0  0  0  0  0  0  0  0  0  0  0  # atno 13540 bound_to 9162
  118.4480  239.0840  329.2538 LP  0  0  0  0  0  0  0  0  0  0  0  0  # atno 13541 bound_to 9236
  122.7763  249.1440  326.7465 LP  0  0  0  0  0  0  0  0  0  0  0  0  # atno 13550 bound_to 3616
  124.8795  247.9843  326.9741 LP  0  0  0  0  0  0  0  0  0  0  0  0  # atno 13551 bound_to 3645
  118.2042  247.8531  315.0139 LP  0  0  0  0  0  0  0  0  0  0  0  0  # atno 13552 bound_to 9031
  122.5972  246.5655  315.6874 LP  0  0  0  0  0  0  0  0  0  0  0  0  # atno 13553 bound_to 9034
  121.3789  247.7423  315.3258 LP  0  0  0  0  0  0  0  0  0  0  0  0  # atno 13554 bound_to 9034
  120.3470  237.7490  318.3504 LP  0  0  0  0  0  0  0  0  0  0  0  0  # atno 13555 bound_to 8404
  120.9052  238.4270  316.8576 LP  0  0  0  0  0  0  0  0  0  0  0  0  # atno 13556 bound_to 8404
  121.9647  238.4941  327.1816 LP  0  0  0  0  0  0  0  0  0  0  0  0  # atno 13557 bound_to 9189
  126.6298  246.5001  316.4715 LP  0  0  0  0  0  0  0  0  0  0  0  0  # atno 13558 bound_to 4938
  125.0797  246.3444  316.9611 LP  0  0  0  0  0  0  0  0  0  0  0  0  # atno 13559 bound_to 4938
  120.4597  246.1060  313.7002 LP  0  0  0  0  0  0  0  0  0  0  0  0  # atno 13560 bound_to 9036
  119.5006  245.1059  312.8361 LP  0  0  0  0  0  0  0  0  0  0  0  0  # atno 13561 bound_to 9036
  113.1127  245.5577  315.4283 LP  0  0  0  0  0  0  0  0  0  0  0  0  # atno 13562 bound_to 8485
  112.8718  244.5838  316.8402 LP  0  0  0  0  0  0  0  0  0  0  0  0  # atno 13563 bound_to 8485
  114.8151  249.2537  316.3609 LP  0  0  0  0  0  0  0  0  0  0  0  0  # atno 13564 bound_to 8507
  113.6102  249.3389  315.1195 LP  0  0  0  0  0  0  0  0  0  0  0  0  # atno 13565 bound_to 8507
  115.6916  248.7936  314.2430 LP  0  0  0  0  0  0  0  0  0  0  0  0  # atno 13566 bound_to 8996
  112.6493  248.6850  316.9628 LP  0  0  0  0  0  0  0  0  0  0  0  0  # atno 13567 bound_to 8535
  124.0572  247.8008  313.3522 LP  0  0  0  0  0  0  0  0  0  0  0  0  # atno 13570 bound_to 4954
  120.4634  248.0093  313.4819 LP  0  0  0  0  0  0  0  0  0  0  0  0  # atno 13571 bound_to 4957
  120.0527  249.6642  313.7860 LP  0  0  0  0  0  0  0  0  0  0  0  0  # atno 13572 bound_to 4957
  110.2399  247.0095  318.9854 LP  0  0  0  0  0  0  0  0  0  0  0  0  # atno 13573 bound_to 5599
  110.2439  247.5688  317.3461 LP  0  0  0  0  0  0  0  0  0  0  0  0  # atno 13574 bound_to 5599
  111.7000  239.4316  319.5946 LP  0  0  0  0  0  0  0  0  0  0  0  0  # atno 13575 bound_to 8378
  112.7549  238.9981  320.7633 LP  0  0  0  0  0  0  0  0  0  0  0  0  # atno 13576 bound_to 8378
  108.6055  244.3952  317.8835 LP  0  0  0  0  0  0  0  0  0  0  0  0  # atno 13581 bound_to 5624
  111.0208  239.4565  317.9402 LP  0  0  0  0  0  0  0  0  0  0  0  0  # atno 13582 bound_to 5698
  112.3117  240.1206  316.9956 LP  0  0  0  0  0  0  0  0  0  0  0  0  # atno 13583 bound_to 5698
  114.3051  237.6758  326.7434 LP  0  0  0  0  0  0  0  0  0  0  0  0  # atno 13584 bound_to 9239
  114.5185  238.6711  328.1447 LP  0  0  0  0  0  0  0  0  0  0  0  0  # atno 13585 bound_to 9239
  106.0105  244.7365  320.1503 LP  0  0  0  0  0  0  0  0  0  0  0  0  # atno 13586 bound_to 5601
  107.5906  244.4331  319.8716 LP  0  0  0  0  0  0  0  0  0  0  0  0  # atno 13587 bound_to 5601
  108.7838  242.8466  315.9858 LP  0  0  0  0  0  0  0  0  0  0  0  0  # atno 13588 bound_to 5627
  109.0918  243.2271  314.3243 LP  0  0  0  0  0  0  0  0  0  0  0  0  # atno 13589 bound_to 5627
  111.1202  243.2679  315.5909 LP  0  0  0  0  0  0  0  0  0  0  0  0  # atno 13590 bound_to 5657
  112.5509  241.4505  314.7293 LP  0  0  0  0  0  0  0  0  0  0  0  0  # atno 13591 bound_to 5695
  109.1974  239.1644  315.2564 LP  0  0  0  0  0  0  0  0  0  0  0  0  # atno 13592 bound_to 5736
  107.8589  236.7610  318.8116 LP  0  0  0  0  0  0  0  0  0  0  0  0  # atno 13593 bound_to 5785
  117.5659  234.9421  319.3408 LP  0  0  0  0  0  0  0  0  0  0  0  0  # atno 13596 bound_to 8370
  116.9764  236.4754  318.7917 LP  0  0  0  0  0  0  0  0  0  0  0  0  # atno 13597 bound_to 8370
  112.5141  237.9335  328.0604 LP  0  0  0  0  0  0  0  0  0  0  0  0  # atno 13598 bound_to 9397
  109.9591  236.7087  329.2169 LP  0  0  0  0  0  0  0  0  0  0  0  0  # atno 13601 bound_to 9355
  110.4854  236.8781  330.8583 LP  0  0  0  0  0  0  0  0  0  0  0  0  # atno 13602 bound_to 9355
  109.2006  234.0860  328.3391 LP  0  0  0  0  0  0  0  0  0  0  0  0  # atno 13603 bound_to 9400
  109.2612  234.7501  326.7406 LP  0  0  0  0  0  0  0  0  0  0  0  0  # atno 13604 bound_to 9400
  113.9393  236.3592  331.0597 LP  0  0  0  0  0  0  0  0  0  0  0  0  # atno 13608 bound_to 9352

> <Gold.Score>
     Fitness  S(hb_ext) S(vdw_ext)  S(hb_int)    S(int)      intcor
     32.01       0.00      23.61       0.00      -0.46      -0.76

> <Gold.Goldscore.Fitness>
32.0076

> <Gold.Goldscore.Internal.Vdw>
-0.6804

> <Gold.Goldscore.Internal.Torsion>
-0.5377

> <Gold.Goldscore.External.Vdw>
23.6125

> <Gold.Goldscore.Internal.HBond>
0.0000

> <Gold.Goldscore.External.HBond>
0.0000

> <Gold.Goldscore.Internal.Correction>
-0.7585

> <Gold.Goldscore.Internal.Vdw.Weighted>
-0.6804

> <Gold.Goldscore.Internal.Torsion.Weighted>
-0.5377

> <Gold.Goldscore.External.Vdw.Weighted>
32.4672

> <Gold.Goldscore.Internal.HBond.Weighted>
0.0000

> <Gold.Goldscore.External.HBond.Weighted>
0.0000

> <Gold.Goldscore.Internal.Correction.Weighted>
-0.7585

> <Gold.Rescore>
     Score     S(PLP)   S(hbond)     S(cho)   S(metal)  DE(clash)   DE(tors)     intcor
     28.61     -29.16       0.50       0.00       0.00       0.04       1.00       ----

> <Gold.PLP.Fitness>
28.6108

> <Gold.PLP.PLP>
-29.1621

> <Gold.PLP.part.hbond>
-2.7518

> <Gold.PLP.part.metal>
0.0000

> <Gold.PLP.part.buried>
-7.8343

> <Gold.PLP.part.nonpolar>
-20.6520

> <Gold.PLP.part.repulsive>
0.5321

> <Gold.PLP.ligand.clash>
0.0369

> <Gold.PLP.ligand.torsion>
1.0012

> <Gold.PLP.Chemscore.Hbond>
0.4960

> <Gold.PLP.Chemscore.CHOScore>
0.0000

> <Gold.PLP.Chemscore.Metal>
0.0000

> <Gold.PLP.Chemscore.Internal.Correction>
   9.000000E+99

