#       Name:                CT1002167954
#       Creating user name   hitesit
#       Creation time:       Sun Apr 16 20:17:47 2023


#       File generated by GOLD software.
#

@<TRIPOS>MOLECULE
CT1002167954|ligand_prepared|mol2|1|dock9
    29    30     1
SMALL
NO_CHARGES


@<TRIPOS>ATOM
      1 C1         112.3289 242.5137 324.5397 C.3            1 RES1               0.0000
      2 C2         111.7856 242.4551 325.9820 C.ar           1 RES1               0.0000
      3 C3         111.9772 243.8990 324.0053 C.2            1 RES1               0.0000
      4 C4         113.8268 242.2463 324.6370 C.2            1 RES1               0.0000
      5 C5         111.7145 241.4529 323.5970 C.3            1 RES1               0.0000
      6 C6         110.4612 242.1044 326.2265 C.ar           1 RES1               0.0000
      7 C7         112.5958 242.7458 327.0763 C.ar           1 RES1               0.0000
      8 N8         112.9886 244.8060 323.8868 N.am           1 RES1               0.0000
      9 O9         110.8233 244.2034 323.7295 O.2            1 RES1               0.0000
     10 N10        114.6835 243.2605 324.2973 N.am           1 RES1               0.0000
     11 O11        114.2729 241.1720 325.0206 O.2            1 RES1               0.0000
     12 C12        112.4188 241.3451 322.2536 C.3            1 RES1               0.0000
     13 C13        109.9655 242.0437 327.5184 C.ar           1 RES1               0.0000
     14 C14        112.0981 242.6848 328.3674 C.ar           1 RES1               0.0000
     15 C15        114.3322 244.5381 323.9561 C.2            1 RES1               0.0000
     16 C16        110.7836 242.3334 328.5896 C.ar           1 RES1               0.0000
     17 O17        115.1623 245.4104 323.7168 O.2            1 RES1               0.0000
     18 H18        111.7505 240.4756 324.0940 H              1 RES1               0.0000
     19 H19        110.6604 241.7025 323.4239 H              1 RES1               0.0000
     20 H20        109.8018 241.8755 325.3960 H              1 RES1               0.0000
     21 H21        113.6329 243.0257 326.9253 H              1 RES1               0.0000
     22 H22        112.7213 245.7730 323.7324 H              1 RES1               0.0000
     23 H23        115.6749 243.0428 324.2989 H              1 RES1               0.0000
     24 H24        111.9481 240.5870 321.6312 H              1 RES1               0.0000
     25 H25        112.3803 242.2929 321.7207 H              1 RES1               0.0000
     26 H26        113.4639 241.0733 322.3868 H              1 RES1               0.0000
     27 H27        108.9299 241.7680 327.6879 H              1 RES1               0.0000
     28 H28        112.7453 242.9141 329.2075 H              1 RES1               0.0000
     29 H29        110.3951 242.2854 329.6016 H              1 RES1               0.0000
@<TRIPOS>BOND
    1    1    2 1     
    2    1    3 1     
    3    1    4 1     
    4    1    5 1     
    5    2    6 ar    
    6    2    7 ar    
    7    3    8 1     
    8    3    9 2     
    9    4   10 1     
   10    4   11 2     
   11    5   12 1     
   12    5   18 1     
   13    5   19 1     
   14    6   13 ar    
   15    6   20 1     
   16    7   14 ar    
   17    7   21 1     
   18    8   15 1     
   19    8   22 1     
   20   10   15 1     
   21   10   23 1     
   22   12   24 1     
   23   12   25 1     
   24   12   26 1     
   25   13   16 ar    
   26   13   27 1     
   27   14   16 ar    
   28   14   28 1     
   29   15   17 2     
   30   16   29 1     
@<TRIPOS>SUBSTRUCTURE
      1 RES1           1
@<TRIPOS>SET
DONOR_HYDROGENS      STATIC     ATOMS    <user>   **** ""
2 22 23
ATOM$RED        STATIC     ATOMS    COLORGROUP SYSTEM
2 22 23
@<TRIPOS>COMMENT
> <Gold.Version>
2022.3.0

> <Gold.Id.Protein>
unknown|4uh5_clean|pdb

> <Gold.Protein.RotatedTorsions>
[ 8492 8482 8483 8484 ] final   46.63 input   34.95 | X-H torsion
[ 8520 8504 8505 8506 ] final  143.02 input  102.00 | X-H torsion
[ 9058 9051 9052 9053 ] final  119.99 input   39.76 | X-H torsion
[ 9099 9075 9076 9077 ] final  102.70 input   37.88 | X-H torsion
[ 9142 9121 9122 9123 ] final -158.53 input   94.46 | X-H torsion
[ 9150 9132 9131 9129 ] final -145.09 input   60.01 | X-H torsion
[ 9176 9159 9160 9161 ] final   50.24 input   86.63 | X-H torsion
[ 9251 9236 9237 9238 ] final   92.09 input  127.08 | X-H torsion
[ 3623 3616 3617 3618 ] final   36.77 input   94.27 | X-H torsion
[ 3649 3645 3646 3647 ] final   10.33 input   86.49 | X-H torsion
[ 9041 9031 9032 9033 ] final  140.52 input   26.45 | X-H torsion
[ 9196 9189 9190 9191 ] final   21.23 input  130.40 | X-H torsion
[ 4948 4938 4937 4934 ] final  -22.44 input   60.00 | X-H torsion
[ 9045 9036 9035 9032 ] final  -68.91 input   59.99 | X-H torsion
[ 9007 8996 8997 8998 ] final   -2.12 input   49.09 | X-H torsion
[ 8546 8535 8536 8537 ] final -172.91 input   50.11 | X-H torsion
[ 4964 4954 4955 4956 ] final  150.67 input   27.83 | X-H torsion
[ 8387 8378 8377 8375 ] final    6.91 input   59.99 | X-H torsion
[ 5633 5624 5625 5626 ] final  160.40 input   44.71 | X-H torsion
[ 5606 5601 5600 5597 ] final   95.45 input   59.98 | X-H torsion
[ 5665 5657 5658 5659 ] final  -51.37 input  114.33 | X-H torsion
[ 5703 5695 5696 5697 ] final   31.91 input   57.04 | X-H torsion
[ 5747 5736 5737 5738 ] final   97.05 input   30.88 | X-H torsion
[ 5805 5785 5786 5787 ] final   13.32 input   92.04 | X-H torsion
[ 9405 9397 9398 9399 ] final  -79.84 input  123.68 | X-H torsion
[ 9388 9352 9353 9354 ] final    7.96 input  105.06 | X-H torsion
[ 11118 11102 11103 11104 ] final    7.79 input   57.11 | X-H torsion
[ 8379 8367 8368 8369 ] final  -97.87 input   85.33 | X-H torsion
[ 5602 5596 5597 5598 ] final -144.20 input  106.64 | X-H torsion
[ 13518 8422 8421 8420 ] final   37.89 input    0.00 | X-H torsion
[ 13521 8459 8458 8457 ] final -167.50 input   -0.00 | X-H torsion
[ 13525 8999 8998 8997 ] final -159.16 input   -0.00 | X-H torsion
[ 13528 9054 9053 9052 ] final  153.06 input   -0.00 | X-H torsion
[ 13531 9078 9077 9076 ] final -102.61 input    0.00 | X-H torsion
[ 13534 9124 9123 9122 ] final -160.95 input   -0.00 | X-H torsion
[ 13539 9162 9161 9160 ] final   33.01 input   -0.00 | X-H torsion
[ 13553 9034 9033 9032 ] final   35.60 input    0.00 | X-H torsion
[ 13555 8404 8403 8402 ] final -178.39 input    0.00 | X-H torsion
[ 13562 8485 8484 8483 ] final   64.86 input    0.00 | X-H torsion
[ 13564 8507 8506 8505 ] final -164.02 input   -0.00 | X-H torsion
[ 13571 4957 4956 4955 ] final  111.77 input   -0.00 | X-H torsion
[ 13573 5599 5598 5597 ] final -152.88 input   -0.00 | X-H torsion
[ 13582 5698 5697 5696 ] final  -55.67 input   -0.00 | X-H torsion
[ 13584 9239 9238 9237 ] final -158.48 input    0.00 | X-H torsion
[ 13588 5627 5626 5625 ] final -169.75 input    0.00 | X-H torsion
[ 13596 8370 8369 8368 ] final  -17.85 input   -0.00 | X-H torsion
[ 13601 9355 9354 9353 ] final -106.41 input   -0.00 | X-H torsion
[ 13603 9400 9399 9398 ] final   39.59 input   -0.00 | X-H torsion

> <Gold.Protein.ActiveResidues>
 MET341  TRP414  CYS420  VAL421  GLY422  LEU429  LEU460  SER462  ALA463  ILE464 
 SER482  GLN483  LEU484  ILE485  ARG486  TYR487  ASP500  ALA502  ASN503  TRP566 
 TYR567  GLY568  LEU569  PRO570  ALA571  VAL572  SER573  ASN574  PRO588  PHE589 
 SER590  GLY591  TRP592  TYR593  MET594  GLY595  GLU597  ILE598  ARG601  ASP602 
 ASP605  ARG608  ILE653  VAL654  TRP683  PRO687  PHE696  HIS697  TYR711  HEM750 
 H4B760 

> <Gold.Protein.RotatedAtoms>
  122.5764  248.7113  326.8638 H   0  0  0  0  0  0  0  0  0  0  0  0  # atno 3623 bound_to 3616
  124.5678  249.3307  326.1822 H   0  0  0  0  0  0  0  0  0  0  0  0  # atno 3649 bound_to 3645
  125.3286  246.1181  316.7141 H   0  0  0  0  0  0  0  0  0  0  0  0  # atno 4948 bound_to 4938
  123.6036  246.9934  313.0373 H   0  0  0  0  0  0  0  0  0  0  0  0  # atno 4964 bound_to 4954
  105.8884  246.4240  316.5412 H   0  0  0  0  0  0  0  0  0  0  0  0  # atno 5602 bound_to 5596
  107.5665  244.4443  319.9173 H   0  0  0  0  0  0  0  0  0  0  0  0  # atno 5606 bound_to 5601
  109.0053  245.1962  318.2851 H   0  0  0  0  0  0  0  0  0  0  0  0  # atno 5633 bound_to 5624
  110.7554  243.5957  315.4851 H   0  0  0  0  0  0  0  0  0  0  0  0  # atno 5665 bound_to 5657
  111.9028  241.6059  315.2962 H   0  0  0  0  0  0  0  0  0  0  0  0  # atno 5703 bound_to 5695
  109.2660  239.4205  315.4120 H   0  0  0  0  0  0  0  0  0  0  0  0  # atno 5747 bound_to 5736
  107.5548  237.0885  318.4279 H   0  0  0  0  0  0  0  0  0  0  0  0  # atno 5805 bound_to 5785
  115.3510  232.7486  318.4505 H   0  0  0  0  0  0  0  0  0  0  0  0  # atno 8379 bound_to 8367
  111.3353  238.1722  320.4876 H   0  0  0  0  0  0  0  0  0  0  0  0  # atno 8387 bound_to 8378
  115.1008  242.9889  317.4988 H   0  0  0  0  0  0  0  0  0  0  0  0  # atno 8492 bound_to 8482
  115.5390  246.4806  318.0533 H   0  0  0  0  0  0  0  0  0  0  0  0  # atno 8520 bound_to 8504
  112.6677  247.7684  316.4247 H   0  0  0  0  0  0  0  0  0  0  0  0  # atno 8546 bound_to 8535
  115.5947  248.8448  314.6944 H   0  0  0  0  0  0  0  0  0  0  0  0  # atno 9007 bound_to 8996
  118.4765  247.7803  314.6144 H   0  0  0  0  0  0  0  0  0  0  0  0  # atno 9041 bound_to 9031
  119.9110  246.0861  313.1999 H   0  0  0  0  0  0  0  0  0  0  0  0  # atno 9045 bound_to 9036
  120.4362  245.7574  317.7081 H   0  0  0  0  0  0  0  0  0  0  0  0  # atno 9058 bound_to 9051
  123.8402  243.5042  318.8952 H   0  0  0  0  0  0  0  0  0  0  0  0  # atno 9099 bound_to 9075
  121.7648  240.5539  320.3378 H   0  0  0  0  0  0  0  0  0  0  0  0  # atno 9142 bound_to 9121
  114.9627  238.2990  320.8498 H   0  0  0  0  0  0  0  0  0  0  0  0  # atno 9150 bound_to 9132
  121.0206  240.4243  324.6362 H   0  0  0  0  0  0  0  0  0  0  0  0  # atno 9176 bound_to 9159
  122.2281  238.4178  327.5249 H   0  0  0  0  0  0  0  0  0  0  0  0  # atno 9196 bound_to 9189
  119.0564  238.4866  327.8297 H   0  0  0  0  0  0  0  0  0  0  0  0  # atno 9251 bound_to 9236
  114.1972  236.4441  330.2991 H   0  0  0  0  0  0  0  0  0  0  0  0  # atno 9388 bound_to 9352
  111.8206  237.5069  329.0186 H   0  0  0  0  0  0  0  0  0  0  0  0  # atno 9405 bound_to 9397
  125.3650  237.7360  324.3867 H   0  0  0  0  0  0  0  0  0  0  0  0  # atno 11118 bound_to 11102
  115.9009  239.1365  316.1497 LP  0  0  0  0  0  0  0  0  0  0  0  0  # atno 13518 bound_to 8422
  115.7288  240.8278  316.4812 LP  0  0  0  0  0  0  0  0  0  0  0  0  # atno 13519 bound_to 8422
  118.0600  244.7891  317.2795 LP  0  0  0  0  0  0  0  0  0  0  0  0  # atno 13521 bound_to 8459
  119.0257  243.4074  317.6774 LP  0  0  0  0  0  0  0  0  0  0  0  0  # atno 13522 bound_to 8459
  116.7896  243.3682  317.7317 LP  0  0  0  0  0  0  0  0  0  0  0  0  # atno 13523 bound_to 8482
  114.7543  246.2489  316.5089 LP  0  0  0  0  0  0  0  0  0  0  0  0  # atno 13524 bound_to 8504
  117.1959  246.9067  316.8518 LP  0  0  0  0  0  0  0  0  0  0  0  0  # atno 13525 bound_to 8999
  116.0208  247.8195  315.9653 LP  0  0  0  0  0  0  0  0  0  0  0  0  # atno 13526 bound_to 8999
  120.7277  244.8271  316.2540 LP  0  0  0  0  0  0  0  0  0  0  0  0  # atno 13527 bound_to 9051
  122.8299  241.7630  316.7471 LP  0  0  0  0  0  0  0  0  0  0  0  0  # atno 13528 bound_to 9054
  121.7057  242.9005  316.0822 LP  0  0  0  0  0  0  0  0  0  0  0  0  # atno 13529 bound_to 9054
  122.0995  243.4217  318.7492 LP  0  0  0  0  0  0  0  0  0  0  0  0  # atno 13530 bound_to 9075
  123.2485  242.5183  322.1369 LP  0  0  0  0  0  0  0  0  0  0  0  0  # atno 13531 bound_to 9078
  121.7502  242.9851  321.4041 LP  0  0  0  0  0  0  0  0  0  0  0  0  # atno 13532 bound_to 9078
  123.2580  239.9419  321.0127 LP  0  0  0  0  0  0  0  0  0  0  0  0  # atno 13533 bound_to 9121
  124.1208  238.9902  324.3189 LP  0  0  0  0  0  0  0  0  0  0  0  0  # atno 13534 bound_to 9124
  124.0866  239.2342  322.6045 LP  0  0  0  0  0  0  0  0  0  0  0  0  # atno 13535 bound_to 9124
  115.1321  239.9077  320.6764 LP  0  0  0  0  0  0  0  0  0  0  0  0  # atno 13536 bound_to 9132
  114.8043  239.2717  322.1443 LP  0  0  0  0  0  0  0  0  0  0  0  0  # atno 13537 bound_to 9132
  122.6258  240.3923  323.9449 LP  0  0  0  0  0  0  0  0  0  0  0  0  # atno 13538 bound_to 9159
  120.0335  239.2566  325.6915 LP  0  0  0  0  0  0  0  0  0  0  0  0  # atno 13539 bound_to 9162
  119.9265  238.2677  327.1095 LP  0  0  0  0  0  0  0  0  0  0  0  0  # atno 13540 bound_to 9162
  118.1957  238.6133  329.3463 LP  0  0  0  0  0  0  0  0  0  0  0  0  # atno 13541 bound_to 9236
  122.3194  249.8404  328.1754 LP  0  0  0  0  0  0  0  0  0  0  0  0  # atno 13550 bound_to 3616
  124.3465  247.6610  326.6393 LP  0  0  0  0  0  0  0  0  0  0  0  0  # atno 13551 bound_to 3645
  119.5312  248.3903  315.8622 LP  0  0  0  0  0  0  0  0  0  0  0  0  # atno 13552 bound_to 9031
  121.4241  247.8111  315.4969 LP  0  0  0  0  0  0  0  0  0  0  0  0  # atno 13553 bound_to 9034
  122.5520  246.4968  315.5162 LP  0  0  0  0  0  0  0  0  0  0  0  0  # atno 13554 bound_to 9034
  120.3045  238.8406  317.3209 LP  0  0  0  0  0  0  0  0  0  0  0  0  # atno 13555 bound_to 8404
  120.9477  237.3354  317.8872 LP  0  0  0  0  0  0  0  0  0  0  0  0  # atno 13556 bound_to 8404
  122.9457  237.6828  326.1074 LP  0  0  0  0  0  0  0  0  0  0  0  0  # atno 13557 bound_to 9189
  125.5750  247.5008  317.5355 LP  0  0  0  0  0  0  0  0  0  0  0  0  # atno 13558 bound_to 4938
  126.7799  246.8506  316.6455 LP  0  0  0  0  0  0  0  0  0  0  0  0  # atno 13559 bound_to 4938
  119.7793  244.4671  313.1014 LP  0  0  0  0  0  0  0  0  0  0  0  0  # atno 13560 bound_to 9036
  120.8811  245.1403  314.1012 LP  0  0  0  0  0  0  0  0  0  0  0  0  # atno 13561 bound_to 9036
  113.0230  244.3566  316.6231 LP  0  0  0  0  0  0  0  0  0  0  0  0  # atno 13562 bound_to 8485
  112.9615  245.7849  315.6454 LP  0  0  0  0  0  0  0  0  0  0  0  0  # atno 13563 bound_to 8485
  113.5391  249.7512  315.4412 LP  0  0  0  0  0  0  0  0  0  0  0  0  # atno 13564 bound_to 8507
  114.8862  248.8414  316.0392 LP  0  0  0  0  0  0  0  0  0  0  0  0  # atno 13565 bound_to 8507
  115.9107  250.4307  314.0317 LP  0  0  0  0  0  0  0  0  0  0  0  0  # atno 13566 bound_to 8996
  111.3828  248.4052  317.4184 LP  0  0  0  0  0  0  0  0  0  0  0  0  # atno 13567 bound_to 8535
  122.8971  248.1842  314.1010 LP  0  0  0  0  0  0  0  0  0  0  0  0  # atno 13570 bound_to 4954
  120.4668  249.5502  314.0782 LP  0  0  0  0  0  0  0  0  0  0  0  0  # atno 13571 bound_to 4957
  120.0494  248.1232  313.1897 LP  0  0  0  0  0  0  0  0  0  0  0  0  # atno 13572 bound_to 4957
  110.7562  246.8914  317.5937 LP  0  0  0  0  0  0  0  0  0  0  0  0  # atno 13573 bound_to 5599
  109.7276  247.6869  318.7379 LP  0  0  0  0  0  0  0  0  0  0  0  0  # atno 13574 bound_to 5599
  111.7675  239.4709  319.6076 LP  0  0  0  0  0  0  0  0  0  0  0  0  # atno 13575 bound_to 8378
  112.7365  238.9352  320.8079 LP  0  0  0  0  0  0  0  0  0  0  0  0  # atno 13576 bound_to 8378
  108.4769  245.0515  316.6231 LP  0  0  0  0  0  0  0  0  0  0  0  0  # atno 13581 bound_to 5624
  112.3726  239.3566  317.2140 LP  0  0  0  0  0  0  0  0  0  0  0  0  # atno 13582 bound_to 5698
  110.9598  240.2205  317.7217 LP  0  0  0  0  0  0  0  0  0  0  0  0  # atno 13583 bound_to 5698
  114.3537  237.3096  327.4622 LP  0  0  0  0  0  0  0  0  0  0  0  0  # atno 13584 bound_to 9239
  114.4699  239.0373  327.4260 LP  0  0  0  0  0  0  0  0  0  0  0  0  # atno 13585 bound_to 9239
  106.5875  244.4720  318.6179 LP  0  0  0  0  0  0  0  0  0  0  0  0  # atno 13586 bound_to 5601
  105.9775  244.7378  320.1092 LP  0  0  0  0  0  0  0  0  0  0  0  0  # atno 13587 bound_to 5601
  109.3345  242.6541  314.4871 LP  0  0  0  0  0  0  0  0  0  0  0  0  # atno 13588 bound_to 5627
  108.5410  243.4195  315.8230 LP  0  0  0  0  0  0  0  0  0  0  0  0  # atno 13589 bound_to 5627
  112.2862  244.3276  315.0749 LP  0  0  0  0  0  0  0  0  0  0  0  0  # atno 13590 bound_to 5657
  111.5925  241.4699  313.5816 LP  0  0  0  0  0  0  0  0  0  0  0  0  # atno 13591 bound_to 5695
  110.5333  238.2660  315.7747 LP  0  0  0  0  0  0  0  0  0  0  0  0  # atno 13592 bound_to 5736
  108.8177  236.2004  317.6158 LP  0  0  0  0  0  0  0  0  0  0  0  0  # atno 13593 bound_to 5785
  116.4149  235.6669  319.1895 LP  0  0  0  0  0  0  0  0  0  0  0  0  # atno 13596 bound_to 8370
  118.1273  235.7506  318.9430 LP  0  0  0  0  0  0  0  0  0  0  0  0  # atno 13597 bound_to 8370
  113.2274  236.9707  328.1352 LP  0  0  0  0  0  0  0  0  0  0  0  0  # atno 13598 bound_to 9397
  110.4891  235.9714  330.0928 LP  0  0  0  0  0  0  0  0  0  0  0  0  # atno 13601 bound_to 9355
  109.9554  237.6155  329.9824 LP  0  0  0  0  0  0  0  0  0  0  0  0  # atno 13602 bound_to 9355
  109.2593  234.7552  326.7427 LP  0  0  0  0  0  0  0  0  0  0  0  0  # atno 13603 bound_to 9400
  109.2025  234.0809  328.3371 LP  0  0  0  0  0  0  0  0  0  0  0  0  # atno 13604 bound_to 9400
  114.6010  237.6794  331.4673 LP  0  0  0  0  0  0  0  0  0  0  0  0  # atno 13608 bound_to 9352

> <Gold.Score>
     Fitness  S(hb_ext) S(vdw_ext)  S(hb_int)    S(int)      intcor
     33.80       5.36      21.29       0.00      -0.82      -0.76

> <Gold.Goldscore.Fitness>
33.8029

> <Gold.Goldscore.Internal.Vdw>
-1.0517

> <Gold.Goldscore.Internal.Torsion>
-0.5281

> <Gold.Goldscore.External.Vdw>
21.2859

> <Gold.Goldscore.Internal.HBond>
0.0000

> <Gold.Goldscore.External.HBond>
5.3560

> <Gold.Goldscore.Internal.Correction>
-0.7585

> <Gold.Goldscore.Hbonds>
donor molecule, donor type, donor heavy atom, donor atom, acceptor molecule, acceptor atom, score
      L1  H    10    23       P1  9243  0.89

> <Gold.Goldscore.Internal.Vdw.Weighted>
-1.0517

> <Gold.Goldscore.Internal.Torsion.Weighted>
-0.5281

> <Gold.Goldscore.External.Vdw.Weighted>
29.2682

> <Gold.Goldscore.Internal.HBond.Weighted>
0.0000

> <Gold.Goldscore.External.HBond.Weighted>
5.3560

> <Gold.Goldscore.Internal.Correction.Weighted>
-0.7585

> <Gold.Rescore>
     Score     S(PLP)   S(hbond)     S(cho)   S(metal)  DE(clash)   DE(tors)     intcor
     28.47     -27.58       0.85       0.00       0.00       0.03       0.81       ----

> <Gold.PLP.Fitness>
28.4727

> <Gold.PLP.PLP>
-27.5815

> <Gold.PLP.part.hbond>
-2.6510

> <Gold.PLP.part.metal>
0.0000

> <Gold.PLP.part.buried>
-6.2248

> <Gold.PLP.part.nonpolar>
-18.7656

> <Gold.PLP.part.repulsive>
0.5790

> <Gold.PLP.ligand.clash>
0.0291

> <Gold.PLP.ligand.torsion>
0.8119

> <Gold.PLP.Chemscore.Hbond>
0.8480

> <Gold.PLP.Chemscore.CHOScore>
0.0000

> <Gold.PLP.Chemscore.Metal>
0.0000

> <Gold.Chemscore.Hbonds>
donor molecule, donor type, donor heavy atom, donor atom, acceptor molecule, acceptor atom, score
      L1  H    10    23       P1  9243  1.00

> <Gold.PLP.Chemscore.Internal.Correction>
   9.000000E+99

