#       Name:                CT1002167954
#       Creating user name   hitesit
#       Creation time:       Sun Apr 16 20:17:42 2023


#       File generated by GOLD software.
#

@<TRIPOS>MOLECULE
CT1002167954|ligand_prepared|mol2|1|dock4
    29    30     1
SMALL
NO_CHARGES


@<TRIPOS>ATOM
      1 C1         114.9820 243.9041 321.6778 C.3            1 RES1               0.0000
      2 C2         116.3530 244.6076 321.6136 C.ar           1 RES1               0.0000
      3 C3         114.2216 244.3322 320.4261 C.2            1 RES1               0.0000
      4 C4         115.2727 242.4090 321.7483 C.2            1 RES1               0.0000
      5 C5         114.1411 244.2863 322.9182 C.3            1 RES1               0.0000
      6 C6         116.8894 245.0041 320.3922 C.ar           1 RES1               0.0000
      7 C7         117.0905 244.8690 322.7652 C.ar           1 RES1               0.0000
      8 N8         114.0814 243.4144 319.4272 N.am           1 RES1               0.0000
      9 O9         113.7860 245.4701 320.3010 O.2            1 RES1               0.0000
     10 N10        114.8833 241.6287 320.6913 N.am           1 RES1               0.0000
     11 O11        115.8501 241.9022 322.7022 O.2            1 RES1               0.0000
     12 C12        112.6962 243.8178 322.8474 C.3            1 RES1               0.0000
     13 C13        118.1173 245.6414 320.3247 C.ar           1 RES1               0.0000
     14 C14        118.3183 245.5062 322.6955 C.ar           1 RES1               0.0000
     15 C15        114.3284 242.0683 319.5204 C.2            1 RES1               0.0000
     16 C16        118.8323 245.8933 321.4762 C.ar           1 RES1               0.0000
     17 O17        114.0554 241.3114 318.5932 O.2            1 RES1               0.0000
     18 H18        114.6098 243.8522 323.8099 H              1 RES1               0.0000
     19 H19        114.1534 245.3774 323.0305 H              1 RES1               0.0000
     20 H20        116.3423 244.8121 319.4752 H              1 RES1               0.0000
     21 H21        116.7063 244.5725 323.7353 H              1 RES1               0.0000
     22 H22        113.7636 243.7610 318.5276 H              1 RES1               0.0000
     23 H23        115.0197 240.6273 320.7862 H              1 RES1               0.0000
     24 H24        112.1512 244.1119 323.7419 H              1 RES1               0.0000
     25 H25        112.1921 244.2507 321.9858 H              1 RES1               0.0000
     26 H26        112.6459 242.7344 322.7606 H              1 RES1               0.0000
     27 H27        118.5180 245.9428 319.3625 H              1 RES1               0.0000
     28 H28        118.8779 245.7019 323.6043 H              1 RES1               0.0000
     29 H29        119.7939 246.3929 321.4231 H              1 RES1               0.0000
@<TRIPOS>BOND
    1    1    2 1     
    2    1    3 1     
    3    1    4 1     
    4    1    5 1     
    5    2    6 ar    
    6    2    7 ar    
    7    3    8 1     
    8    3    9 2     
    9    4   10 1     
   10    4   11 2     
   11    5   12 1     
   12    5   18 1     
   13    5   19 1     
   14    6   13 ar    
   15    6   20 1     
   16    7   14 ar    
   17    7   21 1     
   18    8   15 1     
   19    8   22 1     
   20   10   15 1     
   21   10   23 1     
   22   12   24 1     
   23   12   25 1     
   24   12   26 1     
   25   13   16 ar    
   26   13   27 1     
   27   14   16 ar    
   28   14   28 1     
   29   15   17 2     
   30   16   29 1     
@<TRIPOS>SUBSTRUCTURE
      1 RES1           1
@<TRIPOS>SET
DONOR_HYDROGENS      STATIC     ATOMS    <user>   **** ""
2 22 23
ATOM$RED        STATIC     ATOMS    COLORGROUP SYSTEM
2 22 23
@<TRIPOS>COMMENT
> <Gold.Version>
2022.3.0

> <Gold.Id.Protein>
unknown|4uh5_clean|pdb

> <Gold.Protein.RotatedTorsions>
[ 8492 8482 8483 8484 ] final -161.38 input   34.95 | X-H torsion
[ 8520 8504 8505 8506 ] final  100.66 input  102.00 | X-H torsion
[ 9058 9051 9052 9053 ] final  -89.30 input   39.76 | X-H torsion
[ 9099 9075 9076 9077 ] final  -73.70 input   37.88 | X-H torsion
[ 9142 9121 9122 9123 ] final   37.72 input   94.46 | X-H torsion
[ 9150 9132 9131 9129 ] final  -90.59 input   60.01 | X-H torsion
[ 9176 9159 9160 9161 ] final   24.21 input   86.63 | X-H torsion
[ 9251 9236 9237 9238 ] final -143.21 input  127.08 | X-H torsion
[ 3623 3616 3617 3618 ] final   40.50 input   94.27 | X-H torsion
[ 3649 3645 3646 3647 ] final   18.54 input   86.49 | X-H torsion
[ 9041 9031 9032 9033 ] final  -36.04 input   26.45 | X-H torsion
[ 9196 9189 9190 9191 ] final   62.30 input  130.40 | X-H torsion
[ 4948 4938 4937 4934 ] final   48.01 input   60.00 | X-H torsion
[ 9045 9036 9035 9032 ] final  -33.71 input   59.99 | X-H torsion
[ 9007 8996 8997 8998 ] final  164.96 input   49.09 | X-H torsion
[ 8546 8535 8536 8537 ] final  -81.53 input   50.11 | X-H torsion
[ 4964 4954 4955 4956 ] final -125.01 input   27.83 | X-H torsion
[ 8387 8378 8377 8375 ] final -160.01 input   59.99 | X-H torsion
[ 5633 5624 5625 5626 ] final  154.48 input   44.71 | X-H torsion
[ 5606 5601 5600 5597 ] final -105.69 input   59.98 | X-H torsion
[ 5665 5657 5658 5659 ] final  123.91 input  114.33 | X-H torsion
[ 5703 5695 5696 5697 ] final   58.55 input   57.04 | X-H torsion
[ 5747 5736 5737 5738 ] final  156.02 input   30.88 | X-H torsion
[ 5805 5785 5786 5787 ] final  -50.28 input   92.04 | X-H torsion
[ 9405 9397 9398 9399 ] final  128.97 input  123.68 | X-H torsion
[ 9388 9352 9353 9354 ] final   -3.83 input  105.06 | X-H torsion
[ 11118 11102 11103 11104 ] final  -26.28 input   57.11 | X-H torsion
[ 8379 8367 8368 8369 ] final   10.41 input   85.33 | X-H torsion
[ 5602 5596 5597 5598 ] final   67.88 input  106.64 | X-H torsion
[ 13518 8422 8421 8420 ] final -156.43 input    0.00 | X-H torsion
[ 13521 8459 8458 8457 ] final  173.90 input   -0.00 | X-H torsion
[ 13525 8999 8998 8997 ] final   33.13 input   -0.00 | X-H torsion
[ 13528 9054 9053 9052 ] final   92.04 input   -0.00 | X-H torsion
[ 13531 9078 9077 9076 ] final  117.51 input    0.00 | X-H torsion
[ 13534 9124 9123 9122 ] final  114.70 input   -0.00 | X-H torsion
[ 13539 9162 9161 9160 ] final    4.90 input   -0.00 | X-H torsion
[ 13553 9034 9033 9032 ] final  159.67 input    0.00 | X-H torsion
[ 13555 8404 8403 8402 ] final   48.45 input    0.00 | X-H torsion
[ 13562 8485 8484 8483 ] final -121.21 input    0.00 | X-H torsion
[ 13564 8507 8506 8505 ] final  155.51 input   -0.00 | X-H torsion
[ 13571 4957 4956 4955 ] final  121.77 input   -0.00 | X-H torsion
[ 13573 5599 5598 5597 ] final  148.41 input   -0.00 | X-H torsion
[ 13582 5698 5697 5696 ] final  128.35 input   -0.00 | X-H torsion
[ 13584 9239 9238 9237 ] final  -22.99 input    0.00 | X-H torsion
[ 13588 5627 5626 5625 ] final  120.03 input    0.00 | X-H torsion
[ 13596 8370 8369 8368 ] final  114.17 input   -0.00 | X-H torsion
[ 13601 9355 9354 9353 ] final   -8.14 input   -0.00 | X-H torsion
[ 13603 9400 9399 9398 ] final -145.86 input   -0.00 | X-H torsion

> <Gold.Protein.ActiveResidues>
 MET341  TRP414  CYS420  VAL421  GLY422  LEU429  LEU460  SER462  ALA463  ILE464 
 SER482  GLN483  LEU484  ILE485  ARG486  TYR487  ASP500  ALA502  ASN503  TRP566 
 TYR567  GLY568  LEU569  PRO570  ALA571  VAL572  SER573  ASN574  PRO588  PHE589 
 SER590  GLY591  TRP592  TYR593  MET594  GLY595  GLU597  ILE598  ARG601  ASP602 
 ASP605  ARG608  ILE653  VAL654  TRP683  PRO687  PHE696  HIS697  TYR711  HEM750 
 H4B760 

> <Gold.Protein.RotatedAtoms>
  122.5467  248.6721  326.8942 H   0  0  0  0  0  0  0  0  0  0  0  0  # atno 3623 bound_to 3616
  124.4703  249.3130  326.1047 H   0  0  0  0  0  0  0  0  0  0  0  0  # atno 3649 bound_to 3645
  126.3547  246.2353  316.3993 H   0  0  0  0  0  0  0  0  0  0  0  0  # atno 4948 bound_to 4938
  124.0256  247.9991  313.4949 H   0  0  0  0  0  0  0  0  0  0  0  0  # atno 4964 bound_to 4954
  106.5552  244.9192  316.9731 H   0  0  0  0  0  0  0  0  0  0  0  0  # atno 5602 bound_to 5596
  105.7905  244.7082  319.5135 H   0  0  0  0  0  0  0  0  0  0  0  0  # atno 5606 bound_to 5601
  108.9789  245.1090  318.2961 H   0  0  0  0  0  0  0  0  0  0  0  0  # atno 5633 bound_to 5624
  112.3312  244.2746  315.0987 H   0  0  0  0  0  0  0  0  0  0  0  0  # atno 5665 bound_to 5657
  112.2717  241.5327  315.1396 H   0  0  0  0  0  0  0  0  0  0  0  0  # atno 5703 bound_to 5695
  109.9553  239.6724  315.8968 H   0  0  0  0  0  0  0  0  0  0  0  0  # atno 5747 bound_to 5736
  107.6814  237.1471  317.5136 H   0  0  0  0  0  0  0  0  0  0  0  0  # atno 5805 bound_to 5785
  115.5466  233.9656  319.1741 H   0  0  0  0  0  0  0  0  0  0  0  0  # atno 8379 bound_to 8367
  112.4146  239.5934  319.9627 H   0  0  0  0  0  0  0  0  0  0  0  0  # atno 8387 bound_to 8378
  116.8047  243.1071  317.3992 H   0  0  0  0  0  0  0  0  0  0  0  0  # atno 8492 bound_to 8482
  115.7140  246.9317  317.6353 H   0  0  0  0  0  0  0  0  0  0  0  0  # atno 8520 bound_to 8504
  112.4967  248.8002  317.1209 H   0  0  0  0  0  0  0  0  0  0  0  0  # atno 8546 bound_to 8535
  115.8815  250.5092  314.2108 H   0  0  0  0  0  0  0  0  0  0  0  0  # atno 9007 bound_to 8996
  119.5755  248.4004  315.8321 H   0  0  0  0  0  0  0  0  0  0  0  0  # atno 9041 bound_to 9031
  120.3259  246.1526  313.5792 H   0  0  0  0  0  0  0  0  0  0  0  0  # atno 9045 bound_to 9036
  120.8790  245.2260  316.1306 H   0  0  0  0  0  0  0  0  0  0  0  0  # atno 9058 bound_to 9051
  122.0730  243.4226  318.8038 H   0  0  0  0  0  0  0  0  0  0  0  0  # atno 9099 bound_to 9075
  123.1846  239.7147  320.9423 H   0  0  0  0  0  0  0  0  0  0  0  0  # atno 9142 bound_to 9121
  114.8121  238.3621  321.6911 H   0  0  0  0  0  0  0  0  0  0  0  0  # atno 9150 bound_to 9132
  121.0539  240.0498  324.5040 H   0  0  0  0  0  0  0  0  0  0  0  0  # atno 9176 bound_to 9159
  122.7792  238.1607  327.6668 H   0  0  0  0  0  0  0  0  0  0  0  0  # atno 9196 bound_to 9189
  118.6010  239.2752  329.1084 H   0  0  0  0  0  0  0  0  0  0  0  0  # atno 9251 bound_to 9236
  114.1120  236.3660  330.4391 H   0  0  0  0  0  0  0  0  0  0  0  0  # atno 9388 bound_to 9352
  113.1337  237.3486  327.9424 H   0  0  0  0  0  0  0  0  0  0  0  0  # atno 9405 bound_to 9397
  125.6510  237.3090  324.3339 H   0  0  0  0  0  0  0  0  0  0  0  0  # atno 11118 bound_to 11102
  115.6975  240.7575  316.6830 LP  0  0  0  0  0  0  0  0  0  0  0  0  # atno 13518 bound_to 8422
  115.9321  239.2068  315.9479 LP  0  0  0  0  0  0  0  0  0  0  0  0  # atno 13519 bound_to 8422
  118.0926  244.6813  317.0231 LP  0  0  0  0  0  0  0  0  0  0  0  0  # atno 13521 bound_to 8459
  118.9931  243.5152  317.9337 LP  0  0  0  0  0  0  0  0  0  0  0  0  # atno 13522 bound_to 8459
  115.1183  243.2523  317.8294 LP  0  0  0  0  0  0  0  0  0  0  0  0  # atno 13523 bound_to 8482
  114.5837  245.8090  316.9165 LP  0  0  0  0  0  0  0  0  0  0  0  0  # atno 13524 bound_to 8504
  116.0261  247.6755  315.8487 LP  0  0  0  0  0  0  0  0  0  0  0  0  # atno 13525 bound_to 8999
  117.1906  247.0508  316.9684 LP  0  0  0  0  0  0  0  0  0  0  0  0  # atno 13526 bound_to 8999
  120.2997  245.3407  317.7787 LP  0  0  0  0  0  0  0  0  0  0  0  0  # atno 13527 bound_to 9051
  123.1014  242.3830  316.1858 LP  0  0  0  0  0  0  0  0  0  0  0  0  # atno 13528 bound_to 9054
  121.4341  242.2805  316.6435 LP  0  0  0  0  0  0  0  0  0  0  0  0  # atno 13529 bound_to 9054
  123.8197  243.5011  318.8382 LP  0  0  0  0  0  0  0  0  0  0  0  0  # atno 13530 bound_to 9075
  121.6480  242.6241  321.8647 LP  0  0  0  0  0  0  0  0  0  0  0  0  # atno 13531 bound_to 9078
  123.3507  242.8794  321.6764 LP  0  0  0  0  0  0  0  0  0  0  0  0  # atno 13532 bound_to 9078
  121.8786  240.7571  320.4253 LP  0  0  0  0  0  0  0  0  0  0  0  0  # atno 13533 bound_to 9121
  124.4519  239.8823  323.6504 LP  0  0  0  0  0  0  0  0  0  0  0  0  # atno 13534 bound_to 9124
  123.7554  238.3420  323.2730 LP  0  0  0  0  0  0  0  0  0  0  0  0  # atno 13535 bound_to 9124
  115.1352  239.1330  320.2954 LP  0  0  0  0  0  0  0  0  0  0  0  0  # atno 13536 bound_to 9132
  114.9528  239.9829  321.6778 LP  0  0  0  0  0  0  0  0  0  0  0  0  # atno 13537 bound_to 9132
  122.5933  240.7575  324.0738 LP  0  0  0  0  0  0  0  0  0  0  0  0  # atno 13538 bound_to 9159
  120.0326  239.5327  326.0087 LP  0  0  0  0  0  0  0  0  0  0  0  0  # atno 13539 bound_to 9162
  119.9274  237.9916  326.7923 LP  0  0  0  0  0  0  0  0  0  0  0  0  # atno 13540 bound_to 9162
  118.6388  237.8460  328.1019 LP  0  0  0  0  0  0  0  0  0  0  0  0  # atno 13541 bound_to 9236
  122.3482  249.8784  328.1459 LP  0  0  0  0  0  0  0  0  0  0  0  0  # atno 13550 bound_to 3616
  124.4424  247.6784  326.7156 LP  0  0  0  0  0  0  0  0  0  0  0  0  # atno 13551 bound_to 3645
  118.4452  247.7775  314.6590 LP  0  0  0  0  0  0  0  0  0  0  0  0  # atno 13552 bound_to 9031
  122.5273  246.9869  316.1633 LP  0  0  0  0  0  0  0  0  0  0  0  0  # atno 13553 bound_to 9034
  121.4488  247.3209  314.8498 LP  0  0  0  0  0  0  0  0  0  0  0  0  # atno 13554 bound_to 9034
  121.2178  237.5402  317.2881 LP  0  0  0  0  0  0  0  0  0  0  0  0  # atno 13555 bound_to 8404
  120.0344  238.6358  317.9199 LP  0  0  0  0  0  0  0  0  0  0  0  0  # atno 13556 bound_to 8404
  122.4132  237.9313  325.9703 LP  0  0  0  0  0  0  0  0  0  0  0  0  # atno 13557 bound_to 9189
  124.9952  246.6467  317.1930 LP  0  0  0  0  0  0  0  0  0  0  0  0  # atno 13558 bound_to 4938
  126.3258  247.5866  317.3052 LP  0  0  0  0  0  0  0  0  0  0  0  0  # atno 13559 bound_to 4938
  119.5313  244.9239  312.8671 LP  0  0  0  0  0  0  0  0  0  0  0  0  # atno 13560 bound_to 9036
  120.7111  244.6165  313.9534 LP  0  0  0  0  0  0  0  0  0  0  0  0  # atno 13561 bound_to 9036
  112.9218  245.8263  315.7169 LP  0  0  0  0  0  0  0  0  0  0  0  0  # atno 13562 bound_to 8485
  113.0627  244.3152  316.5516 LP  0  0  0  0  0  0  0  0  0  0  0  0  # atno 13563 bound_to 8485
  113.6399  249.2759  315.0910 LP  0  0  0  0  0  0  0  0  0  0  0  0  # atno 13564 bound_to 8507
  114.7854  249.3168  316.3894 LP  0  0  0  0  0  0  0  0  0  0  0  0  # atno 13565 bound_to 8507
  115.6305  248.8047  314.5040 LP  0  0  0  0  0  0  0  0  0  0  0  0  # atno 13566 bound_to 8996
  111.5517  247.3864  316.7310 LP  0  0  0  0  0  0  0  0  0  0  0  0  # atno 13567 bound_to 8535
  122.4828  247.1968  313.6518 LP  0  0  0  0  0  0  0  0  0  0  0  0  # atno 13570 bound_to 4954
  120.3493  249.6130  314.0070 LP  0  0  0  0  0  0  0  0  0  0  0  0  # atno 13571 bound_to 4957
  120.1669  248.0605  313.2609 LP  0  0  0  0  0  0  0  0  0  0  0  0  # atno 13572 bound_to 4957
  110.7464  246.6254  318.4001 LP  0  0  0  0  0  0  0  0  0  0  0  0  # atno 13573 bound_to 5599
  109.7374  247.9529  317.9315 LP  0  0  0  0  0  0  0  0  0  0  0  0  # atno 13574 bound_to 5599
  112.3008  238.3615  321.0198 LP  0  0  0  0  0  0  0  0  0  0  0  0  # atno 13575 bound_to 8378
  111.1162  238.6132  319.9244 LP  0  0  0  0  0  0  0  0  0  0  0  0  # atno 13576 bound_to 8378
  108.5025  245.1360  316.6124 LP  0  0  0  0  0  0  0  0  0  0  0  0  # atno 13581 bound_to 5624
  110.9411  240.1695  317.7491 LP  0  0  0  0  0  0  0  0  0  0  0  0  # atno 13582 bound_to 5698
  112.3914  239.4076  317.1867 LP  0  0  0  0  0  0  0  0  0  0  0  0  # atno 13583 bound_to 5698
  114.5160  238.7980  328.0349 LP  0  0  0  0  0  0  0  0  0  0  0  0  # atno 13584 bound_to 9239
  114.3076  237.5489  326.8532 LP  0  0  0  0  0  0  0  0  0  0  0  0  # atno 13585 bound_to 9239
  107.1611  244.5619  320.3783 LP  0  0  0  0  0  0  0  0  0  0  0  0  # atno 13586 bound_to 5601
  107.1930  244.3820  318.7555 LP  0  0  0  0  0  0  0  0  0  0  0  0  # atno 13587 bound_to 5601
  108.8902  243.5451  314.4555 LP  0  0  0  0  0  0  0  0  0  0  0  0  # atno 13588 bound_to 5627
  108.9854  242.5285  315.8546 LP  0  0  0  0  0  0  0  0  0  0  0  0  # atno 13589 bound_to 5627
  110.7366  243.6600  315.4548 LP  0  0  0  0  0  0  0  0  0  0  0  0  # atno 13590 bound_to 5657
  111.2322  241.5414  313.7346 LP  0  0  0  0  0  0  0  0  0  0  0  0  # atno 13591 bound_to 5695
  109.8709  238.0239  315.3087 LP  0  0  0  0  0  0  0  0  0  0  0  0  # atno 13592 bound_to 5736
  108.6927  236.1424  318.5190 LP  0  0  0  0  0  0  0  0  0  0  0  0  # atno 13593 bound_to 5785
  117.9071  235.1408  319.2178 LP  0  0  0  0  0  0  0  0  0  0  0  0  # atno 13596 bound_to 8370
  116.6352  236.2768  318.9147 LP  0  0  0  0  0  0  0  0  0  0  0  0  # atno 13597 bound_to 8370
  111.9365  237.1264  329.1932 LP  0  0  0  0  0  0  0  0  0  0  0  0  # atno 13598 bound_to 9397
  110.4286  237.0455  330.8400 LP  0  0  0  0  0  0  0  0  0  0  0  0  # atno 13601 bound_to 9355
  110.0159  236.5414  329.2352 LP  0  0  0  0  0  0  0  0  0  0  0  0  # atno 13602 bound_to 9355
  109.2295  234.0105  328.3040 LP  0  0  0  0  0  0  0  0  0  0  0  0  # atno 13603 bound_to 9400
  109.2323  234.8256  326.7757 LP  0  0  0  0  0  0  0  0  0  0  0  0  # atno 13604 bound_to 9400
  114.6843  237.7558  331.3305 LP  0  0  0  0  0  0  0  0  0  0  0  0  # atno 13608 bound_to 9352

> <Gold.Score>
     Fitness  S(hb_ext) S(vdw_ext)  S(hb_int)    S(int)      intcor
     34.52       2.87      23.66       0.00      -0.88      -0.79

> <Gold.Goldscore.Fitness>
34.5167

> <Gold.Goldscore.Internal.Vdw>
-1.0898

> <Gold.Goldscore.Internal.Torsion>
-0.5773

> <Gold.Goldscore.External.Vdw>
23.6579

> <Gold.Goldscore.Internal.HBond>
0.0000

> <Gold.Goldscore.External.HBond>
2.8691

> <Gold.Goldscore.Internal.Correction>
-0.7850

> <Gold.Goldscore.Hbonds>
donor molecule, donor type, donor heavy atom, donor atom, acceptor molecule, acceptor atom, score
      P1  H  8378  8387       L1    17  0.07
      L1  H     8    22       P1  8485  0.36
      L1  H    10    23       P1  9132  1.00

> <Gold.Goldscore.Internal.Vdw.Weighted>
-1.0898

> <Gold.Goldscore.Internal.Torsion.Weighted>
-0.5773

> <Gold.Goldscore.External.Vdw.Weighted>
32.5296

> <Gold.Goldscore.Internal.HBond.Weighted>
0.0000

> <Gold.Goldscore.External.HBond.Weighted>
2.8691

> <Gold.Goldscore.Internal.Correction.Weighted>
-0.7850

> <Gold.Rescore>
     Score     S(PLP)   S(hbond)     S(cho)   S(metal)  DE(clash)   DE(tors)     intcor
     26.81     -25.41       1.31       0.00       0.00       1.21       0.66       ----

> <Gold.PLP.Fitness>
26.8089

> <Gold.PLP.PLP>
-25.4139

> <Gold.PLP.part.hbond>
-1.2645

> <Gold.PLP.part.metal>
0.0000

> <Gold.PLP.part.buried>
13.8489

> <Gold.PLP.part.nonpolar>
-45.0708

> <Gold.PLP.part.repulsive>
6.0471

> <Gold.PLP.ligand.clash>
1.2127

> <Gold.PLP.ligand.torsion>
0.6592

> <Gold.PLP.Chemscore.Hbond>
1.3088

> <Gold.PLP.Chemscore.CHOScore>
0.0000

> <Gold.PLP.Chemscore.Metal>
0.0000

> <Gold.Chemscore.Hbonds>
donor molecule, donor type, donor heavy atom, donor atom, acceptor molecule, acceptor atom, score
      L1  H    10    23       P1  9132  1.00

> <Gold.PLP.Chemscore.Internal.Correction>
   9.000000E+99

