@<TRIPOS>MOLECULE
A:BOG361
    48    48     1     0     1
SMALL
NO_CHARGES
****
Generated from the CSD

@<TRIPOS>ATOM
     1 C8'     -8.5290  -1.2100  -3.9610   C.3       1 BOG361   0.0000
     2 C7'     -8.4140  -2.7340  -3.8180   C.3       1 BOG361   0.0000
     3 C6'     -7.4480  -3.2770  -4.8700   C.3       1 BOG361   0.0000
     4 C5'     -7.7190  -4.7420  -5.1360   C.3       1 BOG361   0.0000
     5 C4'     -6.4270  -5.4140  -5.5860   C.3       1 BOG361   0.0000
     6 C3'     -6.6490  -6.9190  -5.8180   C.3       1 BOG361   0.0000
     7 C2'     -6.6820  -7.2740  -7.3000   C.3       1 BOG361   0.0000
     8 C1'     -5.6240  -8.3060  -7.6220   C.3       1 BOG361   0.0000
     9 C1      -5.9230 -10.3250  -6.5800   C.3       1 BOG361   0.0000
    10 O1      -6.2590  -9.5830  -7.7270   O.3       1 BOG361   0.0000
    11 C2      -6.2030 -11.7590  -6.8860   C.3       1 BOG361   0.0000
    12 O2      -7.6030 -11.7810  -6.8410   O.3       1 BOG361   0.0000
    13 C3      -5.6310 -12.6620  -5.7780   C.3       1 BOG361   0.0000
    14 O3      -5.8850 -14.0180  -6.0280   O.3       1 BOG361   0.0000
    15 C4      -4.1340 -12.5020  -5.6480   C.3       1 BOG361   0.0000
    16 O4      -3.6820 -13.1260  -4.4390   O.3       1 BOG361   0.0000
    17 C5      -3.7480 -11.0190  -5.5860   C.3       1 BOG361   0.0000
    18 O5      -4.5960  -9.9920  -6.1530   O.3       1 BOG361   0.0000
    19 C6      -2.4510 -10.8680  -6.3670   C.3       1 BOG361   0.0000
    20 O6      -1.5700 -10.1350  -5.5100   O.3       1 BOG361   0.0000
    21 H1      -3.5510 -10.7619  -4.5463   H         1 BOG361   0.0000
    22 H2      -3.9082 -14.0927  -4.4609   H         1 BOG361   0.0000
    23 H3      -5.4670 -14.2796  -6.8899   H         1 BOG361   0.0000
    24 H4      -6.4263  -3.1614  -4.5114   H         1 BOG361   0.0000
    25 H5      -7.5737  -2.7160  -5.7949   H         1 BOG361   0.0000
    26 H6      -8.9019  -0.9657  -4.9546   H         1 BOG361   0.0000
    27 H7      -9.2179  -0.8259  -3.2102   H         1 BOG361   0.0000
    28 H8      -7.5488  -0.7572  -3.8197   H         1 BOG361   0.0000
    29 H9      -9.3946  -3.1861  -3.9590   H         1 BOG361   0.0000
    30 H10     -8.0415  -2.9775  -2.8241   H         1 BOG361   0.0000
    31 H11     -5.8277 -12.0413  -7.8686   H         1 BOG361   0.0000
    32 H12     -3.6443 -12.9685  -6.5015   H         1 BOG361   0.0000
    33 H13     -6.0946 -12.3889  -4.8312   H         1 BOG361   0.0000
    34 H14     -1.4289 -10.6425  -4.6682   H         1 BOG361   0.0000
    35 H15     -6.6050 -10.0230  -5.7865   H         1 BOG361   0.0000
    36 H16     -5.6673  -5.2790  -4.8175   H         1 BOG361   0.0000
    37 H17     -6.0899  -4.9551  -6.5143   H         1 BOG361   0.0000
    38 H18     -2.6255 -10.3198  -7.2916   H         1 BOG361   0.0000
    39 H19     -2.0304 -11.8455  -6.5984   H         1 BOG361   0.0000
    40 H20     -6.4971  -6.3760  -7.8877   H         1 BOG361   0.0000
    41 H21     -7.6626  -7.6761  -7.5503   H         1 BOG361   0.0000
    42 H22     -7.5974  -7.2073  -5.3670   H         1 BOG361   0.0000
    43 H23     -5.8388  -7.4704  -5.3432   H         1 BOG361   0.0000
    44 H24     -4.8790  -8.3295  -6.8281   H         1 BOG361   0.0000
    45 H25     -5.1412  -8.0562  -8.5656   H         1 BOG361   0.0000
    46 H26     -7.9659 -11.1547  -7.5208   H         1 BOG361   0.0000
    47 H27     -8.4713  -4.8377  -5.9175   H         1 BOG361   0.0000
    48 H28     -8.0794  -5.2176  -4.2250   H         1 BOG361   0.0000
@<TRIPOS>BOND
     1     1     2    1
     2     2     3    1
     3     3     4    1
     4     4     5    1
     5     5     6    1
     6     6     7    1
     7     7     8    1
     8     8    10    1
     9     9    10    1
    10     9    11    1
    11    11    12    1
    12    11    13    1
    13    13    14    1
    14    13    15    1
    15    15    16    1
    16    15    17    1
    17     9    18    1
    18    17    18    1
    19    17    19    1
    20    19    20    1
    21    17    21    1
    22    16    22    1
    23    14    23    1
    24     3    24    1
    25     3    25    1
    26     1    26    1
    27     1    27    1
    28     1    28    1
    29     2    29    1
    30     2    30    1
    31    11    31    1
    32    15    32    1
    33    13    33    1
    34    20    34    1
    35     9    35    1
    36     5    36    1
    37     5    37    1
    38    19    38    1
    39    19    39    1
    40     7    40    1
    41     7    41    1
    42     6    42    1
    43     6    43    1
    44     8    44    1
    45     8    45    1
    46    12    46    1
    47     4    47    1
    48     4    48    1
@<TRIPOS>SUBSTRUCTURE
     1 BOG361      1 GROUP             0 A     BOG     0  
@<TRIPOS>SET
CCDC_LIGAND STATIC ATOMS
48 1 2 3 4 5 6 7 8 9 \
10 11 12 13 14 15 16 17 18 19 \
20 21 22 23 24 25 26 27 28 29 \
30 31 32 33 34 35 36 37 38 39 \
40 41 42 43 44 45 46 47 48 
