@<TRIPOS>MOLECULE
A:BOG363
    48    48     1     0     1
SMALL
NO_CHARGES
****
Generated from the CSD

@<TRIPOS>ATOM
     1 C8'     -6.3700  -1.7060   1.6560   C.3       1 BOG363   0.0000
     2 C7'     -5.9310  -0.7400   2.7850   C.3       1 BOG363   0.0000
     3 C6'     -5.9520   0.6950   2.2740   C.3       1 BOG363   0.0000
     4 C5'     -5.4390   1.6790   3.3100   C.3       1 BOG363   0.0000
     5 C4'     -5.4560   3.1070   2.7810   C.3       1 BOG363   0.0000
     6 C3'     -6.2640   3.9680   3.7470   C.3       1 BOG363   0.0000
     7 C2'     -5.6030   5.3290   4.0520   C.3       1 BOG363   0.0000
     8 C1'     -6.2580   6.3980   3.2070   C.3       1 BOG363   0.0000
     9 C1      -6.7930   8.5430   2.8760   C.3       1 BOG363   0.0000
    10 O1      -6.5880   7.5620   3.9420   O.3       1 BOG363   0.0000
    11 C2      -8.1910   9.1410   2.9070   C.3       1 BOG363   0.0000
    12 O2      -9.1210   8.1450   3.2980   O.3       1 BOG363   0.0000
    13 C3      -8.4480   9.6540   1.4900   C.3       1 BOG363   0.0000
    14 O3      -9.8140  10.0360   1.2950   O.3       1 BOG363   0.0000
    15 C4      -7.5650  10.8740   1.2000   C.3       1 BOG363   0.0000
    16 O4      -7.4970  11.0750  -0.2360   O.3       1 BOG363   0.0000
    17 C5      -6.1490  10.7860   1.8820   C.3       1 BOG363   0.0000
    18 O5      -5.8150   9.6460   2.7920   O.3       1 BOG363   0.0000
    19 C6      -5.9390  12.1170   2.6860   C.3       1 BOG363   0.0000
    20 O6      -4.7060  12.0710   3.4220   O.3       1 BOG363   0.0000
    21 H1      -4.5407   5.2790   3.8177   H         1 BOG363   0.0000
    22 H2      -5.7312   5.5684   5.1066   H         1 BOG363   0.0000
    23 H3      -4.4171   1.4123   3.5756   H         1 BOG363   0.0000
    24 H4      -6.0708   1.6221   4.1952   H         1 BOG363   0.0000
    25 H5      -5.9174   3.1285   1.7948   H         1 BOG363   0.0000
    26 H6      -4.4375   3.4865   2.7136   H         1 BOG363   0.0000
    27 H7      -8.2216   9.9712   3.6111   H         1 BOG363   0.0000
    28 H8      -8.0699  11.7421   1.6213   H         1 BOG363   0.0000
    29 H9      -8.1999   8.8653   0.7813   H         1 BOG363   0.0000
    30 H10     -5.4111  10.7793   1.0812   H         1 BOG363   0.0000
    31 H11     -6.9759   0.9603   2.0148   H         1 BOG363   0.0000
    32 H12     -5.3243   0.7607   1.3865   H         1 BOG363   0.0000
    33 H13     -6.3793   3.4225   4.6825   H         1 BOG363   0.0000
    34 H14     -7.2446   4.1504   3.3099   H         1 BOG363   0.0000
    35 H15     -7.1712   5.9890   2.7772   H         1 BOG363   0.0000
    36 H16     -5.5731   6.6757   2.4072   H         1 BOG363   0.0000
    37 H17     -4.9221  -0.9945   3.1065   H         1 BOG363   0.0000
    38 H18     -6.6149  -0.8338   3.6273   H         1 BOG363   0.0000
    39 H19    -10.0498  10.7593   1.9332   H         1 BOG363   0.0000
    40 H20     -8.4109  11.2300  -0.5922   H         1 BOG363   0.0000
    41 H21     -8.8846   7.8078   4.2016   H         1 BOG363   0.0000
    42 H22     -3.9483  11.9522   2.7913   H         1 BOG363   0.0000
    43 H23     -6.7162   7.9950   1.9381   H         1 BOG363   0.0000
    44 H24     -5.6864  -1.6140   0.8133   H         1 BOG363   0.0000
    45 H25     -6.3530  -2.7297   2.0271   H         1 BOG363   0.0000
    46 H26     -7.3792  -1.4533   1.3340   H         1 BOG363   0.0000
    47 H27     -6.7666  12.2501   3.3812   H         1 BOG363   0.0000
    48 H28     -5.9104  12.9548   1.9909   H         1 BOG363   0.0000
@<TRIPOS>BOND
     1     1     2    1
     2     2     3    1
     3     3     4    1
     4     4     5    1
     5     5     6    1
     6     6     7    1
     7     7     8    1
     8     8    10    1
     9     9    10    1
    10     9    11    1
    11    11    12    1
    12    11    13    1
    13    13    14    1
    14    13    15    1
    15    15    16    1
    16    15    17    1
    17     9    18    1
    18    17    18    1
    19    17    19    1
    20    19    20    1
    21     7    21    1
    22     7    22    1
    23     4    23    1
    24     4    24    1
    25     5    25    1
    26     5    26    1
    27    11    27    1
    28    15    28    1
    29    13    29    1
    30    17    30    1
    31     3    31    1
    32     3    32    1
    33     6    33    1
    34     6    34    1
    35     8    35    1
    36     8    36    1
    37     2    37    1
    38     2    38    1
    39    14    39    1
    40    16    40    1
    41    12    41    1
    42    20    42    1
    43     9    43    1
    44     1    44    1
    45     1    45    1
    46     1    46    1
    47    19    47    1
    48    19    48    1
@<TRIPOS>SUBSTRUCTURE
     1 BOG363      1 GROUP             0 A     BOG     0  
@<TRIPOS>SET
CCDC_LIGAND STATIC ATOMS
48 1 2 3 4 5 6 7 8 9 \
10 11 12 13 14 15 16 17 18 19 \
20 21 22 23 24 25 26 27 28 29 \
30 31 32 33 34 35 36 37 38 39 \
40 41 42 43 44 45 46 47 48 
