#       Name:                CT1002167954
#       Creating user name   hitesit
#       Creation time:       Sun Apr 16 02:21:25 2023


#       File generated by GOLD software.
#

@<TRIPOS>MOLECULE
CT1002167954|ligand_prepared|mol2|1|dock8
    29    30     1
SMALL
NO_CHARGES


@<TRIPOS>ATOM
      1 C1          90.8382  90.0491   8.8874 C.3            1 RES1               0.0000
      2 C2          90.9143  88.7820   8.0113 C.ar           1 RES1               0.0000
      3 C3          89.9303  89.7027  10.0638 C.2            1 RES1               0.0000
      4 C4          92.2726  90.3798   9.2847 C.2            1 RES1               0.0000
      5 C5          90.2490  91.2787   8.1577 C.3            1 RES1               0.0000
      6 C6          90.9088  88.8789   6.6230 C.ar           1 RES1               0.0000
      7 C7          90.9930  87.5117   8.5759 C.ar           1 RES1               0.0000
      8 N8          90.5176  89.5083  11.2792 N.am           1 RES1               0.0000
      9 O9          88.7221  89.5633   9.9191 O.2            1 RES1               0.0000
     10 N10         92.6099  90.2850  10.6095 N.am           1 RES1               0.0000
     11 O11         93.1180  90.7054   8.4604 O.2            1 RES1               0.0000
     12 C12         89.8872  92.4273   9.0860 C.3            1 RES1               0.0000
     13 C13         90.9823  87.7472   5.8279 C.ar           1 RES1               0.0000
     14 C14         91.0662  86.3812   7.7789 C.ar           1 RES1               0.0000
     15 C15         91.8055  89.8346  11.6205 C.2            1 RES1               0.0000
     16 C16         91.0615  86.4978   6.4052 C.ar           1 RES1               0.0000
     17 O17         92.1977  89.7260  12.7788 O.2            1 RES1               0.0000
     18 H18         90.9798  91.6362   7.4218 H              1 RES1               0.0000
     19 H19         89.3490  90.9682   7.6128 H              1 RES1               0.0000
     20 H20         90.8445  89.8536   6.1508 H              1 RES1               0.0000
     21 H21         90.9972  87.3958   9.6544 H              1 RES1               0.0000
     22 H22         89.9463  89.0806  12.0011 H              1 RES1               0.0000
     23 H23         93.5476  90.5775  10.8657 H              1 RES1               0.0000
     24 H24         89.4785  93.2640   8.5233 H              1 RES1               0.0000
     25 H25         89.1433  92.1140   9.8156 H              1 RES1               0.0000
     26 H26         90.7645  92.7781   9.6257 H              1 RES1               0.0000
     27 H27         90.9768  87.8443   4.7473 H              1 RES1               0.0000
     28 H28         91.1278  85.3999   8.2376 H              1 RES1               0.0000
     29 H29         91.1194  85.6115   5.7821 H              1 RES1               0.0000
@<TRIPOS>BOND
    1    1    2 1     
    2    1    3 1     
    3    1    4 1     
    4    1    5 1     
    5    2    6 ar    
    6    2    7 ar    
    7    3    8 1     
    8    3    9 2     
    9    4   10 1     
   10    4   11 2     
   11    5   12 1     
   12    5   18 1     
   13    5   19 1     
   14    6   13 ar    
   15    6   20 1     
   16    7   14 ar    
   17    7   21 1     
   18    8   15 1     
   19    8   22 1     
   20   10   15 1     
   21   10   23 1     
   22   12   24 1     
   23   12   25 1     
   24   12   26 1     
   25   13   16 ar    
   26   13   27 1     
   27   14   16 ar    
   28   14   28 1     
   29   15   17 2     
   30   16   29 1     
@<TRIPOS>SUBSTRUCTURE
      1 RES1           1
@<TRIPOS>SET
DONOR_HYDROGENS      STATIC     ATOMS    <user>   **** ""
2 22 23
ATOM$RED        STATIC     ATOMS    COLORGROUP SYSTEM
2 22 23
@<TRIPOS>COMMENT
> <Gold.Version>
2022.3.0

> <Gold.Id.Protein>
unknown|4r3c_clean|pdb

> <Gold.Protein.RotatedTorsions>
[ 4013 4008 4007 4004 ] final  119.94 input   59.99 | X-H torsion
[ 4024 4019 4018 4015 ] final    1.01 input   60.02 | X-H torsion
[ 4700 4695 4694 4691 ] final -126.57 input   59.98 | X-H torsion
[ 3252 3246 3244 3241 ] final  171.59 input   60.02 | X-H torsion

> <Gold.Protein.ActiveResidues>
 ALA190  PRO191  GLU192  ILE193  MET194  LEU195  ASN196  TRP197  MET198  HIS199 
 TYR200  ASN201  THR203  VAL204  TRP207  LEU232  ILE235  LEU236  VAL239  GLY240 
 THR241  PRO242  GLY243  LEU246  LEU247  LYS248  LYS249  ILE250  SER251  SER252 
 ALA255  ARG256  TYR258  ILE259  GLN260  LEU262  MET265  VAL290  LEU291  ASP292 
 SER293  ASP294  LYS295  ARG296 

> <Gold.Protein.RotatedAtoms>
   87.4215   81.5250    9.2732 H   0  0  0  0  0  0  0  0  0  0  0  0  # atno 3252 bound_to 3246
   88.3391   97.0029    4.6122 H   0  0  0  0  0  0  0  0  0  0  0  0  # atno 4013 bound_to 4008
   89.2909  100.3962    9.9671 H   0  0  0  0  0  0  0  0  0  0  0  0  # atno 4024 bound_to 4019
   88.5919   85.2863    8.6916 H   0  0  0  0  0  0  0  0  0  0  0  0  # atno 4700 bound_to 4695
   89.1377   96.3339    5.8626 LP  0  0  0  0  0  0  0  0  0  0  0  0  # atno 5669 bound_to 4008
   88.7597   95.4317    4.5550 LP  0  0  0  0  0  0  0  0  0  0  0  0  # atno 5670 bound_to 4008
   89.1719   99.2685   11.1345 LP  0  0  0  0  0  0  0  0  0  0  0  0  # atno 5673 bound_to 4019
   87.8371   99.7637   10.3346 LP  0  0  0  0  0  0  0  0  0  0  0  0  # atno 5674 bound_to 4019
   88.1012   84.0660    7.7340 LP  0  0  0  0  0  0  0  0  0  0  0  0  # atno 5683 bound_to 4695
   89.6941   84.3124    7.9960 LP  0  0  0  0  0  0  0  0  0  0  0  0  # atno 5684 bound_to 4695
   86.1509   81.8588   10.2331 LP  0  0  0  0  0  0  0  0  0  0  0  0  # atno 5701 bound_to 3246
   85.9533   81.7661    8.6148 LP  0  0  0  0  0  0  0  0  0  0  0  0  # atno 5702 bound_to 3246

> <Gold.Score>
     Fitness  S(hb_ext) S(vdw_ext)  S(hb_int)    S(int)      intcor
     46.85       0.00      34.56       0.00      -0.67      -0.77

> <Gold.Goldscore.Fitness>
46.8468

> <Gold.Goldscore.Internal.Vdw>
-0.8064

> <Gold.Goldscore.Internal.Torsion>
-0.6294

> <Gold.Goldscore.External.Vdw>
34.5580

> <Gold.Goldscore.Internal.HBond>
0.0000

> <Gold.Goldscore.External.HBond>
0.0000

> <Gold.Goldscore.Internal.Correction>
-0.7653

> <Gold.Goldscore.Internal.Vdw.Weighted>
-0.8064

> <Gold.Goldscore.Internal.Torsion.Weighted>
-0.6294

> <Gold.Goldscore.External.Vdw.Weighted>
47.5173

> <Gold.Goldscore.Internal.HBond.Weighted>
0.0000

> <Gold.Goldscore.External.HBond.Weighted>
0.0000

> <Gold.Goldscore.Internal.Correction.Weighted>
-0.7653

> <Gold.Rescore>
     Score     S(PLP)   S(hbond)     S(cho)   S(metal)  DE(clash)   DE(tors)     intcor
     29.46     -31.39       0.00       0.00       0.00       0.00       0.97       ----

> <Gold.PLP.Fitness>
29.4582

> <Gold.PLP.PLP>
-31.3929

> <Gold.PLP.part.hbond>
0.0000

> <Gold.PLP.part.metal>
0.0000

> <Gold.PLP.part.buried>
14.1052

> <Gold.PLP.part.nonpolar>
-47.0844

> <Gold.PLP.part.repulsive>
2.1502

> <Gold.PLP.ligand.clash>
0.0000

> <Gold.PLP.ligand.torsion>
0.9673

> <Gold.PLP.Chemscore.Hbond>
0.0000

> <Gold.PLP.Chemscore.CHOScore>
0.0000

> <Gold.PLP.Chemscore.Metal>
0.0000

> <Gold.PLP.Chemscore.Internal.Correction>
   9.000000E+99

