#       Name:                CT1002167954
#       Creating user name   hitesit
#       Creation time:       Sun Apr 16 02:21:18 2023


#       File generated by GOLD software.
#

@<TRIPOS>MOLECULE
CT1002167954|ligand_prepared|mol2|1|dock2
    29    30     1
SMALL
NO_CHARGES


@<TRIPOS>ATOM
      1 C1          90.6887  89.9982   9.1667 C.3            1 RES1               0.0000
      2 C2          90.0668  91.4042   9.0443 C.ar           1 RES1               0.0000
      3 C3          92.0991  90.1996   9.7130 C.2            1 RES1               0.0000
      4 C4          89.7712  89.2049  10.0905 C.2            1 RES1               0.0000
      5 C5          90.7861  89.2389   7.8230 C.3            1 RES1               0.0000
      6 C6          89.8989  91.9987   7.7972 C.ar           1 RES1               0.0000
      7 C7          89.6545  92.1169  10.1671 C.ar           1 RES1               0.0000
      8 N8          92.3265  89.8633  11.0149 N.am           1 RES1               0.0000
      9 O9          92.9884  90.6832   9.0234 O.2            1 RES1               0.0000
     10 N10         90.2687  88.8089  11.3044 N.am           1 RES1               0.0000
     11 O11         88.6164  88.9334   9.7852 O.2            1 RES1               0.0000
     12 C12         91.1278  87.7650   7.9750 C.3            1 RES1               0.0000
     13 C13         89.3365  93.2586   7.6766 C.ar           1 RES1               0.0000
     14 C14         89.0924  93.3769  10.0443 C.ar           1 RES1               0.0000
     15 C15         91.4947  89.1286  11.8212 C.2            1 RES1               0.0000
     16 C16         88.9325  93.9483   8.7999 C.ar           1 RES1               0.0000
     17 O17         91.8498  88.7809  12.9437 O.2            1 RES1               0.0000
     18 H18         89.8272  89.3267   7.2975 H              1 RES1               0.0000
     19 H19         91.5538  89.7170   7.2021 H              1 RES1               0.0000
     20 H20         90.2131  91.4721   6.9022 H              1 RES1               0.0000
     21 H21         89.7715  91.6875  11.1563 H              1 RES1               0.0000
     22 H22         93.1953  90.1881  11.4272 H              1 RES1               0.0000
     23 H23         89.6697  88.2213  11.8756 H              1 RES1               0.0000
     24 H24         91.1838  87.2798   7.0028 H              1 RES1               0.0000
     25 H25         92.0879  87.6408   8.4715 H              1 RES1               0.0000
     26 H26         90.3716  87.2528   8.5663 H              1 RES1               0.0000
     27 H27         89.2141  93.7045   6.6951 H              1 RES1               0.0000
     28 H28         88.7765  93.9163  10.9311 H              1 RES1               0.0000
     29 H29         88.4916  94.9351   8.7051 H              1 RES1               0.0000
@<TRIPOS>BOND
    1    1    2 1     
    2    1    3 1     
    3    1    4 1     
    4    1    5 1     
    5    2    6 ar    
    6    2    7 ar    
    7    3    8 1     
    8    3    9 2     
    9    4   10 1     
   10    4   11 2     
   11    5   12 1     
   12    5   18 1     
   13    5   19 1     
   14    6   13 ar    
   15    6   20 1     
   16    7   14 ar    
   17    7   21 1     
   18    8   15 1     
   19    8   22 1     
   20   10   15 1     
   21   10   23 1     
   22   12   24 1     
   23   12   25 1     
   24   12   26 1     
   25   13   16 ar    
   26   13   27 1     
   27   14   16 ar    
   28   14   28 1     
   29   15   17 2     
   30   16   29 1     
@<TRIPOS>SUBSTRUCTURE
      1 RES1           1
@<TRIPOS>SET
DONOR_HYDROGENS      STATIC     ATOMS    <user>   **** ""
2 22 23
ATOM$RED        STATIC     ATOMS    COLORGROUP SYSTEM
2 22 23
@<TRIPOS>COMMENT
> <Gold.Version>
2022.3.0

> <Gold.Id.Protein>
unknown|4r3c_clean|pdb

> <Gold.Protein.RotatedTorsions>
[ 4013 4008 4007 4004 ] final   28.60 input   59.99 | X-H torsion
[ 4024 4019 4018 4015 ] final  136.32 input   60.02 | X-H torsion
[ 4700 4695 4694 4691 ] final -130.46 input   59.98 | X-H torsion
[ 3252 3246 3244 3241 ] final -176.07 input   60.02 | X-H torsion

> <Gold.Protein.ActiveResidues>
 ALA190  PRO191  GLU192  ILE193  MET194  LEU195  ASN196  TRP197  MET198  HIS199 
 TYR200  ASN201  THR203  VAL204  TRP207  LEU232  ILE235  LEU236  VAL239  GLY240 
 THR241  PRO242  GLY243  LEU246  LEU247  LYS248  LYS249  ILE250  SER251  SER252 
 ALA255  ARG256  TYR258  ILE259  GLN260  LEU262  MET265  VAL290  LEU291  ASP292 
 SER293  ASP294  LYS295  ARG296 

> <Gold.Protein.RotatedAtoms>
   87.3762   81.5180    9.0773 H   0  0  0  0  0  0  0  0  0  0  0  0  # atno 3252 bound_to 3246
   88.9725   96.7581    5.7672 H   0  0  0  0  0  0  0  0  0  0  0  0  # atno 4013 bound_to 4008
   87.8580   99.5923   10.5159 H   0  0  0  0  0  0  0  0  0  0  0  0  # atno 4024 bound_to 4019
   88.5305   85.2750    8.6802 H   0  0  0  0  0  0  0  0  0  0  0  0  # atno 4700 bound_to 4695
   88.9803   95.3464    4.9574 LP  0  0  0  0  0  0  0  0  0  0  0  0  # atno 5669 bound_to 4008
   88.2795   96.6656    4.2976 LP  0  0  0  0  0  0  0  0  0  0  0  0  # atno 5670 bound_to 4008
   89.0719  100.4565    9.8616 LP  0  0  0  0  0  0  0  0  0  0  0  0  # atno 5673 bound_to 4019
   89.3796   99.3851   11.0549 LP  0  0  0  0  0  0  0  0  0  0  0  0  # atno 5674 bound_to 4019
   88.1461   84.0287    7.7076 LP  0  0  0  0  0  0  0  0  0  0  0  0  # atno 5683 bound_to 4695
   89.7112   84.3610    8.0339 LP  0  0  0  0  0  0  0  0  0  0  0  0  # atno 5684 bound_to 4695
   86.3413   81.8258   10.2944 LP  0  0  0  0  0  0  0  0  0  0  0  0  # atno 5701 bound_to 3246
   85.8085   81.8061    8.7509 LP  0  0  0  0  0  0  0  0  0  0  0  0  # atno 5702 bound_to 3246

> <Gold.Score>
     Fitness  S(hb_ext) S(vdw_ext)  S(hb_int)    S(int)      intcor
     43.05       0.17      31.82       0.00      -0.88      -0.78

> <Gold.Goldscore.Fitness>
43.0493

> <Gold.Goldscore.Internal.Vdw>
-1.0713

> <Gold.Goldscore.Internal.Torsion>
-0.5809

> <Gold.Goldscore.External.Vdw>
31.8222

> <Gold.Goldscore.Internal.HBond>
0.0000

> <Gold.Goldscore.External.HBond>
0.1707

> <Gold.Goldscore.Internal.Correction>
-0.7752

> <Gold.Goldscore.Hbonds>
donor molecule, donor type, donor heavy atom, donor atom, acceptor molecule, acceptor atom, score
      L1  H    10    23       P1  3036  0.03

> <Gold.Goldscore.Internal.Vdw.Weighted>
-1.0713

> <Gold.Goldscore.Internal.Torsion.Weighted>
-0.5809

> <Gold.Goldscore.External.Vdw.Weighted>
43.7555

> <Gold.Goldscore.Internal.HBond.Weighted>
0.0000

> <Gold.Goldscore.External.HBond.Weighted>
0.1707

> <Gold.Goldscore.Internal.Correction.Weighted>
-0.7752

> <Gold.Rescore>
     Score     S(PLP)   S(hbond)     S(cho)   S(metal)  DE(clash)   DE(tors)     intcor
     33.59     -34.81       0.00       0.00       0.00       0.00       0.61       ----

> <Gold.PLP.Fitness>
33.5913

> <Gold.PLP.PLP>
-34.8117

> <Gold.PLP.part.hbond>
0.0000

> <Gold.PLP.part.metal>
0.0000

> <Gold.PLP.part.buried>
15.3494

> <Gold.PLP.part.nonpolar>
-51.4310

> <Gold.PLP.part.repulsive>
1.0772

> <Gold.PLP.ligand.clash>
0.0000

> <Gold.PLP.ligand.torsion>
0.6102

> <Gold.PLP.Chemscore.Hbond>
0.0000

> <Gold.PLP.Chemscore.CHOScore>
0.0000

> <Gold.PLP.Chemscore.Metal>
0.0000

> <Gold.PLP.Chemscore.Internal.Correction>
   9.000000E+99

