#       Name:                CT1002167954
#       Creating user name   hitesit
#       Creation time:       Sun Apr 16 02:21:20 2023


#       File generated by GOLD software.
#

@<TRIPOS>MOLECULE
CT1002167954|ligand_prepared|mol2|1|dock4
    29    30     1
SMALL
NO_CHARGES


@<TRIPOS>ATOM
      1 C1          90.7456  89.7421   9.7366 C.3            1 RES1               0.0000
      2 C2          91.2036  89.4436  11.1788 C.ar           1 RES1               0.0000
      3 C3          91.9821  89.5937   8.8549 C.2            1 RES1               0.0000
      4 C4          89.6364  88.7432   9.4259 C.2            1 RES1               0.0000
      5 C5          90.1736  91.1660   9.5448 C.3            1 RES1               0.0000
      6 C6          91.9767  90.3631  11.8814 C.ar           1 RES1               0.0000
      7 C7          90.8595  88.2564  11.8196 C.ar           1 RES1               0.0000
      8 N8          92.0643  88.4864   8.0631 N.am           1 RES1               0.0000
      9 O9          92.8896  90.4158   8.8834 O.2            1 RES1               0.0000
     10 N10         89.8702  87.8059   8.4540 N.am           1 RES1               0.0000
     11 O11         88.5684  88.7487  10.0255 O.2            1 RES1               0.0000
     12 C12         89.6119  91.4190   8.1546 C.3            1 RES1               0.0000
     13 C13         92.3883  90.1065  13.1787 C.ar           1 RES1               0.0000
     14 C14         91.2723  88.0016  13.1170 C.ar           1 RES1               0.0000
     15 C15         91.0452  87.6129   7.7800 C.2            1 RES1               0.0000
     16 C16         92.0361  88.9259  13.7975 C.ar           1 RES1               0.0000
     17 O17         91.1958  86.7131   6.9584 O.2            1 RES1               0.0000
     18 H18         89.3780  91.3292  10.2822 H              1 RES1               0.0000
     19 H19         90.9687  91.8955   9.7424 H              1 RES1               0.0000
     20 H20         92.2656  91.2965  11.4099 H              1 RES1               0.0000
     21 H21         90.2601  87.5142  11.3033 H              1 RES1               0.0000
     22 H22         92.9669  88.2895   7.6427 H              1 RES1               0.0000
     23 H23         89.0966  87.1956   8.2103 H              1 RES1               0.0000
     24 H24         89.2238  92.4322   8.0739 H              1 RES1               0.0000
     25 H25         90.3828  91.2901   7.3977 H              1 RES1               0.0000
     26 H26         88.8015  90.7272   7.9343 H              1 RES1               0.0000
     27 H27         92.9903  90.8366  13.7095 H              1 RES1               0.0000
     28 H28         90.9933  87.0709  13.5999 H              1 RES1               0.0000
     29 H29         92.3583  88.7253  14.8139 H              1 RES1               0.0000
@<TRIPOS>BOND
    1    1    2 1     
    2    1    3 1     
    3    1    4 1     
    4    1    5 1     
    5    2    6 ar    
    6    2    7 ar    
    7    3    8 1     
    8    3    9 2     
    9    4   10 1     
   10    4   11 2     
   11    5   12 1     
   12    5   18 1     
   13    5   19 1     
   14    6   13 ar    
   15    6   20 1     
   16    7   14 ar    
   17    7   21 1     
   18    8   15 1     
   19    8   22 1     
   20   10   15 1     
   21   10   23 1     
   22   12   24 1     
   23   12   25 1     
   24   12   26 1     
   25   13   16 ar    
   26   13   27 1     
   27   14   16 ar    
   28   14   28 1     
   29   15   17 2     
   30   16   29 1     
@<TRIPOS>SUBSTRUCTURE
      1 RES1           1
@<TRIPOS>SET
DONOR_HYDROGENS      STATIC     ATOMS    <user>   **** ""
2 22 23
ATOM$RED        STATIC     ATOMS    COLORGROUP SYSTEM
2 22 23
@<TRIPOS>COMMENT
> <Gold.Version>
2022.3.0

> <Gold.Id.Protein>
unknown|4r3c_clean|pdb

> <Gold.Protein.RotatedTorsions>
[ 4013 4008 4007 4004 ] final -179.40 input   59.99 | X-H torsion
[ 4024 4019 4018 4015 ] final  -41.53 input   60.02 | X-H torsion
[ 4700 4695 4694 4691 ] final  105.96 input   59.98 | X-H torsion
[ 3252 3246 3244 3241 ] final -128.70 input   60.02 | X-H torsion

> <Gold.Protein.ActiveResidues>
 ALA190  PRO191  GLU192  ILE193  MET194  LEU195  ASN196  TRP197  MET198  HIS199 
 TYR200  ASN201  THR203  VAL204  TRP207  LEU232  ILE235  LEU236  VAL239  GLY240 
 THR241  PRO242  GLY243  LEU246  LEU247  LYS248  LYS249  ILE250  SER251  SER252 
 ALA255  ARG256  TYR258  ILE259  GLN260  LEU262  MET265  VAL290  LEU291  ASP292 
 SER293  ASP294  LYS295  ARG296 

> <Gold.Protein.RotatedAtoms>
   86.8722   81.5732    8.5221 H   0  0  0  0  0  0  0  0  0  0  0  0  # atno 3252 bound_to 3246
   88.3578   96.1720    4.1605 H   0  0  0  0  0  0  0  0  0  0  0  0  # atno 4013 bound_to 4008
   89.6707  100.0499   10.4112 H   0  0  0  0  0  0  0  0  0  0  0  0  # atno 4024 bound_to 4019
   88.1944   83.9993    7.6902 H   0  0  0  0  0  0  0  0  0  0  0  0  # atno 4700 bound_to 4695
   88.7225   97.0879    5.4554 LP  0  0  0  0  0  0  0  0  0  0  0  0  # atno 5669 bound_to 4008
   89.1561   95.5141    5.4169 LP  0  0  0  0  0  0  0  0  0  0  0  0  # atno 5670 bound_to 4008
   88.4969   99.1622   11.1059 LP  0  0  0  0  0  0  0  0  0  0  0  0  # atno 5673 bound_to 4019
   88.1297  100.2186    9.9161 LP  0  0  0  0  0  0  0  0  0  0  0  0  # atno 5674 bound_to 4019
   89.7232   84.4067    8.0694 LP  0  0  0  0  0  0  0  0  0  0  0  0  # atno 5683 bound_to 4695
   88.4726   85.2684    8.6696 LP  0  0  0  0  0  0  0  0  0  0  0  0  # atno 5684 bound_to 4695
   87.0649   81.6685   10.1349 LP  0  0  0  0  0  0  0  0  0  0  0  0  # atno 5701 bound_to 3246
   85.5927   81.9078    9.4699 LP  0  0  0  0  0  0  0  0  0  0  0  0  # atno 5702 bound_to 3246

> <Gold.Score>
     Fitness  S(hb_ext) S(vdw_ext)  S(hb_int)    S(int)      intcor
     35.47       0.00      26.85       0.00      -1.45      -0.77

> <Gold.Goldscore.Fitness>
35.4687

> <Gold.Goldscore.Internal.Vdw>
-1.8097

> <Gold.Goldscore.Internal.Torsion>
-0.4046

> <Gold.Goldscore.External.Vdw>
26.8492

> <Gold.Goldscore.Internal.HBond>
0.0000

> <Gold.Goldscore.External.HBond>
0.0000

> <Gold.Goldscore.Internal.Correction>
-0.7653

> <Gold.Goldscore.Internal.Vdw.Weighted>
-1.8097

> <Gold.Goldscore.Internal.Torsion.Weighted>
-0.4046

> <Gold.Goldscore.External.Vdw.Weighted>
36.9177

> <Gold.Goldscore.Internal.HBond.Weighted>
0.0000

> <Gold.Goldscore.External.HBond.Weighted>
0.0000

> <Gold.Goldscore.Internal.Correction.Weighted>
-0.7653

> <Gold.Rescore>
     Score     S(PLP)   S(hbond)     S(cho)   S(metal)  DE(clash)   DE(tors)     intcor
     29.23     -31.91       0.00       0.00       0.00       1.44       0.62       ----

> <Gold.PLP.Fitness>
29.2335

> <Gold.PLP.PLP>
-31.9086

> <Gold.PLP.part.hbond>
0.0000

> <Gold.PLP.part.metal>
0.0000

> <Gold.PLP.part.buried>
14.2938

> <Gold.PLP.part.nonpolar>
-48.5788

> <Gold.PLP.part.repulsive>
0.5284

> <Gold.PLP.ligand.clash>
1.4430

> <Gold.PLP.ligand.torsion>
0.6160

> <Gold.PLP.Chemscore.Hbond>
0.0000

> <Gold.PLP.Chemscore.CHOScore>
0.0000

> <Gold.PLP.Chemscore.Metal>
0.0000

> <Gold.PLP.Chemscore.Internal.Correction>
   9.000000E+99

