#       Name:                CT1002167954
#       Creating user name   hitesit
#       Creation time:       Sun Apr 16 02:21:26 2023


#       File generated by GOLD software.
#

@<TRIPOS>MOLECULE
CT1002167954|ligand_prepared|mol2|1|dock9
    29    30     1
SMALL
NO_CHARGES


@<TRIPOS>ATOM
      1 C1          90.9249  89.0560   9.4937 C.3            1 RES1               0.0000
      2 C2          91.2625  88.9902  10.9972 C.ar           1 RES1               0.0000
      3 C3          89.5092  89.6168   9.3966 C.2            1 RES1               0.0000
      4 C4          91.9898  89.9411   8.8556 C.2            1 RES1               0.0000
      5 C5          90.9585  87.6818   8.7851 C.3            1 RES1               0.0000
      6 C6          91.8854  90.0612  11.6310 C.ar           1 RES1               0.0000
      7 C7          90.9554  87.8685  11.7627 C.ar           1 RES1               0.0000
      8 N8          89.3676  90.9044   8.9700 N.am           1 RES1               0.0000
      9 O9          88.5346  88.9525   9.7270 O.2            1 RES1               0.0000
     10 N10         91.5935  91.1394   8.3220 N.am           1 RES1               0.0000
     11 O11         93.1712  89.6191   8.8249 O.2            1 RES1               0.0000
     12 C12         91.0513  87.7752   7.2702 C.3            1 RES1               0.0000
     13 C13         92.1877  90.0138  12.9818 C.ar           1 RES1               0.0000
     14 C14         91.2588  87.8231  13.1134 C.ar           1 RES1               0.0000
     15 C15         90.3356  91.6750   8.3777 C.2            1 RES1               0.0000
     16 C16         91.8742  88.8950  13.7239 C.ar           1 RES1               0.0000
     17 O17         90.0684  92.7834   7.9226 O.2            1 RES1               0.0000
     18 H18         91.8198  87.1136   9.1573 H              1 RES1               0.0000
     19 H19         90.0505  87.1259   9.0496 H              1 RES1               0.0000
     20 H20         92.1419  90.9491  11.0627 H              1 RES1               0.0000
     21 H21         90.4721  87.0130  11.3032 H              1 RES1               0.0000
     22 H22         88.4578  91.3342   9.1040 H              1 RES1               0.0000
     23 H23         92.3017  91.6824   7.8384 H              1 RES1               0.0000
     24 H24         91.0716  86.7835   6.8232 H              1 RES1               0.0000
     25 H25         90.1971  88.3126   6.8638 H              1 RES1               0.0000
     26 H26         91.9559  88.3004   6.9709 H              1 RES1               0.0000
     27 H27         92.6733  90.8595  13.4573 H              1 RES1               0.0000
     28 H28         91.0108  86.9403  13.6934 H              1 RES1               0.0000
     29 H29         92.1108  88.8583  14.7822 H              1 RES1               0.0000
@<TRIPOS>BOND
    1    1    2 1     
    2    1    3 1     
    3    1    4 1     
    4    1    5 1     
    5    2    6 ar    
    6    2    7 ar    
    7    3    8 1     
    8    3    9 2     
    9    4   10 1     
   10    4   11 2     
   11    5   12 1     
   12    5   18 1     
   13    5   19 1     
   14    6   13 ar    
   15    6   20 1     
   16    7   14 ar    
   17    7   21 1     
   18    8   15 1     
   19    8   22 1     
   20   10   15 1     
   21   10   23 1     
   22   12   24 1     
   23   12   25 1     
   24   12   26 1     
   25   13   16 ar    
   26   13   27 1     
   27   14   16 ar    
   28   14   28 1     
   29   15   17 2     
   30   16   29 1     
@<TRIPOS>SUBSTRUCTURE
      1 RES1           1
@<TRIPOS>SET
DONOR_HYDROGENS      STATIC     ATOMS    <user>   **** ""
2 22 23
ATOM$RED        STATIC     ATOMS    COLORGROUP SYSTEM
2 22 23
@<TRIPOS>COMMENT
> <Gold.Version>
2022.3.0

> <Gold.Id.Protein>
unknown|4r3c_clean|pdb

> <Gold.Protein.RotatedTorsions>
[ 4013 4008 4007 4004 ] final   88.02 input   59.99 | X-H torsion
[ 4024 4019 4018 4015 ] final    7.30 input   60.02 | X-H torsion
[ 4700 4695 4694 4691 ] final   13.99 input   59.98 | X-H torsion
[ 3252 3246 3244 3241 ] final -116.33 input   60.02 | X-H torsion

> <Gold.Protein.ActiveResidues>
 ALA190  PRO191  GLU192  ILE193  MET194  LEU195  ASN196  TRP197  MET198  HIS199 
 TYR200  ASN201  THR203  VAL204  TRP207  LEU232  ILE235  LEU236  VAL239  GLY240 
 THR241  PRO242  GLY243  LEU246  LEU247  LYS248  LYS249  ILE250  SER251  SER252 
 ALA255  ARG256  TYR258  ILE259  GLN260  LEU262  MET265  VAL290  LEU291  ASP292 
 SER293  ASP294  LYS295  ARG296 

> <Gold.Protein.RotatedAtoms>
   86.6832   81.6058    8.4602 H   0  0  0  0  0  0  0  0  0  0  0  0  # atno 3252 bound_to 3246
   88.5153   97.1638    5.0687 H   0  0  0  0  0  0  0  0  0  0  0  0  # atno 4013 bound_to 4008
   89.2038  100.4238    9.9199 H   0  0  0  0  0  0  0  0  0  0  0  0  # atno 4024 bound_to 4019
   89.5320   84.0813    7.8148 H   0  0  0  0  0  0  0  0  0  0  0  0  # atno 4700 bound_to 4695
   89.2081   95.8414    5.7166 LP  0  0  0  0  0  0  0  0  0  0  0  0  # atno 5669 bound_to 4008
   88.5119   95.7622    4.2416 LP  0  0  0  0  0  0  0  0  0  0  0  0  # atno 5670 bound_to 4008
   89.2617   99.3122   11.1071 LP  0  0  0  0  0  0  0  0  0  0  0  0  # atno 5673 bound_to 4019
   87.8350   99.6922   10.4095 LP  0  0  0  0  0  0  0  0  0  0  0  0  # atno 5674 bound_to 4019
   88.9266   85.2962    8.7119 LP  0  0  0  0  0  0  0  0  0  0  0  0  # atno 5683 bound_to 4695
   87.9216   84.2962    7.9015 LP  0  0  0  0  0  0  0  0  0  0  0  0  # atno 5684 bound_to 4695
   87.2106   81.6283    9.9993 LP  0  0  0  0  0  0  0  0  0  0  0  0  # atno 5701 bound_to 3246
   85.6375   81.9150    9.6678 LP  0  0  0  0  0  0  0  0  0  0  0  0  # atno 5702 bound_to 3246

> <Gold.Score>
     Fitness  S(hb_ext) S(vdw_ext)  S(hb_int)    S(int)      intcor
     40.58       0.00      30.17       0.00      -0.90      -0.77

> <Gold.Goldscore.Fitness>
40.5824

> <Gold.Goldscore.Internal.Vdw>
-0.8284

> <Gold.Goldscore.Internal.Torsion>
-0.8324

> <Gold.Goldscore.External.Vdw>
30.1657

> <Gold.Goldscore.Internal.HBond>
0.0000

> <Gold.Goldscore.External.HBond>
0.0000

> <Gold.Goldscore.Internal.Correction>
-0.7653

> <Gold.Goldscore.Internal.Vdw.Weighted>
-0.8284

> <Gold.Goldscore.Internal.Torsion.Weighted>
-0.8324

> <Gold.Goldscore.External.Vdw.Weighted>
41.4778

> <Gold.Goldscore.Internal.HBond.Weighted>
0.0000

> <Gold.Goldscore.External.HBond.Weighted>
0.0000

> <Gold.Goldscore.Internal.Correction.Weighted>
-0.7653

> <Gold.Rescore>
     Score     S(PLP)   S(hbond)     S(cho)   S(metal)  DE(clash)   DE(tors)     intcor
     27.59     -30.89       0.00       0.00       0.00       1.78       0.76       ----

> <Gold.PLP.Fitness>
27.5924

> <Gold.PLP.PLP>
-30.8883

> <Gold.PLP.part.hbond>
0.0000

> <Gold.PLP.part.metal>
0.0000

> <Gold.PLP.part.buried>
14.7880

> <Gold.PLP.part.nonpolar>
-45.2782

> <Gold.PLP.part.repulsive>
0.6631

> <Gold.PLP.ligand.clash>
1.7822

> <Gold.PLP.ligand.torsion>
0.7568

> <Gold.PLP.Chemscore.Hbond>
0.0000

> <Gold.PLP.Chemscore.CHOScore>
0.0000

> <Gold.PLP.Chemscore.Metal>
0.0000

> <Gold.PLP.Chemscore.Internal.Correction>
   9.000000E+99

