#       Name:                CT1002167954
#       Creating user name   hitesit
#       Creation time:       Sun Apr 16 02:21:19 2023


#       File generated by GOLD software.
#

@<TRIPOS>MOLECULE
CT1002167954|ligand_prepared|mol2|1|dock3
    29    30     1
SMALL
NO_CHARGES


@<TRIPOS>ATOM
      1 C1          90.4781  89.2301   9.6024 C.3            1 RES1               0.0000
      2 C2          90.9138  89.0529  11.0713 C.ar           1 RES1               0.0000
      3 C3          91.7579  89.2195   8.7716 C.2            1 RES1               0.0000
      4 C4          89.5286  88.0769   9.2970 C.2            1 RES1               0.0000
      5 C5          89.7259  90.5534   9.3291 C.3            1 RES1               0.0000
      6 C6          91.6444  90.0450  11.7183 C.ar           1 RES1               0.0000
      7 C7          90.5909  87.9061  11.7919 C.ar           1 RES1               0.0000
      8 N8          92.0219  88.1045   8.0320 N.am           1 RES1               0.0000
      9 O9          92.5432  90.1591   8.7959 O.2            1 RES1               0.0000
     10 N10         89.9268  87.1441   8.3755 N.am           1 RES1               0.0000
     11 O11         88.4464  87.9584   9.8583 O.2            1 RES1               0.0000
     12 C12         89.7562  90.9861   7.8717 C.3            1 RES1               0.0000
     13 C13         92.0356  89.8975  13.0387 C.ar           1 RES1               0.0000
     14 C14         90.9833  87.7605  13.1122 C.ar           1 RES1               0.0000
     15 C15         91.1434  87.0889   7.7518 C.2            1 RES1               0.0000
     16 C16         91.7050  88.7555  13.7366 C.ar           1 RES1               0.0000
     17 O17         91.4481  86.1876   6.9759 O.2            1 RES1               0.0000
     18 H18         88.6808  90.4364   9.6411 H              1 RES1               0.0000
     19 H19         90.1721  91.3462   9.9421 H              1 RES1               0.0000
     20 H20         91.9160  90.9496  11.1844 H              1 RES1               0.0000
     21 H21         90.0247  87.1098  11.3207 H              1 RES1               0.0000
     22 H22         92.9592  88.0177   7.6523 H              1 RES1               0.0000
     23 H23         89.2538  86.4243   8.1318 H              1 RES1               0.0000
     24 H24         89.2143  91.9196   7.7352 H              1 RES1               0.0000
     25 H25         90.7799  91.1362   7.5350 H              1 RES1               0.0000
     26 H26         89.2974  90.2317   7.2358 H              1 RES1               0.0000
     27 H27         92.6046  90.6829  13.5251 H              1 RES1               0.0000
     28 H28         90.7214  86.8597  13.6575 H              1 RES1               0.0000
     29 H29         92.0112  88.6403  14.7711 H              1 RES1               0.0000
@<TRIPOS>BOND
    1    1    2 1     
    2    1    3 1     
    3    1    4 1     
    4    1    5 1     
    5    2    6 ar    
    6    2    7 ar    
    7    3    8 1     
    8    3    9 2     
    9    4   10 1     
   10    4   11 2     
   11    5   12 1     
   12    5   18 1     
   13    5   19 1     
   14    6   13 ar    
   15    6   20 1     
   16    7   14 ar    
   17    7   21 1     
   18    8   15 1     
   19    8   22 1     
   20   10   15 1     
   21   10   23 1     
   22   12   24 1     
   23   12   25 1     
   24   12   26 1     
   25   13   16 ar    
   26   13   27 1     
   27   14   16 ar    
   28   14   28 1     
   29   15   17 2     
   30   16   29 1     
@<TRIPOS>SUBSTRUCTURE
      1 RES1           1
@<TRIPOS>SET
DONOR_HYDROGENS      STATIC     ATOMS    <user>   **** ""
2 22 23
ATOM$RED        STATIC     ATOMS    COLORGROUP SYSTEM
2 22 23
@<TRIPOS>COMMENT
> <Gold.Version>
2022.3.0

> <Gold.Id.Protein>
unknown|4r3c_clean|pdb

> <Gold.Protein.RotatedTorsions>
[ 4013 4008 4007 4004 ] final  105.06 input   59.99 | X-H torsion
[ 4024 4019 4018 4015 ] final   15.86 input   60.02 | X-H torsion
[ 4700 4695 4694 4691 ] final  -13.29 input   59.98 | X-H torsion
[ 3252 3246 3244 3241 ] final -171.01 input   60.02 | X-H torsion

> <Gold.Protein.ActiveResidues>
 ALA190  PRO191  GLU192  ILE193  MET194  LEU195  ASN196  TRP197  MET198  HIS199 
 TYR200  ASN201  THR203  VAL204  TRP207  LEU232  ILE235  LEU236  VAL239  GLY240 
 THR241  PRO242  GLY243  LEU246  LEU247  LYS248  LYS249  ILE250  SER251  SER252 
 ALA255  ARG256  TYR258  ILE259  GLN260  LEU262  MET265  VAL290  LEU291  ASP292 
 SER293  ASP294  LYS295  ARG296 

> <Gold.Protein.RotatedAtoms>
   87.3460   81.5178    9.0005 H   0  0  0  0  0  0  0  0  0  0  0  0  # atno 3252 bound_to 3246
   88.4085   97.1108    4.8181 H   0  0  0  0  0  0  0  0  0  0  0  0  # atno 4013 bound_to 4008
   89.0773  100.4494    9.8666 H   0  0  0  0  0  0  0  0  0  0  0  0  # atno 4024 bound_to 4019
   89.7141   84.3969    8.0642 H   0  0  0  0  0  0  0  0  0  0  0  0  # atno 4700 bound_to 4695
   89.1876   96.0978    5.8257 LP  0  0  0  0  0  0  0  0  0  0  0  0  # atno 5669 bound_to 4008
   88.6400   95.5593    4.3846 LP  0  0  0  0  0  0  0  0  0  0  0  0  # atno 5670 bound_to 4008
   89.3740   99.3811   11.0579 LP  0  0  0  0  0  0  0  0  0  0  0  0  # atno 5673 bound_to 4019
   87.8501   99.5976   10.5124 LP  0  0  0  0  0  0  0  0  0  0  0  0  # atno 5674 bound_to 4019
   88.4842   85.2714    8.6724 LP  0  0  0  0  0  0  0  0  0  0  0  0  # atno 5683 bound_to 4695
   88.1805   84.0031    7.6896 LP  0  0  0  0  0  0  0  0  0  0  0  0  # atno 5684 bound_to 4695
   86.4220   81.8107   10.3073 LP  0  0  0  0  0  0  0  0  0  0  0  0  # atno 5701 bound_to 3246
   85.7583   81.8214    8.8154 LP  0  0  0  0  0  0  0  0  0  0  0  0  # atno 5702 bound_to 3246

> <Gold.Score>
     Fitness  S(hb_ext) S(vdw_ext)  S(hb_int)    S(int)      intcor
     38.78       0.39      32.05       0.00      -5.67      -0.77

> <Gold.Goldscore.Fitness>
38.7761

> <Gold.Goldscore.Internal.Vdw>
-5.3747

> <Gold.Goldscore.Internal.Torsion>
-1.0653

> <Gold.Goldscore.External.Vdw>
32.0468

> <Gold.Goldscore.Internal.HBond>
0.0000

> <Gold.Goldscore.External.HBond>
0.3865

> <Gold.Goldscore.Internal.Correction>
-0.7653

> <Gold.Goldscore.Hbonds>
donor molecule, donor type, donor heavy atom, donor atom, acceptor molecule, acceptor atom, score
      P1  H  4695  4700       L1    17  0.02
      L1  H    10    23       P1  4695  0.17

> <Gold.Goldscore.Internal.Vdw.Weighted>
-5.3747

> <Gold.Goldscore.Internal.Torsion.Weighted>
-1.0653

> <Gold.Goldscore.External.Vdw.Weighted>
44.0643

> <Gold.Goldscore.Internal.HBond.Weighted>
0.0000

> <Gold.Goldscore.External.HBond.Weighted>
0.3865

> <Gold.Goldscore.Internal.Correction.Weighted>
-0.7653

> <Gold.Rescore>
     Score     S(PLP)   S(hbond)     S(cho)   S(metal)  DE(clash)   DE(tors)     intcor
     28.35     -28.29       0.93       0.00       0.00       1.20       0.76       ----

> <Gold.PLP.Fitness>
28.3467

> <Gold.PLP.PLP>
-28.2861

> <Gold.PLP.part.hbond>
-1.8027

> <Gold.PLP.part.metal>
0.0000

> <Gold.PLP.part.buried>
17.3317

> <Gold.PLP.part.nonpolar>
-44.9409

> <Gold.PLP.part.repulsive>
1.0538

> <Gold.PLP.ligand.clash>
1.2042

> <Gold.PLP.ligand.torsion>
0.7596

> <Gold.PLP.Chemscore.Hbond>
0.9280

> <Gold.PLP.Chemscore.CHOScore>
0.0000

> <Gold.PLP.Chemscore.Metal>
0.0000

> <Gold.PLP.Chemscore.Internal.Correction>
   9.000000E+99

