#       Name:                CT1002167954
#       Creating user name   hitesit
#       Creation time:       Sun Apr 16 02:21:24 2023


#       File generated by GOLD software.
#

@<TRIPOS>MOLECULE
CT1002167954|ligand_prepared|mol2|1|dock7
    29    30     1
SMALL
NO_CHARGES


@<TRIPOS>ATOM
      1 C1          90.5424  90.0656   9.9630 C.3            1 RES1               0.0000
      2 C2          89.9802  91.4297   9.5137 C.ar           1 RES1               0.0000
      3 C3          89.6244  89.0050   9.3623 C.2            1 RES1               0.0000
      4 C4          91.9780  90.0069   9.4530 C.2            1 RES1               0.0000
      5 C5          90.5724  89.8770  11.4976 C.3            1 RES1               0.0000
      6 C6          89.9485  91.7738   8.1656 C.ar           1 RES1               0.0000
      7 C7          89.4883  92.3517  10.4337 C.ar           1 RES1               0.0000
      8 N8          90.0979  88.2848   8.3054 N.am           1 RES1               0.0000
      9 O9          88.4878  88.8305   9.7841 O.2            1 RES1               0.0000
     10 N10         92.2822  89.0734   8.4970 N.am           1 RES1               0.0000
     11 O11         92.8448  90.7716   9.8583 O.2            1 RES1               0.0000
     12 C12         91.1366  88.5359  11.9397 C.3            1 RES1               0.0000
     13 C13         89.4406  92.9941   7.7519 C.ar           1 RES1               0.0000
     14 C14         88.9811  93.5717  10.0179 C.ar           1 RES1               0.0000
     15 C15         91.4002  88.2302   7.8779 C.2            1 RES1               0.0000
     16 C16         88.9562  93.8936   8.6775 C.ar           1 RES1               0.0000
     17 O17         91.7398  87.4559   6.9878 O.2            1 RES1               0.0000
     18 H18         91.1777  90.6778  11.9400 H              1 RES1               0.0000
     19 H19         89.5510  89.9754  11.8856 H              1 RES1               0.0000
     20 H20         90.3276  91.0797   7.4229 H              1 RES1               0.0000
     21 H21         89.4988  92.1203  11.4934 H              1 RES1               0.0000
     22 H22         89.4210  87.7361   7.7847 H              1 RES1               0.0000
     23 H23         93.2564  89.0002   8.2215 H              1 RES1               0.0000
     24 H24         91.1350  88.4555  13.0247 H              1 RES1               0.0000
     25 H25         90.5436  87.7167  11.5383 H              1 RES1               0.0000
     26 H26         92.1607  88.4150  11.5924 H              1 RES1               0.0000
     27 H27         89.4246  93.2432   6.6960 H              1 RES1               0.0000
     28 H28         88.6015  94.2768  10.7499 H              1 RES1               0.0000
     29 H29         88.5581  94.8494   8.3532 H              1 RES1               0.0000
@<TRIPOS>BOND
    1    1    2 1     
    2    1    3 1     
    3    1    4 1     
    4    1    5 1     
    5    2    6 ar    
    6    2    7 ar    
    7    3    8 1     
    8    3    9 2     
    9    4   10 1     
   10    4   11 2     
   11    5   12 1     
   12    5   18 1     
   13    5   19 1     
   14    6   13 ar    
   15    6   20 1     
   16    7   14 ar    
   17    7   21 1     
   18    8   15 1     
   19    8   22 1     
   20   10   15 1     
   21   10   23 1     
   22   12   24 1     
   23   12   25 1     
   24   12   26 1     
   25   13   16 ar    
   26   13   27 1     
   27   14   16 ar    
   28   14   28 1     
   29   15   17 2     
   30   16   29 1     
@<TRIPOS>SUBSTRUCTURE
      1 RES1           1
@<TRIPOS>SET
DONOR_HYDROGENS      STATIC     ATOMS    <user>   **** ""
2 22 23
ATOM$RED        STATIC     ATOMS    COLORGROUP SYSTEM
2 22 23
@<TRIPOS>COMMENT
> <Gold.Version>
2022.3.0

> <Gold.Id.Protein>
unknown|4r3c_clean|pdb

> <Gold.Protein.RotatedTorsions>
[ 4013 4008 4007 4004 ] final  -42.67 input   59.99 | X-H torsion
[ 4024 4019 4018 4015 ] final   15.71 input   60.02 | X-H torsion
[ 4700 4695 4694 4691 ] final  179.21 input   59.98 | X-H torsion
[ 3252 3246 3244 3241 ] final  -74.65 input   60.02 | X-H torsion

> <Gold.Protein.ActiveResidues>
 ALA190  PRO191  GLU192  ILE193  MET194  LEU195  ASN196  TRP197  MET198  HIS199 
 TYR200  ASN201  THR203  VAL204  TRP207  LEU232  ILE235  LEU236  VAL239  GLY240 
 THR241  PRO242  GLY243  LEU246  LEU247  LYS248  LYS249  ILE250  SER251  SER252 
 ALA255  ARG256  TYR258  ILE259  GLN260  LEU262  MET265  VAL290  LEU291  ASP292 
 SER293  ASP294  LYS295  ARG296 

> <Gold.Protein.RotatedAtoms>
   86.0400   81.7427    8.5651 H   0  0  0  0  0  0  0  0  0  0  0  0  # atno 3252 bound_to 3246
   89.1995   95.7024    5.6104 H   0  0  0  0  0  0  0  0  0  0  0  0  # atno 4013 bound_to 4008
   89.0795  100.4490    9.8674 H   0  0  0  0  0  0  0  0  0  0  0  0  # atno 4024 bound_to 4019
   87.9358   84.8683    8.3419 H   0  0  0  0  0  0  0  0  0  0  0  0  # atno 4700 bound_to 4695
   88.4414   95.9128    4.1857 LP  0  0  0  0  0  0  0  0  0  0  0  0  # atno 5669 bound_to 4008
   88.5900   97.1619    5.2271 LP  0  0  0  0  0  0  0  0  0  0  0  0  # atno 5670 bound_to 4008
   89.3721   99.3798   11.0589 LP  0  0  0  0  0  0  0  0  0  0  0  0  # atno 5673 bound_to 4019
   87.8497   99.5992   10.5106 LP  0  0  0  0  0  0  0  0  0  0  0  0  # atno 5674 bound_to 4019
   88.9065   83.8107    7.5763 LP  0  0  0  0  0  0  0  0  0  0  0  0  # atno 5683 bound_to 4695
   89.5500   84.9889    8.5060 LP  0  0  0  0  0  0  0  0  0  0  0  0  # atno 5684 bound_to 4695
   87.4356   81.5325    9.3746 LP  0  0  0  0  0  0  0  0  0  0  0  0  # atno 5701 bound_to 3246
   86.0605   81.8730   10.1868 LP  0  0  0  0  0  0  0  0  0  0  0  0  # atno 5702 bound_to 3246

> <Gold.Score>
     Fitness  S(hb_ext) S(vdw_ext)  S(hb_int)    S(int)      intcor
     34.39       0.00      25.05       0.00      -0.05      -0.77

> <Gold.Goldscore.Fitness>
34.3877

> <Gold.Goldscore.Internal.Vdw>
-0.4518

> <Gold.Goldscore.Internal.Torsion>
-0.3675

> <Gold.Goldscore.External.Vdw>
25.0485

> <Gold.Goldscore.Internal.HBond>
0.0000

> <Gold.Goldscore.External.HBond>
0.0000

> <Gold.Goldscore.Internal.Correction>
-0.7653

> <Gold.Goldscore.Internal.Vdw.Weighted>
-0.4518

> <Gold.Goldscore.Internal.Torsion.Weighted>
-0.3675

> <Gold.Goldscore.External.Vdw.Weighted>
34.4417

> <Gold.Goldscore.Internal.HBond.Weighted>
0.0000

> <Gold.Goldscore.External.HBond.Weighted>
0.0000

> <Gold.Goldscore.Internal.Correction.Weighted>
-0.7653

> <Gold.Rescore>
     Score     S(PLP)   S(hbond)     S(cho)   S(metal)  DE(clash)   DE(tors)     intcor
     28.31     -29.60       0.00       0.00       0.00       0.00       0.65       ----

> <Gold.PLP.Fitness>
28.3061

> <Gold.PLP.PLP>
-29.5991

> <Gold.PLP.part.hbond>
0.0000

> <Gold.PLP.part.metal>
0.0000

> <Gold.PLP.part.buried>
20.6520

> <Gold.PLP.part.nonpolar>
-50.9398

> <Gold.PLP.part.repulsive>
1.2629

> <Gold.PLP.ligand.clash>
0.0000

> <Gold.PLP.ligand.torsion>
0.6465

> <Gold.PLP.Chemscore.Hbond>
0.0000

> <Gold.PLP.Chemscore.CHOScore>
0.0000

> <Gold.PLP.Chemscore.Metal>
0.0000

> <Gold.PLP.Chemscore.Internal.Correction>
   9.000000E+99

