#       Name:                CT1002167954
#       Creating user name   hitesit
#       Creation time:       Sun Apr 16 02:21:27 2023


#       File generated by GOLD software.
#

@<TRIPOS>MOLECULE
CT1002167954|ligand_prepared|mol2|1|dock10
    29    30     1
SMALL
NO_CHARGES


@<TRIPOS>ATOM
      1 C1          90.7214  90.0403   8.9590 C.3            1 RES1               0.0000
      2 C2          90.7927  88.8193   8.0194 C.ar           1 RES1               0.0000
      3 C3          89.8932  89.6054  10.1645 C.2            1 RES1               0.0000
      4 C4          92.1633  90.4055   9.2940 C.2            1 RES1               0.0000
      5 C5          90.0500  91.2798   8.3231 C.3            1 RES1               0.0000
      6 C6          90.7806  87.5267   8.5349 C.ar           1 RES1               0.0000
      7 C7          90.8680  88.9693   6.6372 C.ar           1 RES1               0.0000
      8 N8          90.5537  89.3765  11.3355 N.am           1 RES1               0.0000
      9 O9          88.6843  89.4278  10.0787 O.2            1 RES1               0.0000
     10 N10         92.5771  90.2616  10.5924 N.am           1 RES1               0.0000
     11 O11         92.9496  90.8008   8.4421 O.2            1 RES1               0.0000
     12 C12         89.7308  92.3831   9.3195 C.3            1 RES1               0.0000
     13 C13         90.8387  86.4240   7.6989 C.ar           1 RES1               0.0000
     14 C14         90.9263  87.8652   5.8030 C.ar           1 RES1               0.0000
     15 C15         91.8465  89.7345  11.6222 C.2            1 RES1               0.0000
     16 C16         90.9112  86.5924   6.3326 C.ar           1 RES1               0.0000
     17 O17         92.3062  89.5866  12.7509 O.2            1 RES1               0.0000
     18 H18         90.7150  91.6838   7.5499 H              1 RES1               0.0000
     19 H19         89.1196  90.9655   7.8342 H              1 RES1               0.0000
     20 H20         90.7264  87.3746   9.6078 H              1 RES1               0.0000
     21 H21         90.8824  89.9612   6.1984 H              1 RES1               0.0000
     22 H22         90.0388  88.8945  12.0655 H              1 RES1               0.0000
     23 H23         93.5168  90.5767  10.8115 H              1 RES1               0.0000
     24 H24         89.2612  93.2287   8.8214 H              1 RES1               0.0000
     25 H25         89.0511  92.0230  10.0891 H              1 RES1               0.0000
     26 H26         90.6371  92.7371   9.8065 H              1 RES1               0.0000
     27 H27         90.8279  85.4244   8.1208 H              1 RES1               0.0000
     28 H28         90.9839  88.0024   4.7282 H              1 RES1               0.0000
     29 H29         90.9563  85.7283   5.6779 H              1 RES1               0.0000
@<TRIPOS>BOND
    1    1    2 1     
    2    1    3 1     
    3    1    4 1     
    4    1    5 1     
    5    2    6 ar    
    6    2    7 ar    
    7    3    8 1     
    8    3    9 2     
    9    4   10 1     
   10    4   11 2     
   11    5   12 1     
   12    5   18 1     
   13    5   19 1     
   14    6   13 ar    
   15    6   20 1     
   16    7   14 ar    
   17    7   21 1     
   18    8   15 1     
   19    8   22 1     
   20   10   15 1     
   21   10   23 1     
   22   12   24 1     
   23   12   25 1     
   24   12   26 1     
   25   13   16 ar    
   26   13   27 1     
   27   14   16 ar    
   28   14   28 1     
   29   15   17 2     
   30   16   29 1     
@<TRIPOS>SUBSTRUCTURE
      1 RES1           1
@<TRIPOS>SET
DONOR_HYDROGENS      STATIC     ATOMS    <user>   **** ""
2 22 23
ATOM$RED        STATIC     ATOMS    COLORGROUP SYSTEM
2 22 23
@<TRIPOS>COMMENT
> <Gold.Version>
2022.3.0

> <Gold.Id.Protein>
unknown|4r3c_clean|pdb

> <Gold.Protein.RotatedTorsions>
[ 4013 4008 4007 4004 ] final  -61.19 input   59.99 | X-H torsion
[ 4024 4019 4018 4015 ] final  132.93 input   60.02 | X-H torsion
[ 4700 4695 4694 4691 ] final   98.58 input   59.98 | X-H torsion
[ 3252 3246 3244 3241 ] final -172.04 input   60.02 | X-H torsion

> <Gold.Protein.ActiveResidues>
 ALA190  PRO191  GLU192  ILE193  MET194  LEU195  ASN196  TRP197  MET198  HIS199 
 TYR200  ASN201  THR203  VAL204  TRP207  LEU232  ILE235  LEU236  VAL239  GLY240 
 THR241  PRO242  GLY243  LEU246  LEU247  LYS248  LYS249  ILE250  SER251  SER252 
 ALA255  ARG256  TYR258  ILE259  GLN260  LEU262  MET265  VAL290  LEU291  ASP292 
 SER293  ASP294  LYS295  ARG296 

> <Gold.Protein.RotatedAtoms>
   87.3527   81.5177    9.0159 H   0  0  0  0  0  0  0  0  0  0  0  0  # atno 3252 bound_to 3246
   89.1490   95.5037    5.3895 H   0  0  0  0  0  0  0  0  0  0  0  0  # atno 4013 bound_to 4008
   87.8492   99.6289   10.4754 H   0  0  0  0  0  0  0  0  0  0  0  0  # atno 4024 bound_to 4019
   88.2914   83.9405    7.6497 H   0  0  0  0  0  0  0  0  0  0  0  0  # atno 4700 bound_to 4695
   88.3451   96.1991    4.1571 LP  0  0  0  0  0  0  0  0  0  0  0  0  # atno 5669 bound_to 4008
   88.7371   97.0756    5.4780 LP  0  0  0  0  0  0  0  0  0  0  0  0  # atno 5670 bound_to 4008
   89.1235  100.4483    9.8810 LP  0  0  0  0  0  0  0  0  0  0  0  0  # atno 5673 bound_to 4019
   89.3369   99.3563   11.0763 LP  0  0  0  0  0  0  0  0  0  0  0  0  # atno 5674 bound_to 4019
   89.7365   84.5022    8.1430 LP  0  0  0  0  0  0  0  0  0  0  0  0  # atno 5683 bound_to 4695
   88.3616   85.2321    8.6367 LP  0  0  0  0  0  0  0  0  0  0  0  0  # atno 5684 bound_to 4695
   86.4055   81.8139   10.3053 LP  0  0  0  0  0  0  0  0  0  0  0  0  # atno 5701 bound_to 3246
   85.7680   81.8183    8.8019 LP  0  0  0  0  0  0  0  0  0  0  0  0  # atno 5702 bound_to 3246

> <Gold.Score>
     Fitness  S(hb_ext) S(vdw_ext)  S(hb_int)    S(int)      intcor
     45.95       0.00      33.80       0.00      -0.52      -0.77

> <Gold.Goldscore.Fitness>
45.9548

> <Gold.Goldscore.Internal.Vdw>
-0.7064

> <Gold.Goldscore.Internal.Torsion>
-0.5761

> <Gold.Goldscore.External.Vdw>
33.7978

> <Gold.Goldscore.Internal.HBond>
0.0000

> <Gold.Goldscore.External.HBond>
0.0000

> <Gold.Goldscore.Internal.Correction>
-0.7653

> <Gold.Goldscore.Internal.Vdw.Weighted>
-0.7064

> <Gold.Goldscore.Internal.Torsion.Weighted>
-0.5761

> <Gold.Goldscore.External.Vdw.Weighted>
46.4720

> <Gold.Goldscore.Internal.HBond.Weighted>
0.0000

> <Gold.Goldscore.External.HBond.Weighted>
0.0000

> <Gold.Goldscore.Internal.Correction.Weighted>
-0.7653

> <Gold.Rescore>
     Score     S(PLP)   S(hbond)     S(cho)   S(metal)  DE(clash)   DE(tors)     intcor
     29.55     -32.40       0.00       0.00       0.00       0.00       1.42       ----

> <Gold.PLP.Fitness>
29.5466

> <Gold.PLP.PLP>
-32.3964

> <Gold.PLP.part.hbond>
0.0000

> <Gold.PLP.part.metal>
0.0000

> <Gold.PLP.part.buried>
14.1332

> <Gold.PLP.part.nonpolar>
-48.8957

> <Gold.PLP.part.repulsive>
2.5272

> <Gold.PLP.ligand.clash>
0.0000

> <Gold.PLP.ligand.torsion>
1.4249

> <Gold.PLP.Chemscore.Hbond>
0.0000

> <Gold.PLP.Chemscore.CHOScore>
0.0000

> <Gold.PLP.Chemscore.Metal>
0.0000

> <Gold.PLP.Chemscore.Internal.Correction>
   9.000000E+99

