#       Name:                CT1002167954
#       Creating user name   hitesit
#       Creation time:       Sun Apr 16 20:31:17 2023


#       File generated by GOLD software.
#

@<TRIPOS>MOLECULE
CT1002167954|ligand_prepared|mol2|1|dock4
    29    30     1
SMALL
NO_CHARGES


@<TRIPOS>ATOM
      1 C1         211.9266  49.9197   8.0293 C.3            1 RES1               0.0000
      2 C2         211.0223  49.1303   8.9977 C.ar           1 RES1               0.0000
      3 C3         213.2473  50.1412   8.7608 C.2            1 RES1               0.0000
      4 C4         212.0481  49.0691   6.7698 C.2            1 RES1               0.0000
      5 C5         211.3537  51.2972   7.6221 C.3            1 RES1               0.0000
      6 C6         210.4820  49.7453  10.1230 C.ar           1 RES1               0.0000
      7 C7         210.7178  47.7896   8.7778 C.ar           1 RES1               0.0000
      8 N8         214.3219  49.4018   8.3625 N.am           1 RES1               0.0000
      9 O9         213.3348  50.9239   9.6988 O.2            1 RES1               0.0000
     10 N10        213.2804  48.5584   6.4562 N.am           1 RES1               0.0000
     11 O11        211.0844  48.8228   6.0550 O.2            1 RES1               0.0000
     12 C12        212.2739  52.1007   6.7166 C.3            1 RES1               0.0000
     13 C13        209.6644  49.0463  10.9955 C.ar           1 RES1               0.0000
     14 C14        209.9002  47.0922   9.6517 C.ar           1 RES1               0.0000
     15 C15        214.4164  48.6607   7.2121 C.2            1 RES1               0.0000
     16 C16        209.3726  47.7196  10.7603 C.ar           1 RES1               0.0000
     17 O17        215.4744  48.1275   6.8906 O.2            1 RES1               0.0000
     18 H18        210.3975  51.1437   7.1070 H              1 RES1               0.0000
     19 H19        211.1555  51.8797   8.5303 H              1 RES1               0.0000
     20 H20        210.7025  50.7880  10.3259 H              1 RES1               0.0000
     21 H21        211.1225  47.2753   7.9128 H              1 RES1               0.0000
     22 H22        215.1298  49.3997   8.9769 H              1 RES1               0.0000
     23 H23        213.3581  48.0554   5.5780 H              1 RES1               0.0000
     24 H24        211.8243  53.0579   6.4612 H              1 RES1               0.0000
     25 H25        213.2257  52.2936   7.2073 H              1 RES1               0.0000
     26 H26        212.4722  51.5619   5.7924 H              1 RES1               0.0000
     27 H27        209.2528  49.5442  11.8673 H              1 RES1               0.0000
     28 H28        209.6737  46.0481   9.4630 H              1 RES1               0.0000
     29 H29        208.7318  47.1723  11.4437 H              1 RES1               0.0000
@<TRIPOS>BOND
    1    1    2 1     
    2    1    3 1     
    3    1    4 1     
    4    1    5 1     
    5    2    6 ar    
    6    2    7 ar    
    7    3    8 1     
    8    3    9 2     
    9    4   10 1     
   10    4   11 2     
   11    5   12 1     
   12    5   18 1     
   13    5   19 1     
   14    6   13 ar    
   15    6   20 1     
   16    7   14 ar    
   17    7   21 1     
   18    8   15 1     
   19    8   22 1     
   20   10   15 1     
   21   10   23 1     
   22   12   24 1     
   23   12   25 1     
   24   12   26 1     
   25   13   16 ar    
   26   13   27 1     
   27   14   16 ar    
   28   14   28 1     
   29   15   17 2     
   30   16   29 1     
@<TRIPOS>SUBSTRUCTURE
      1 RES1           1
@<TRIPOS>SET
DONOR_HYDROGENS      STATIC     ATOMS    <user>   **** ""
2 22 23
ATOM$RED        STATIC     ATOMS    COLORGROUP SYSTEM
2 22 23
@<TRIPOS>COMMENT
> <Gold.Version>
2022.3.0

> <Gold.Id.Protein>
unknown|4d1n_clean|pdb

> <Gold.Protein.RotatedTorsions>
[ 8321 8305 8306 8307 ] final -115.01 input   94.69 | X-H torsion
[ 8357 8347 8348 8349 ] final -120.77 input   68.57 | X-H torsion
[ 8421 8399 8400 8401 ] final -140.12 input  113.07 | X-H torsion
[ 8513 8489 8490 8491 ] final  -38.66 input   89.94 | X-H torsion
[ 8554 8533 8534 8535 ] final   90.13 input  110.24 | X-H torsion
[ 9082 9052 9051 9049 ] final -140.72 input   60.00 | X-H torsion
[ 8253 8231 8232 8233 ] final   36.32 input   84.65 | X-H torsion
[ 10325 10309 10310 10311 ] final  -32.70 input   62.15 | X-H torsion
[ 27198 8308 8307 8306 ] final  -79.80 input   -0.00 | X-H torsion
[ 27205 8350 8349 8348 ] final   19.30 input    0.00 | X-H torsion
[ 27208 8402 8401 8400 ] final   29.45 input    0.00 | X-H torsion
[ 27211 8492 8491 8490 ] final   18.43 input   -0.00 | X-H torsion
[ 27220 8234 8233 8232 ] final  -54.77 input    0.00 | X-H torsion
[ 27222 8162 8161 8160 ] final   54.37 input    0.00 | X-H torsion
[ 27225 10312 10311 10310 ] final -173.53 input    0.00 | X-H torsion

> <Gold.Protein.ActiveResidues>
 ASP403  LEU406  ILE407  VAL431  PHE432  ASP433  ALA434  ARG435  ASP436  CYS437 
 TYR446  ASN449  THR465  ILE466 

> <Gold.Protein.RotatedAtoms>
  218.7153   44.6072   11.1440 H   0  0  0  0  0  0  0  0  0  0  0  0  # atno 8253 bound_to 8231
  216.3262   45.6765   10.6160 H   0  0  0  0  0  0  0  0  0  0  0  0  # atno 8321 bound_to 8305
  213.2691   45.3508    9.9249 H   0  0  0  0  0  0  0  0  0  0  0  0  # atno 8357 bound_to 8347
  210.9949   43.5701   10.9236 H   0  0  0  0  0  0  0  0  0  0  0  0  # atno 8421 bound_to 8399
  207.9943   44.1223    9.8276 H   0  0  0  0  0  0  0  0  0  0  0  0  # atno 8513 bound_to 8489
  207.7607   43.1010    8.5347 H   0  0  0  0  0  0  0  0  0  0  0  0  # atno 8554 bound_to 8533
  210.3212   45.5539    6.5919 H   0  0  0  0  0  0  0  0  0  0  0  0  # atno 9082 bound_to 9052
  215.3559   41.1335   10.4488 H   0  0  0  0  0  0  0  0  0  0  0  0  # atno 10325 bound_to 10309
  215.6835   46.9737    9.6324 LP  0  0  0  0  0  0  0  0  0  0  0  0  # atno 27197 bound_to 8305
  212.1345   47.1303    9.4024 LP  0  0  0  0  0  0  0  0  0  0  0  0  # atno 27198 bound_to 8308
  213.2239   46.4534    8.2384 LP  0  0  0  0  0  0  0  0  0  0  0  0  # atno 27199 bound_to 8308
  213.1198   43.9303   10.9333 LP  0  0  0  0  0  0  0  0  0  0  0  0  # atno 27204 bound_to 8347
  210.3239   41.9373    8.7063 LP  0  0  0  0  0  0  0  0  0  0  0  0  # atno 27205 bound_to 8350
  208.9305   42.6188    9.4769 LP  0  0  0  0  0  0  0  0  0  0  0  0  # atno 27206 bound_to 8350
  210.3876   45.0661   10.2532 LP  0  0  0  0  0  0  0  0  0  0  0  0  # atno 27207 bound_to 8399
  206.4248   43.9591   12.0484 LP  0  0  0  0  0  0  0  0  0  0  0  0  # atno 27208 bound_to 8402
  205.8592   43.8835   10.4130 LP  0  0  0  0  0  0  0  0  0  0  0  0  # atno 27209 bound_to 8402
  208.5298   45.7867    9.8257 LP  0  0  0  0  0  0  0  0  0  0  0  0  # atno 27210 bound_to 8489
  205.1685   45.3456    6.6490 LP  0  0  0  0  0  0  0  0  0  0  0  0  # atno 27211 bound_to 8492
  205.2381   43.6426    6.3407 LP  0  0  0  0  0  0  0  0  0  0  0  0  # atno 27212 bound_to 8492
  206.9111   44.1858    7.4572 LP  0  0  0  0  0  0  0  0  0  0  0  0  # atno 27217 bound_to 8533
  210.8989   46.3765    5.3121 LP  0  0  0  0  0  0  0  0  0  0  0  0  # atno 27218 bound_to 9052
  211.7365   46.3478    6.7137 LP  0  0  0  0  0  0  0  0  0  0  0  0  # atno 27219 bound_to 9052
  216.2153   43.3439    9.9363 LP  0  0  0  0  0  0  0  0  0  0  0  0  # atno 27220 bound_to 8234
  215.8708   43.9561   11.5195 LP  0  0  0  0  0  0  0  0  0  0  0  0  # atno 27221 bound_to 8234
  219.5176   48.2765   10.8939 LP  0  0  0  0  0  0  0  0  0  0  0  0  # atno 27222 bound_to 8162
  217.8792   47.7659   11.1279 LP  0  0  0  0  0  0  0  0  0  0  0  0  # atno 27223 bound_to 8162
  219.5768   45.9887   10.5174 LP  0  0  0  0  0  0  0  0  0  0  0  0  # atno 27224 bound_to 8231
  211.7216   42.1874   11.5202 LP  0  0  0  0  0  0  0  0  0  0  0  0  # atno 27225 bound_to 10312
  213.2343   42.9804   11.8084 LP  0  0  0  0  0  0  0  0  0  0  0  0  # atno 27226 bound_to 10312

> <Gold.Score>
     Fitness  S(hb_ext) S(vdw_ext)  S(hb_int)    S(int)      intcor
     24.93       0.00      19.69       0.00      -2.15      -0.78

> <Gold.Goldscore.Fitness>
24.9293

> <Gold.Goldscore.Internal.Vdw>
-2.5457

> <Gold.Goldscore.Internal.Torsion>
-0.3782

> <Gold.Goldscore.External.Vdw>
19.6918

> <Gold.Goldscore.Internal.HBond>
0.0000

> <Gold.Goldscore.External.HBond>
0.0000

> <Gold.Goldscore.Internal.Correction>
-0.7769

> <Gold.Goldscore.Internal.Vdw.Weighted>
-2.5457

> <Gold.Goldscore.Internal.Torsion.Weighted>
-0.3782

> <Gold.Goldscore.External.Vdw.Weighted>
27.0763

> <Gold.Goldscore.Internal.HBond.Weighted>
0.0000

> <Gold.Goldscore.External.HBond.Weighted>
0.0000

> <Gold.Goldscore.Internal.Correction.Weighted>
-0.7769

> <Gold.Rescore>
     Score     S(PLP)   S(hbond)     S(cho)   S(metal)  DE(clash)   DE(tors)     intcor
     22.32     -24.00       0.00       0.00       0.00       0.51       0.59       ----

> <Gold.PLP.Fitness>
22.3173

> <Gold.PLP.PLP>
-24.0033

> <Gold.PLP.part.hbond>
-2.9418

> <Gold.PLP.part.metal>
0.0000

> <Gold.PLP.part.buried>
-0.8078

> <Gold.PLP.part.nonpolar>
-21.6666

> <Gold.PLP.part.repulsive>
0.4101

> <Gold.PLP.ligand.clash>
0.5114

> <Gold.PLP.ligand.torsion>
0.5873

> <Gold.PLP.Chemscore.Hbond>
0.0000

> <Gold.PLP.Chemscore.CHOScore>
0.0000

> <Gold.PLP.Chemscore.Metal>
0.0000

> <Gold.PLP.Chemscore.Internal.Correction>
   9.000000E+99

