#       Name:                CT1002167954
#       Creating user name   hitesit
#       Creation time:       Sun Apr 16 20:31:19 2023


#       File generated by GOLD software.
#

@<TRIPOS>MOLECULE
CT1002167954|ligand_prepared|mol2|1|dock8
    29    30     1
SMALL
NO_CHARGES


@<TRIPOS>ATOM
      1 C1         206.8448  48.4067  13.1758 C.3            1 RES1               0.0000
      2 C2         208.0649  48.4389  12.2330 C.ar           1 RES1               0.0000
      3 C3         205.8411  47.4459  12.5450 C.2            1 RES1               0.0000
      4 C4         207.3678  47.9559  14.5352 C.2            1 RES1               0.0000
      5 C5         206.1604  49.7813  13.3591 C.3            1 RES1               0.0000
      6 C6         209.0725  49.3824  12.4099 C.ar           1 RES1               0.0000
      7 C7         208.1981  47.5314  11.1854 C.ar           1 RES1               0.0000
      8 N8         205.6879  46.2214  13.1255 N.am           1 RES1               0.0000
      9 O9         205.2226  47.7433  11.5305 O.2            1 RES1               0.0000
     10 N10        206.9413  46.7466  15.0184 N.am           1 RES1               0.0000
     11 O11        208.1583  48.6294  15.1846 O.2            1 RES1               0.0000
     12 C12        204.8752  49.7232  14.1697 C.3            1 RES1               0.0000
     13 C13        210.1747  49.4158  11.5718 C.ar           1 RES1               0.0000
     14 C14        209.3011  47.5667  10.3483 C.ar           1 RES1               0.0000
     15 C15        206.1491  45.8450  14.3613 C.2            1 RES1               0.0000
     16 C16        210.2899  48.5078  10.5409 C.ar           1 RES1               0.0000
     17 O17        205.8530  44.7537  14.8394 O.2            1 RES1               0.0000
     18 H18        206.8620  50.4613  13.8578 H              1 RES1               0.0000
     19 H19        205.9352  50.1984  12.3698 H              1 RES1               0.0000
     20 H20        208.9978  50.1066  13.2143 H              1 RES1               0.0000
     21 H21        207.4319  46.7828  11.0144 H              1 RES1               0.0000
     22 H22        205.1837  45.5208  12.5914 H              1 RES1               0.0000
     23 H23        207.2422  46.4953  15.9547 H              1 RES1               0.0000
     24 H24        204.4361  50.7137  14.2681 H              1 RES1               0.0000
     25 H25        204.1452  49.0751  13.6893 H              1 RES1               0.0000
     26 H26        205.0664  49.3364  15.1686 H              1 RES1               0.0000
     27 H27        210.9495  50.1594  11.7267 H              1 RES1               0.0000
     28 H28        209.3874  46.8505   9.5378 H              1 RES1               0.0000
     29 H29        211.1537  48.5339   9.8847 H              1 RES1               0.0000
@<TRIPOS>BOND
    1    1    2 1     
    2    1    3 1     
    3    1    4 1     
    4    1    5 1     
    5    2    6 ar    
    6    2    7 ar    
    7    3    8 1     
    8    3    9 2     
    9    4   10 1     
   10    4   11 2     
   11    5   12 1     
   12    5   18 1     
   13    5   19 1     
   14    6   13 ar    
   15    6   20 1     
   16    7   14 ar    
   17    7   21 1     
   18    8   15 1     
   19    8   22 1     
   20   10   15 1     
   21   10   23 1     
   22   12   24 1     
   23   12   25 1     
   24   12   26 1     
   25   13   16 ar    
   26   13   27 1     
   27   14   16 ar    
   28   14   28 1     
   29   15   17 2     
   30   16   29 1     
@<TRIPOS>SUBSTRUCTURE
      1 RES1           1
@<TRIPOS>SET
DONOR_HYDROGENS      STATIC     ATOMS    <user>   **** ""
2 22 23
ATOM$RED        STATIC     ATOMS    COLORGROUP SYSTEM
2 22 23
@<TRIPOS>COMMENT
> <Gold.Version>
2022.3.0

> <Gold.Id.Protein>
unknown|4d1n_clean|pdb

> <Gold.Protein.RotatedTorsions>
[ 8321 8305 8306 8307 ] final   43.35 input   94.69 | X-H torsion
[ 8357 8347 8348 8349 ] final -109.80 input   68.57 | X-H torsion
[ 8421 8399 8400 8401 ] final   -9.61 input  113.07 | X-H torsion
[ 8513 8489 8490 8491 ] final  -74.23 input   89.94 | X-H torsion
[ 8554 8533 8534 8535 ] final  -56.66 input  110.24 | X-H torsion
[ 9082 9052 9051 9049 ] final  -45.86 input   60.00 | X-H torsion
[ 8253 8231 8232 8233 ] final  -59.65 input   84.65 | X-H torsion
[ 10325 10309 10310 10311 ] final -118.48 input   62.15 | X-H torsion
[ 27198 8308 8307 8306 ] final -137.36 input   -0.00 | X-H torsion
[ 27205 8350 8349 8348 ] final  122.59 input    0.00 | X-H torsion
[ 27208 8402 8401 8400 ] final  -13.37 input    0.00 | X-H torsion
[ 27211 8492 8491 8490 ] final  174.76 input   -0.00 | X-H torsion
[ 27220 8234 8233 8232 ] final   34.81 input    0.00 | X-H torsion
[ 27222 8162 8161 8160 ] final  -22.68 input    0.00 | X-H torsion
[ 27225 10312 10311 10310 ] final   60.24 input    0.00 | X-H torsion

> <Gold.Protein.ActiveResidues>
 ASP403  LEU406  ILE407  VAL431  PHE432  ASP433  ALA434  ARG435  ASP436  CYS437 
 TYR446  ASN449  THR465  ILE466 

> <Gold.Protein.RotatedAtoms>
  218.7834   45.8906   11.3685 H   0  0  0  0  0  0  0  0  0  0  0  0  # atno 8253 bound_to 8231
  215.5810   46.7280    9.4367 H   0  0  0  0  0  0  0  0  0  0  0  0  # atno 8321 bound_to 8305
  213.1371   45.4081   10.0141 H   0  0  0  0  0  0  0  0  0  0  0  0  # atno 8357 bound_to 8347
  210.2536   44.4851    9.8284 H   0  0  0  0  0  0  0  0  0  0  0  0  # atno 8421 bound_to 8399
  207.7546   44.3735   10.2427 H   0  0  0  0  0  0  0  0  0  0  0  0  # atno 8513 bound_to 8489
  206.5455   43.9647    7.7179 H   0  0  0  0  0  0  0  0  0  0  0  0  # atno 8554 bound_to 8533
  211.5198   46.1189    6.9742 H   0  0  0  0  0  0  0  0  0  0  0  0  # atno 9082 bound_to 9052
  216.2695   40.6660   11.0925 H   0  0  0  0  0  0  0  0  0  0  0  0  # atno 10325 bound_to 10309
  216.4048   45.9558   10.7739 LP  0  0  0  0  0  0  0  0  0  0  0  0  # atno 27197 bound_to 8305
  211.8773   46.4869    8.9385 LP  0  0  0  0  0  0  0  0  0  0  0  0  # atno 27198 bound_to 8308
  213.4811   47.0968    8.7022 LP  0  0  0  0  0  0  0  0  0  0  0  0  # atno 27199 bound_to 8308
  213.2485   43.8745   10.8464 LP  0  0  0  0  0  0  0  0  0  0  0  0  # atno 27204 bound_to 8347
  209.6145   41.8852    9.8633 LP  0  0  0  0  0  0  0  0  0  0  0  0  # atno 27205 bound_to 8350
  209.6399   42.6709    8.3199 LP  0  0  0  0  0  0  0  0  0  0  0  0  # atno 27206 bound_to 8350
  211.1100   44.1744   11.3205 LP  0  0  0  0  0  0  0  0  0  0  0  0  # atno 27207 bound_to 8399
  206.5120   43.3841   11.8004 LP  0  0  0  0  0  0  0  0  0  0  0  0  # atno 27208 bound_to 8402
  205.7720   44.4585   10.6611 LP  0  0  0  0  0  0  0  0  0  0  0  0  # atno 27209 bound_to 8402
  208.7632   45.5420    9.4216 LP  0  0  0  0  0  0  0  0  0  0  0  0  # atno 27210 bound_to 8489
  205.4650   43.7698    6.0987 LP  0  0  0  0  0  0  0  0  0  0  0  0  # atno 27211 bound_to 8492
  204.9416   45.2184    6.8911 LP  0  0  0  0  0  0  0  0  0  0  0  0  # atno 27212 bound_to 8492
  208.0924   43.3463    8.2511 LP  0  0  0  0  0  0  0  0  0  0  0  0  # atno 27217 bound_to 8533
  210.1731   45.6109    6.2150 LP  0  0  0  0  0  0  0  0  0  0  0  0  # atno 27218 bound_to 9052
  211.2557   46.5447    5.4259 LP  0  0  0  0  0  0  0  0  0  0  0  0  # atno 27219 bound_to 9052
  216.8755   43.5455   10.9425 LP  0  0  0  0  0  0  0  0  0  0  0  0  # atno 27220 bound_to 8234
  215.2106   43.7545   10.5133 LP  0  0  0  0  0  0  0  0  0  0  0  0  # atno 27221 bound_to 8234
  218.9592   48.2115   11.8145 LP  0  0  0  0  0  0  0  0  0  0  0  0  # atno 27222 bound_to 8162
  218.4377   47.8310   10.2073 LP  0  0  0  0  0  0  0  0  0  0  0  0  # atno 27223 bound_to 8162
  219.5096   44.7222   10.2959 LP  0  0  0  0  0  0  0  0  0  0  0  0  # atno 27224 bound_to 8231
  213.0821   42.7651   11.0708 LP  0  0  0  0  0  0  0  0  0  0  0  0  # atno 27225 bound_to 10312
  211.8738   42.4027   12.2577 LP  0  0  0  0  0  0  0  0  0  0  0  0  # atno 27226 bound_to 10312

> <Gold.Score>
     Fitness  S(hb_ext) S(vdw_ext)  S(hb_int)    S(int)      intcor
     30.15       0.00      23.05       0.00      -1.55      -0.76

> <Gold.Goldscore.Fitness>
30.1473

> <Gold.Goldscore.Internal.Vdw>
-1.8864

> <Gold.Goldscore.Internal.Torsion>
-0.4291

> <Gold.Goldscore.External.Vdw>
23.0530

> <Gold.Goldscore.Internal.HBond>
0.0000

> <Gold.Goldscore.External.HBond>
0.0000

> <Gold.Goldscore.Internal.Correction>
-0.7650

> <Gold.Goldscore.Internal.Vdw.Weighted>
-1.8864

> <Gold.Goldscore.Internal.Torsion.Weighted>
-0.4291

> <Gold.Goldscore.External.Vdw.Weighted>
31.6979

> <Gold.Goldscore.Internal.HBond.Weighted>
0.0000

> <Gold.Goldscore.External.HBond.Weighted>
0.0000

> <Gold.Goldscore.Internal.Correction.Weighted>
-0.7650

> <Gold.Rescore>
     Score     S(PLP)   S(hbond)     S(cho)   S(metal)  DE(clash)   DE(tors)     intcor
     24.51     -25.23       0.34       0.00       0.00       0.00       0.87       ----

> <Gold.PLP.Fitness>
24.5147

> <Gold.PLP.PLP>
-25.2273

> <Gold.PLP.part.hbond>
-2.5476

> <Gold.PLP.part.metal>
0.0000

> <Gold.PLP.part.buried>
-4.0753

> <Gold.PLP.part.nonpolar>
-20.1138

> <Gold.PLP.part.repulsive>
0.5378

> <Gold.PLP.ligand.clash>
0.0000

> <Gold.PLP.ligand.torsion>
0.8723

> <Gold.PLP.Chemscore.Hbond>
0.3440

> <Gold.PLP.Chemscore.CHOScore>
0.0000

> <Gold.PLP.Chemscore.Metal>
0.0000

> <Gold.PLP.Chemscore.Internal.Correction>
   9.000000E+99

