#       Name:                CT1002167954
#       Creating user name   hitesit
#       Creation time:       Sun Apr 16 20:31:18 2023


#       File generated by GOLD software.
#

@<TRIPOS>MOLECULE
CT1002167954|ligand_prepared|mol2|1|dock5
    29    30     1
SMALL
NO_CHARGES


@<TRIPOS>ATOM
      1 C1         206.0747  47.6514  14.0492 C.3            1 RES1               0.0000
      2 C2         207.3204  48.2023  13.3258 C.ar           1 RES1               0.0000
      3 C3         205.0276  47.3998  12.9681 C.2            1 RES1               0.0000
      4 C4         206.5280  46.3930  14.7810 C.2            1 RES1               0.0000
      5 C5         205.4782  48.6229  15.0941 C.3            1 RES1               0.0000
      6 C6         208.1871  49.0773  13.9739 C.ar           1 RES1               0.0000
      7 C7         207.6170  47.8433  12.0136 C.ar           1 RES1               0.0000
      8 N8         204.7771  46.1052  12.6202 N.am           1 RES1               0.0000
      9 O9         204.4591  48.3250  12.4016 O.2            1 RES1               0.0000
     10 N10        206.0087  45.1917  14.3748 N.am           1 RES1               0.0000
     11 O11        207.3428  46.4290  15.6948 O.2            1 RES1               0.0000
     12 C12        204.0797  48.2442  15.5554 C.3            1 RES1               0.0000
     13 C13        209.3112  49.5731  13.3345 C.ar           1 RES1               0.0000
     14 C14        208.7416  48.3404  11.3760 C.ar           1 RES1               0.0000
     15 C15        205.1772  44.9875  13.3074 C.2            1 RES1               0.0000
     16 C16        209.5895  49.2047  12.0354 C.ar           1 RES1               0.0000
     17 O17        204.7959  43.8701  12.9709 O.2            1 RES1               0.0000
     18 H18        206.1418  48.6535  15.9671 H              1 RES1               0.0000
     19 H19        205.4464  49.6306  14.6616 H              1 RES1               0.0000
     20 H20        207.9831  49.3803  14.9954 H              1 RES1               0.0000
     21 H21        206.9636  47.1655  11.4749 H              1 RES1               0.0000
     22 H22        204.2428  45.9541  11.7705 H              1 RES1               0.0000
     23 H23        206.2657  44.3739  14.9184 H              1 RES1               0.0000
     24 H24        203.7084  48.9582  16.2875 H              1 RES1               0.0000
     25 H25        203.3876  48.2287  14.7160 H              1 RES1               0.0000
     26 H26        204.0788  47.2574  16.0137 H              1 RES1               0.0000
     27 H27        209.9746  50.2540  13.8574 H              1 RES1               0.0000
     28 H28        208.9564  48.0483  10.3533 H              1 RES1               0.0000
     29 H29        210.4704  49.5929  11.5349 H              1 RES1               0.0000
@<TRIPOS>BOND
    1    1    2 1     
    2    1    3 1     
    3    1    4 1     
    4    1    5 1     
    5    2    6 ar    
    6    2    7 ar    
    7    3    8 1     
    8    3    9 2     
    9    4   10 1     
   10    4   11 2     
   11    5   12 1     
   12    5   18 1     
   13    5   19 1     
   14    6   13 ar    
   15    6   20 1     
   16    7   14 ar    
   17    7   21 1     
   18    8   15 1     
   19    8   22 1     
   20   10   15 1     
   21   10   23 1     
   22   12   24 1     
   23   12   25 1     
   24   12   26 1     
   25   13   16 ar    
   26   13   27 1     
   27   14   16 ar    
   28   14   28 1     
   29   15   17 2     
   30   16   29 1     
@<TRIPOS>SUBSTRUCTURE
      1 RES1           1
@<TRIPOS>SET
DONOR_HYDROGENS      STATIC     ATOMS    <user>   **** ""
2 22 23
ATOM$RED        STATIC     ATOMS    COLORGROUP SYSTEM
2 22 23
@<TRIPOS>COMMENT
> <Gold.Version>
2022.3.0

> <Gold.Id.Protein>
unknown|4d1n_clean|pdb

> <Gold.Protein.RotatedTorsions>
[ 8321 8305 8306 8307 ] final -141.85 input   94.69 | X-H torsion
[ 8357 8347 8348 8349 ] final -156.49 input   68.57 | X-H torsion
[ 8421 8399 8400 8401 ] final  115.88 input  113.07 | X-H torsion
[ 8513 8489 8490 8491 ] final   20.92 input   89.94 | X-H torsion
[ 8554 8533 8534 8535 ] final  171.06 input  110.24 | X-H torsion
[ 9082 9052 9051 9049 ] final  130.99 input   60.00 | X-H torsion
[ 8253 8231 8232 8233 ] final -100.62 input   84.65 | X-H torsion
[ 10325 10309 10310 10311 ] final   73.68 input   62.15 | X-H torsion
[ 27198 8308 8307 8306 ] final  -85.82 input   -0.00 | X-H torsion
[ 27205 8350 8349 8348 ] final  -29.47 input    0.00 | X-H torsion
[ 27208 8402 8401 8400 ] final   81.98 input    0.00 | X-H torsion
[ 27211 8492 8491 8490 ] final -111.53 input   -0.00 | X-H torsion
[ 27220 8234 8233 8232 ] final  -49.88 input    0.00 | X-H torsion
[ 27222 8162 8161 8160 ] final  -20.73 input    0.00 | X-H torsion
[ 27225 10312 10311 10310 ] final  -14.61 input    0.00 | X-H torsion

> <Gold.Protein.ActiveResidues>
 ASP403  LEU406  ILE407  VAL431  PHE432  ASP433  ALA434  ARG435  ASP436  CYS437 
 TYR446  ASN449  THR465  ILE466 

> <Gold.Protein.RotatedAtoms>
  219.1873   46.1639   10.9944 H   0  0  0  0  0  0  0  0  0  0  0  0  # atno 8253 bound_to 8231
  216.4100   46.0149   10.8371 H   0  0  0  0  0  0  0  0  0  0  0  0  # atno 8321 bound_to 8305
  213.6549   44.9989    9.7752 H   0  0  0  0  0  0  0  0  0  0  0  0  # atno 8357 bound_to 8347
  210.8976   44.9359   11.1922 H   0  0  0  0  0  0  0  0  0  0  0  0  # atno 8421 bound_to 8399
  208.5553   44.4003    9.2091 H   0  0  0  0  0  0  0  0  0  0  0  0  # atno 8513 bound_to 8489
  208.1603   43.8096    7.7201 H   0  0  0  0  0  0  0  0  0  0  0  0  # atno 8554 bound_to 8533
  210.4853   46.0904    5.4143 H   0  0  0  0  0  0  0  0  0  0  0  0  # atno 9082 bound_to 9052
  215.6640   42.3275   11.1630 H   0  0  0  0  0  0  0  0  0  0  0  0  # atno 10325 bound_to 10309
  215.6024   46.6461    9.4184 LP  0  0  0  0  0  0  0  0  0  0  0  0  # atno 27197 bound_to 8305
  212.0742   47.0680    9.3751 LP  0  0  0  0  0  0  0  0  0  0  0  0  # atno 27198 bound_to 8308
  213.2842   46.5157    8.2657 LP  0  0  0  0  0  0  0  0  0  0  0  0  # atno 27199 bound_to 8308
  212.7441   44.2731   11.0792 LP  0  0  0  0  0  0  0  0  0  0  0  0  # atno 27204 bound_to 8347
  209.9725   42.4175    8.3097 LP  0  0  0  0  0  0  0  0  0  0  0  0  # atno 27205 bound_to 8350
  209.2819   42.1386    9.8734 LP  0  0  0  0  0  0  0  0  0  0  0  0  # atno 27206 bound_to 8350
  210.4824   43.7350    9.9915 LP  0  0  0  0  0  0  0  0  0  0  0  0  # atno 27207 bound_to 8399
  206.1243   44.6039   11.7633 LP  0  0  0  0  0  0  0  0  0  0  0  0  # atno 27208 bound_to 8402
  206.1598   43.2386   10.6981 LP  0  0  0  0  0  0  0  0  0  0  0  0  # atno 27209 bound_to 8402
  207.9836   45.5159   10.4279 LP  0  0  0  0  0  0  0  0  0  0  0  0  # atno 27210 bound_to 8489
  204.7869   43.8412    6.8826 LP  0  0  0  0  0  0  0  0  0  0  0  0  # atno 27211 bound_to 8492
  205.6197   45.1470    6.1072 LP  0  0  0  0  0  0  0  0  0  0  0  0  # atno 27212 bound_to 8492
  206.5226   43.4970    8.2490 LP  0  0  0  0  0  0  0  0  0  0  0  0  # atno 27217 bound_to 8533
  211.8013   46.5597    6.2486 LP  0  0  0  0  0  0  0  0  0  0  0  0  # atno 27218 bound_to 9052
  210.6690   45.6245    6.9627 LP  0  0  0  0  0  0  0  0  0  0  0  0  # atno 27219 bound_to 9052
  216.2856   43.3363    9.9580 LP  0  0  0  0  0  0  0  0  0  0  0  0  # atno 27220 bound_to 8234
  215.8005   43.9637   11.4978 LP  0  0  0  0  0  0  0  0  0  0  0  0  # atno 27221 bound_to 8234
  218.9854   48.2188   11.8037 LP  0  0  0  0  0  0  0  0  0  0  0  0  # atno 27222 bound_to 8162
  218.4114   47.8237   10.2181 LP  0  0  0  0  0  0  0  0  0  0  0  0  # atno 27223 bound_to 8162
  219.1110   44.4525   10.6651 LP  0  0  0  0  0  0  0  0  0  0  0  0  # atno 27224 bound_to 8231
  213.1136   42.9775   12.1013 LP  0  0  0  0  0  0  0  0  0  0  0  0  # atno 27225 bound_to 10312
  211.8423   42.1902   11.2273 LP  0  0  0  0  0  0  0  0  0  0  0  0  # atno 27226 bound_to 10312

> <Gold.Score>
     Fitness  S(hb_ext) S(vdw_ext)  S(hb_int)    S(int)      intcor
     29.73       0.00      22.20       0.00      -0.79      -0.77

> <Gold.Goldscore.Fitness>
29.7269

> <Gold.Goldscore.Internal.Vdw>
-0.8756

> <Gold.Goldscore.Internal.Torsion>
-0.6883

> <Gold.Goldscore.External.Vdw>
22.1974

> <Gold.Goldscore.Internal.HBond>
0.0000

> <Gold.Goldscore.External.HBond>
0.0000

> <Gold.Goldscore.Internal.Correction>
-0.7693

> <Gold.Goldscore.Internal.Vdw.Weighted>
-0.8756

> <Gold.Goldscore.Internal.Torsion.Weighted>
-0.6883

> <Gold.Goldscore.External.Vdw.Weighted>
30.5215

> <Gold.Goldscore.Internal.HBond.Weighted>
0.0000

> <Gold.Goldscore.External.HBond.Weighted>
0.0000

> <Gold.Goldscore.Internal.Correction.Weighted>
-0.7693

> <Gold.Rescore>
     Score     S(PLP)   S(hbond)     S(cho)   S(metal)  DE(clash)   DE(tors)     intcor
     24.84     -25.48       0.33       0.00       0.00       0.32       0.66       ----

> <Gold.PLP.Fitness>
24.8386

> <Gold.PLP.PLP>
-25.4784

> <Gold.PLP.part.hbond>
-2.4883

> <Gold.PLP.part.metal>
0.0000

> <Gold.PLP.part.buried>
-4.2776

> <Gold.PLP.part.nonpolar>
-19.8653

> <Gold.PLP.part.repulsive>
0.5368

> <Gold.PLP.ligand.clash>
0.3159

> <Gold.PLP.ligand.torsion>
0.6643

> <Gold.PLP.Chemscore.Hbond>
0.3349

> <Gold.PLP.Chemscore.CHOScore>
0.0000

> <Gold.PLP.Chemscore.Metal>
0.0000

> <Gold.PLP.Chemscore.Internal.Correction>
   9.000000E+99

