#       Name:                CT1002167954
#       Creating user name   hitesit
#       Creation time:       Sun Apr 16 20:31:20 2023


#       File generated by GOLD software.
#

@<TRIPOS>MOLECULE
CT1002167954|ligand_prepared|mol2|1|dock10
    29    30     1
SMALL
NO_CHARGES


@<TRIPOS>ATOM
      1 C1         207.4700  48.8351  12.3173 C.3            1 RES1               0.0000
      2 C2         208.7422  48.7131  11.4541 C.ar           1 RES1               0.0000
      3 C3         207.9434  48.9667  13.7619 C.2            1 RES1               0.0000
      4 C4         206.7161  50.0536  11.7962 C.2            1 RES1               0.0000
      5 C5         206.5282  47.6124  12.2185 C.3            1 RES1               0.0000
      6 C6         209.7021  49.7208  11.4603 C.ar           1 RES1               0.0000
      7 C7         208.9709  47.5997  10.6499 C.ar           1 RES1               0.0000
      8 N8         207.8505  50.1947  14.3478 N.am           1 RES1               0.0000
      9 O9         208.4274  48.0167  14.3647 O.2            1 RES1               0.0000
     10 N10        206.5874  51.1338  12.6295 N.am           1 RES1               0.0000
     11 O11        206.2467  50.0944  10.6656 O.2            1 RES1               0.0000
     12 C12        205.3023  47.7089  13.1128 C.3            1 RES1               0.0000
     13 C13        210.8504  49.6178  10.6927 C.ar           1 RES1               0.0000
     14 C14        210.1199  47.4989   9.8829 C.ar           1 RES1               0.0000
     15 C15        207.1470  51.2713  13.8706 C.2            1 RES1               0.0000
     16 C16        211.0603  48.5068   9.9039 C.ar           1 RES1               0.0000
     17 O17        207.0320  52.2954  14.5378 O.2            1 RES1               0.0000
     18 H18        206.1985  47.5039  11.1778 H              1 RES1               0.0000
     19 H19        207.0914  46.7103  12.4876 H              1 RES1               0.0000
     20 H20        209.5530  50.6037  12.0729 H              1 RES1               0.0000
     21 H21        208.2443  46.7950  10.6168 H              1 RES1               0.0000
     22 H22        208.3505  50.3246  15.2216 H              1 RES1               0.0000
     23 H23        206.0221  51.9070  12.2936 H              1 RES1               0.0000
     24 H24        204.6757  46.8260  13.0050 H              1 RES1               0.0000
     25 H25        205.5929  47.7926  14.1580 H              1 RES1               0.0000
     26 H26        204.7053  48.5815  12.8560 H              1 RES1               0.0000
     27 H27        211.5868  50.4145  10.7117 H              1 RES1               0.0000
     28 H28        210.2806  46.6229   9.2631 H              1 RES1               0.0000
     29 H29        211.9601  48.4262   9.3030 H              1 RES1               0.0000
@<TRIPOS>BOND
    1    1    2 1     
    2    1    3 1     
    3    1    4 1     
    4    1    5 1     
    5    2    6 ar    
    6    2    7 ar    
    7    3    8 1     
    8    3    9 2     
    9    4   10 1     
   10    4   11 2     
   11    5   12 1     
   12    5   18 1     
   13    5   19 1     
   14    6   13 ar    
   15    6   20 1     
   16    7   14 ar    
   17    7   21 1     
   18    8   15 1     
   19    8   22 1     
   20   10   15 1     
   21   10   23 1     
   22   12   24 1     
   23   12   25 1     
   24   12   26 1     
   25   13   16 ar    
   26   13   27 1     
   27   14   16 ar    
   28   14   28 1     
   29   15   17 2     
   30   16   29 1     
@<TRIPOS>SUBSTRUCTURE
      1 RES1           1
@<TRIPOS>SET
DONOR_HYDROGENS      STATIC     ATOMS    <user>   **** ""
2 22 23
ATOM$RED        STATIC     ATOMS    COLORGROUP SYSTEM
2 22 23
@<TRIPOS>COMMENT
> <Gold.Version>
2022.3.0

> <Gold.Id.Protein>
unknown|4d1n_clean|pdb

> <Gold.Protein.RotatedTorsions>
[ 8321 8305 8306 8307 ] final   47.09 input   94.69 | X-H torsion
[ 8357 8347 8348 8349 ] final -129.64 input   68.57 | X-H torsion
[ 8421 8399 8400 8401 ] final  -22.86 input  113.07 | X-H torsion
[ 8513 8489 8490 8491 ] final   39.56 input   89.94 | X-H torsion
[ 8554 8533 8534 8535 ] final   80.04 input  110.24 | X-H torsion
[ 9082 9052 9051 9049 ] final  -13.00 input   60.00 | X-H torsion
[ 8253 8231 8232 8233 ] final -134.10 input   84.65 | X-H torsion
[ 10325 10309 10310 10311 ] final  175.51 input   62.15 | X-H torsion
[ 27198 8308 8307 8306 ] final  115.09 input   -0.00 | X-H torsion
[ 27205 8350 8349 8348 ] final  -58.53 input    0.00 | X-H torsion
[ 27208 8402 8401 8400 ] final   -6.23 input    0.00 | X-H torsion
[ 27211 8492 8491 8490 ] final  -16.73 input   -0.00 | X-H torsion
[ 27220 8234 8233 8232 ] final  -51.76 input    0.00 | X-H torsion
[ 27222 8162 8161 8160 ] final   78.45 input    0.00 | X-H torsion
[ 27225 10312 10311 10310 ] final  167.24 input    0.00 | X-H torsion

> <Gold.Protein.ActiveResidues>
 ASP403  LEU406  ILE407  VAL431  PHE432  ASP433  ALA434  ARG435  ASP436  CYS437 
 TYR446  ASN449  THR465  ILE466 

> <Gold.Protein.RotatedAtoms>
  219.5140   46.0731   10.6193 H   0  0  0  0  0  0  0  0  0  0  0  0  # atno 8253 bound_to 8231
  215.5899   46.7789    9.4630 H   0  0  0  0  0  0  0  0  0  0  0  0  # atno 8321 bound_to 8305
  213.3739   45.2852    9.8663 H   0  0  0  0  0  0  0  0  0  0  0  0  # atno 8357 bound_to 8347
  210.2748   44.2837    9.8019 H   0  0  0  0  0  0  0  0  0  0  0  0  # atno 8421 bound_to 8399
  208.6941   44.6368    9.1245 H   0  0  0  0  0  0  0  0  0  0  0  0  # atno 8513 bound_to 8489
  207.6187   43.0653    8.5884 H   0  0  0  0  0  0  0  0  0  0  0  0  # atno 8554 bound_to 8533
  211.7711   46.4048    6.6058 H   0  0  0  0  0  0  0  0  0  0  0  0  # atno 9082 bound_to 9052
  216.5765   41.4057   11.6387 H   0  0  0  0  0  0  0  0  0  0  0  0  # atno 10325 bound_to 10309
  216.3962   45.9066   10.7484 LP  0  0  0  0  0  0  0  0  0  0  0  0  # atno 27197 bound_to 8305
  213.0504   46.3167    8.1988 LP  0  0  0  0  0  0  0  0  0  0  0  0  # atno 27198 bound_to 8308
  212.3080   47.2671    9.4420 LP  0  0  0  0  0  0  0  0  0  0  0  0  # atno 27199 bound_to 8308
  213.0178   43.9943   10.9905 LP  0  0  0  0  0  0  0  0  0  0  0  0  # atno 27204 bound_to 8347
  209.6260   42.6794    8.3242 LP  0  0  0  0  0  0  0  0  0  0  0  0  # atno 27205 bound_to 8350
  209.6284   41.8767    9.8590 LP  0  0  0  0  0  0  0  0  0  0  0  0  # atno 27206 bound_to 8350
  211.0893   44.3706   11.3464 LP  0  0  0  0  0  0  0  0  0  0  0  0  # atno 27207 bound_to 8399
  206.5112   43.4672   11.8691 LP  0  0  0  0  0  0  0  0  0  0  0  0  # atno 27208 bound_to 8402
  205.7728   44.3753   10.5923 LP  0  0  0  0  0  0  0  0  0  0  0  0  # atno 27209 bound_to 8402
  207.8485   45.2857   10.5103 LP  0  0  0  0  0  0  0  0  0  0  0  0  # atno 27210 bound_to 8489
  204.8453   45.1105    6.9866 LP  0  0  0  0  0  0  0  0  0  0  0  0  # atno 27211 bound_to 8492
  205.5614   43.8777    6.0031 LP  0  0  0  0  0  0  0  0  0  0  0  0  # atno 27212 bound_to 8492
  207.0491   44.2206    7.4050 LP  0  0  0  0  0  0  0  0  0  0  0  0  # atno 27217 bound_to 8533
  210.3863   45.5554    6.7007 LP  0  0  0  0  0  0  0  0  0  0  0  0  # atno 27218 bound_to 9052
  210.7896   46.3124    5.3111 LP  0  0  0  0  0  0  0  0  0  0  0  0  # atno 27219 bound_to 9052
  216.2588   43.3389    9.9490 LP  0  0  0  0  0  0  0  0  0  0  0  0  # atno 27220 bound_to 8234
  215.8273   43.9611   11.5068 LP  0  0  0  0  0  0  0  0  0  0  0  0  # atno 27221 bound_to 8234
  219.4141   48.1986   10.5566 LP  0  0  0  0  0  0  0  0  0  0  0  0  # atno 27222 bound_to 8162
  217.9828   47.8439   11.4652 LP  0  0  0  0  0  0  0  0  0  0  0  0  # atno 27223 bound_to 8162
  218.7886   44.5421   11.0353 LP  0  0  0  0  0  0  0  0  0  0  0  0  # atno 27224 bound_to 8231
  211.8281   42.1878   11.2510 LP  0  0  0  0  0  0  0  0  0  0  0  0  # atno 27225 bound_to 10312
  213.1279   42.9799   12.0775 LP  0  0  0  0  0  0  0  0  0  0  0  0  # atno 27226 bound_to 10312

> <Gold.Score>
     Fitness  S(hb_ext) S(vdw_ext)  S(hb_int)    S(int)      intcor
     26.31       0.00      19.19       0.00      -0.07      -0.76

> <Gold.Goldscore.Fitness>
26.3135

> <Gold.Goldscore.Internal.Vdw>
-0.4605

> <Gold.Goldscore.Internal.Torsion>
-0.3770

> <Gold.Goldscore.External.Vdw>
19.1898

> <Gold.Goldscore.Internal.HBond>
0.0000

> <Gold.Goldscore.External.HBond>
0.0000

> <Gold.Goldscore.Internal.Correction>
-0.7650

> <Gold.Goldscore.Internal.Vdw.Weighted>
-0.4605

> <Gold.Goldscore.Internal.Torsion.Weighted>
-0.3770

> <Gold.Goldscore.External.Vdw.Weighted>
26.3860

> <Gold.Goldscore.Internal.HBond.Weighted>
0.0000

> <Gold.Goldscore.External.HBond.Weighted>
0.0000

> <Gold.Goldscore.Internal.Correction.Weighted>
-0.7650

> <Gold.Rescore>
     Score     S(PLP)   S(hbond)     S(cho)   S(metal)  DE(clash)   DE(tors)     intcor
     21.81     -22.01       0.00       0.00       0.00       0.00       0.10       ----

> <Gold.PLP.Fitness>
21.8051

> <Gold.PLP.PLP>
-22.0137

> <Gold.PLP.part.hbond>
-3.0000

> <Gold.PLP.part.metal>
0.0000

> <Gold.PLP.part.buried>
0.7630

> <Gold.PLP.part.nonpolar>
-20.8479

> <Gold.PLP.part.repulsive>
0.2627

> <Gold.PLP.ligand.clash>
0.0000

> <Gold.PLP.ligand.torsion>
0.1043

> <Gold.PLP.Chemscore.Hbond>
0.0000

> <Gold.PLP.Chemscore.CHOScore>
0.0000

> <Gold.PLP.Chemscore.Metal>
0.0000

> <Gold.PLP.Chemscore.Internal.Correction>
   9.000000E+99

