#       Name:                CT1002167954
#       Creating user name   hitesit
#       Creation time:       Sun Apr 16 20:31:19 2023


#       File generated by GOLD software.
#

@<TRIPOS>MOLECULE
CT1002167954|ligand_prepared|mol2|1|dock9
    29    30     1
SMALL
NO_CHARGES


@<TRIPOS>ATOM
      1 C1         207.5821  48.9930  12.4688 C.3            1 RES1               0.0000
      2 C2         208.6805  48.7720  11.4089 C.ar           1 RES1               0.0000
      3 C3         207.8218  50.3830  13.0508 C.2            1 RES1               0.0000
      4 C4         206.2507  48.8444  11.7409 C.2            1 RES1               0.0000
      5 C5         207.6125  47.9651  13.6238 C.3            1 RES1               0.0000
      6 C6         209.5410  49.8065  11.0537 C.ar           1 RES1               0.0000
      7 C7         208.8469  47.5407  10.7806 C.ar           1 RES1               0.0000
      8 N8         206.9640  51.3779  12.6844 N.am           1 RES1               0.0000
      9 O9         208.7724  50.6117  13.7886 O.2            1 RES1               0.0000
     10 N10        205.4489  49.9507  11.6367 N.am           1 RES1               0.0000
     11 O11        205.8962  47.7833  11.2421 O.2            1 RES1               0.0000
     12 C12        206.5996  48.2469  14.7223 C.3            1 RES1               0.0000
     13 C13        210.5338  49.6162  10.1070 C.ar           1 RES1               0.0000
     14 C14        209.8404  47.3525   9.8339 C.ar           1 RES1               0.0000
     15 C15        205.7590  51.2182  12.0487 C.2            1 RES1               0.0000
     16 C16        210.6845  48.3891   9.4968 C.ar           1 RES1               0.0000
     17 O17        205.0083  52.1732  11.8709 O.2            1 RES1               0.0000
     18 H18        207.4191  46.9665  13.2129 H              1 RES1               0.0000
     19 H19        208.6174  47.9577  14.0637 H              1 RES1               0.0000
     20 H20        209.4360  50.7797  11.5215 H              1 RES1               0.0000
     21 H21        208.1937  46.7111  11.0292 H              1 RES1               0.0000
     22 H22        207.2444  52.3286  12.9032 H              1 RES1               0.0000
     23 H23        204.5363  49.8171  11.2130 H              1 RES1               0.0000
     24 H24        206.6631  47.4964  15.5074 H              1 RES1               0.0000
     25 H25        206.7780  49.2221  15.1705 H              1 RES1               0.0000
     26 H26        205.5868  48.2368  14.3248 H              1 RES1               0.0000
     27 H27        211.1947  50.4356   9.8442 H              1 RES1               0.0000
     28 H28        209.9549  46.3853   9.3557 H              1 RES1               0.0000
     29 H29        211.4626  48.2402   8.7554 H              1 RES1               0.0000
@<TRIPOS>BOND
    1    1    2 1     
    2    1    3 1     
    3    1    4 1     
    4    1    5 1     
    5    2    6 ar    
    6    2    7 ar    
    7    3    8 1     
    8    3    9 2     
    9    4   10 1     
   10    4   11 2     
   11    5   12 1     
   12    5   18 1     
   13    5   19 1     
   14    6   13 ar    
   15    6   20 1     
   16    7   14 ar    
   17    7   21 1     
   18    8   15 1     
   19    8   22 1     
   20   10   15 1     
   21   10   23 1     
   22   12   24 1     
   23   12   25 1     
   24   12   26 1     
   25   13   16 ar    
   26   13   27 1     
   27   14   16 ar    
   28   14   28 1     
   29   15   17 2     
   30   16   29 1     
@<TRIPOS>SUBSTRUCTURE
      1 RES1           1
@<TRIPOS>SET
DONOR_HYDROGENS      STATIC     ATOMS    <user>   **** ""
2 22 23
ATOM$RED        STATIC     ATOMS    COLORGROUP SYSTEM
2 22 23
@<TRIPOS>COMMENT
> <Gold.Version>
2022.3.0

> <Gold.Id.Protein>
unknown|4d1n_clean|pdb

> <Gold.Protein.RotatedTorsions>
[ 8321 8305 8306 8307 ] final  -78.38 input   94.69 | X-H torsion
[ 8357 8347 8348 8349 ] final -126.73 input   68.57 | X-H torsion
[ 8421 8399 8400 8401 ] final  149.60 input  113.07 | X-H torsion
[ 8513 8489 8490 8491 ] final  -86.52 input   89.94 | X-H torsion
[ 8554 8533 8534 8535 ] final  114.54 input  110.24 | X-H torsion
[ 9082 9052 9051 9049 ] final    0.74 input   60.00 | X-H torsion
[ 8253 8231 8232 8233 ] final  -75.17 input   84.65 | X-H torsion
[ 10325 10309 10310 10311 ] final -134.57 input   62.15 | X-H torsion
[ 27198 8308 8307 8306 ] final -176.19 input   -0.00 | X-H torsion
[ 27205 8350 8349 8348 ] final  122.87 input    0.00 | X-H torsion
[ 27208 8402 8401 8400 ] final   55.90 input    0.00 | X-H torsion
[ 27211 8492 8491 8490 ] final -118.06 input   -0.00 | X-H torsion
[ 27220 8234 8233 8232 ] final  -78.43 input    0.00 | X-H torsion
[ 27222 8162 8161 8160 ] final  -37.11 input    0.00 | X-H torsion
[ 27225 10312 10311 10310 ] final -143.47 input    0.00 | X-H torsion

> <Gold.Protein.ActiveResidues>
 ASP403  LEU406  ILE407  VAL431  PHE432  ASP433  ALA434  ARG435  ASP436  CYS437 
 TYR446  ASN449  THR465  ILE466 

> <Gold.Protein.RotatedAtoms>
  218.9248   46.0396   11.2499 H   0  0  0  0  0  0  0  0  0  0  0  0  # atno 8253 bound_to 8231
  216.1015   45.4530   10.1557 H   0  0  0  0  0  0  0  0  0  0  0  0  # atno 8321 bound_to 8305
  213.3399   45.3085    9.8841 H   0  0  0  0  0  0  0  0  0  0  0  0  # atno 8357 bound_to 8347
  211.0696   44.4847   11.3671 H   0  0  0  0  0  0  0  0  0  0  0  0  # atno 8421 bound_to 8399
  207.7131   44.5197   10.3564 H   0  0  0  0  0  0  0  0  0  0  0  0  # atno 8513 bound_to 8489
  208.0414   43.2541    8.3386 H   0  0  0  0  0  0  0  0  0  0  0  0  # atno 8554 bound_to 8533
  211.8035   46.4988    6.4051 H   0  0  0  0  0  0  0  0  0  0  0  0  # atno 9082 bound_to 9052
  216.4144   40.7763   11.2625 H   0  0  0  0  0  0  0  0  0  0  0  0  # atno 10325 bound_to 10309
  215.9010   47.1900   10.0780 LP  0  0  0  0  0  0  0  0  0  0  0  0  # atno 27197 bound_to 8305
  212.1396   46.1813    8.5271 LP  0  0  0  0  0  0  0  0  0  0  0  0  # atno 27198 bound_to 8308
  213.2188   47.4024    9.1137 LP  0  0  0  0  0  0  0  0  0  0  0  0  # atno 27199 bound_to 8308
  213.0509   43.9715   10.9731 LP  0  0  0  0  0  0  0  0  0  0  0  0  # atno 27204 bound_to 8347
  209.6109   41.8875    9.8643 LP  0  0  0  0  0  0  0  0  0  0  0  0  # atno 27205 bound_to 8350
  209.6434   42.6686    8.3188 LP  0  0  0  0  0  0  0  0  0  0  0  0  # atno 27206 bound_to 8350
  210.3148   44.1748    9.8210 LP  0  0  0  0  0  0  0  0  0  0  0  0  # atno 27207 bound_to 8399
  206.2887   44.3253   11.9825 LP  0  0  0  0  0  0  0  0  0  0  0  0  # atno 27208 bound_to 8402
  205.9954   43.5172   10.4789 LP  0  0  0  0  0  0  0  0  0  0  0  0  # atno 27209 bound_to 8402
  208.8037   45.3997    9.3109 LP  0  0  0  0  0  0  0  0  0  0  0  0  # atno 27210 bound_to 8489
  204.8345   43.7813    6.8203 LP  0  0  0  0  0  0  0  0  0  0  0  0  # atno 27211 bound_to 8492
  205.5721   45.2069    6.1695 LP  0  0  0  0  0  0  0  0  0  0  0  0  # atno 27212 bound_to 8492
  206.6382   44.0370    7.6477 LP  0  0  0  0  0  0  0  0  0  0  0  0  # atno 27217 bound_to 8533
  210.5385   45.5841    6.8646 LP  0  0  0  0  0  0  0  0  0  0  0  0  # atno 27218 bound_to 9052
  210.6047   46.1889    5.3492 LP  0  0  0  0  0  0  0  0  0  0  0  0  # atno 27219 bound_to 9052
  215.8674   43.4106    9.9144 LP  0  0  0  0  0  0  0  0  0  0  0  0  # atno 27220 bound_to 8234
  216.2188   43.8894   11.5414 LP  0  0  0  0  0  0  0  0  0  0  0  0  # atno 27221 bound_to 8234
  218.7563   48.1511   11.8652 LP  0  0  0  0  0  0  0  0  0  0  0  0  # atno 27222 bound_to 8162
  218.6405   47.8914   10.1566 LP  0  0  0  0  0  0  0  0  0  0  0  0  # atno 27223 bound_to 8162
  219.3700   44.5752   10.4130 LP  0  0  0  0  0  0  0  0  0  0  0  0  # atno 27224 bound_to 8231
  211.7258   42.2737   11.9609 LP  0  0  0  0  0  0  0  0  0  0  0  0  # atno 27225 bound_to 10312
  213.2302   42.8940   11.3676 LP  0  0  0  0  0  0  0  0  0  0  0  0  # atno 27226 bound_to 10312

> <Gold.Score>
     Fitness  S(hb_ext) S(vdw_ext)  S(hb_int)    S(int)      intcor
     25.14       0.00      20.12       0.00      -2.53      -0.76

> <Gold.Goldscore.Fitness>
25.1425

> <Gold.Goldscore.Internal.Vdw>
-2.8904

> <Gold.Goldscore.Internal.Torsion>
-0.4010

> <Gold.Goldscore.External.Vdw>
20.1229

> <Gold.Goldscore.Internal.HBond>
0.0000

> <Gold.Goldscore.External.HBond>
0.0000

> <Gold.Goldscore.Internal.Correction>
-0.7650

> <Gold.Goldscore.Internal.Vdw.Weighted>
-2.8904

> <Gold.Goldscore.Internal.Torsion.Weighted>
-0.4010

> <Gold.Goldscore.External.Vdw.Weighted>
27.6691

> <Gold.Goldscore.Internal.HBond.Weighted>
0.0000

> <Gold.Goldscore.External.HBond.Weighted>
0.0000

> <Gold.Goldscore.Internal.Correction.Weighted>
-0.7650

> <Gold.Rescore>
     Score     S(PLP)   S(hbond)     S(cho)   S(metal)  DE(clash)   DE(tors)     intcor
     23.56     -25.92       0.00       0.00       0.00       1.83       0.26       ----

> <Gold.PLP.Fitness>
23.5636

> <Gold.PLP.PLP>
-25.9154

> <Gold.PLP.part.hbond>
0.0000

> <Gold.PLP.part.metal>
0.0000

> <Gold.PLP.part.buried>
-5.4420

> <Gold.PLP.part.nonpolar>
-21.3243

> <Gold.PLP.part.repulsive>
0.2036

> <Gold.PLP.ligand.clash>
1.8267

> <Gold.PLP.ligand.torsion>
0.2626

> <Gold.PLP.Chemscore.Hbond>
0.0000

> <Gold.PLP.Chemscore.CHOScore>
0.0000

> <Gold.PLP.Chemscore.Metal>
0.0000

> <Gold.PLP.Chemscore.Internal.Correction>
   9.000000E+99

