#       Name:                CT1002167954
#       Creating user name   hitesit
#       Creation time:       Sun Apr 16 20:31:16 2023


#       File generated by GOLD software.
#

@<TRIPOS>MOLECULE
CT1002167954|ligand_prepared|mol2|1|dock1
    29    30     1
SMALL
NO_CHARGES


@<TRIPOS>ATOM
      1 C1         209.6918  50.7591  11.5765 C.3            1 RES1               0.0000
      2 C2         209.9219  49.5634  10.6299 C.ar           1 RES1               0.0000
      3 C3         211.0468  51.4408  11.7428 C.2            1 RES1               0.0000
      4 C4         208.6335  51.6322  10.9115 C.2            1 RES1               0.0000
      5 C5         209.1693  50.3570  12.9754 C.3            1 RES1               0.0000
      6 C6         210.4529  49.7582   9.3583 C.ar           1 RES1               0.0000
      7 C7         209.6112  48.2617  11.0143 C.ar           1 RES1               0.0000
      8 N8         211.2381  52.6305  11.1040 N.am           1 RES1               0.0000
      9 O9         211.9471  50.9232  12.3921 O.2            1 RES1               0.0000
     10 N10        209.0037  52.8834  10.4930 N.am           1 RES1               0.0000
     11 O11        207.4867  51.2416  10.7311 O.2            1 RES1               0.0000
     12 C12        208.9431  51.5366  13.9078 C.3            1 RES1               0.0000
     13 C13        210.6683  48.6902   8.5031 C.ar           1 RES1               0.0000
     14 C14        209.8271  47.1951  10.1574 C.ar           1 RES1               0.0000
     15 C15        210.2658  53.4105  10.5314 C.2            1 RES1               0.0000
     16 C16        210.3560  47.4081   8.9022 C.ar           1 RES1               0.0000
     17 O17        210.5313  54.5231  10.0856 O.2            1 RES1               0.0000
     18 H18        208.2234  49.8144  12.8565 H              1 RES1               0.0000
     19 H19        209.8916  49.6739  13.4392 H              1 RES1               0.0000
     20 H20        210.7025  50.7603   9.0259 H              1 RES1               0.0000
     21 H21        209.1931  48.0706  11.9968 H              1 RES1               0.0000
     22 H22        212.1924  52.9716  11.0466 H              1 RES1               0.0000
     23 H23        208.2705  53.4769  10.1183 H              1 RES1               0.0000
     24 H24        208.5768  51.1991  14.8751 H              1 RES1               0.0000
     25 H25        209.8693  52.0844  14.0685 H              1 RES1               0.0000
     26 H26        208.2110  52.2242  13.4893 H              1 RES1               0.0000
     27 H27        211.0834  48.8632   7.5158 H              1 RES1               0.0000
     28 H28        209.5793  46.1878  10.4755 H              1 RES1               0.0000
     29 H29        210.5251  46.5716   8.2322 H              1 RES1               0.0000
@<TRIPOS>BOND
    1    1    2 1     
    2    1    3 1     
    3    1    4 1     
    4    1    5 1     
    5    2    6 ar    
    6    2    7 ar    
    7    3    8 1     
    8    3    9 2     
    9    4   10 1     
   10    4   11 2     
   11    5   12 1     
   12    5   18 1     
   13    5   19 1     
   14    6   13 ar    
   15    6   20 1     
   16    7   14 ar    
   17    7   21 1     
   18    8   15 1     
   19    8   22 1     
   20   10   15 1     
   21   10   23 1     
   22   12   24 1     
   23   12   25 1     
   24   12   26 1     
   25   13   16 ar    
   26   13   27 1     
   27   14   16 ar    
   28   14   28 1     
   29   15   17 2     
   30   16   29 1     
@<TRIPOS>SUBSTRUCTURE
      1 RES1           1
@<TRIPOS>SET
DONOR_HYDROGENS      STATIC     ATOMS    <user>   **** ""
2 22 23
ATOM$RED        STATIC     ATOMS    COLORGROUP SYSTEM
2 22 23
@<TRIPOS>COMMENT
> <Gold.Version>
2022.3.0

> <Gold.Id.Protein>
unknown|4d1n_clean|pdb

> <Gold.Protein.RotatedTorsions>
[ 8321 8305 8306 8307 ] final   36.21 input   94.69 | X-H torsion
[ 8357 8347 8348 8349 ] final  -96.28 input   68.57 | X-H torsion
[ 8421 8399 8400 8401 ] final -163.85 input  113.07 | X-H torsion
[ 8513 8489 8490 8491 ] final    3.97 input   89.94 | X-H torsion
[ 8554 8533 8534 8535 ] final  150.96 input  110.24 | X-H torsion
[ 9082 9052 9051 9049 ] final   38.94 input   60.00 | X-H torsion
[ 8253 8231 8232 8233 ] final  134.80 input   84.65 | X-H torsion
[ 10325 10309 10310 10311 ] final -172.99 input   62.15 | X-H torsion
[ 27198 8308 8307 8306 ] final -124.45 input   -0.00 | X-H torsion
[ 27205 8350 8349 8348 ] final -117.44 input    0.00 | X-H torsion
[ 27208 8402 8401 8400 ] final  141.04 input    0.00 | X-H torsion
[ 27211 8492 8491 8490 ] final -128.74 input   -0.00 | X-H torsion
[ 27220 8234 8233 8232 ] final   56.54 input    0.00 | X-H torsion
[ 27222 8162 8161 8160 ] final    7.94 input    0.00 | X-H torsion
[ 27225 10312 10311 10310 ] final -174.34 input    0.00 | X-H torsion

> <Gold.Protein.ActiveResidues>
 ASP403  LEU406  ILE407  VAL431  PHE432  ASP433  ALA434  ARG435  ASP436  CYS437 
 TYR446  ASN449  THR465  ILE466 

> <Gold.Protein.RotatedAtoms>
  219.6289   44.8904   10.2199 H   0  0  0  0  0  0  0  0  0  0  0  0  # atno 8253 bound_to 8231
  215.5689   46.6264    9.3945 H   0  0  0  0  0  0  0  0  0  0  0  0  # atno 8321 bound_to 8305
  212.9776   45.4394   10.1447 H   0  0  0  0  0  0  0  0  0  0  0  0  # atno 8357 bound_to 8347
  211.0887   43.8107   11.1802 H   0  0  0  0  0  0  0  0  0  0  0  0  # atno 8421 bound_to 8399
  208.4020   44.2364    9.3423 H   0  0  0  0  0  0  0  0  0  0  0  0  # atno 8513 bound_to 8489
  208.2142   43.6009    7.9423 H   0  0  0  0  0  0  0  0  0  0  0  0  # atno 8554 bound_to 8533
  211.6518   46.6257    5.8252 H   0  0  0  0  0  0  0  0  0  0  0  0  # atno 9082 bound_to 9052
  216.5833   41.2366   11.5826 H   0  0  0  0  0  0  0  0  0  0  0  0  # atno 10325 bound_to 10309
  216.4165   46.0542   10.8148 LP  0  0  0  0  0  0  0  0  0  0  0  0  # atno 27197 bound_to 8305
  211.8673   46.6276    9.0729 LP  0  0  0  0  0  0  0  0  0  0  0  0  # atno 27198 bound_to 8308
  213.4912   46.9562    8.5679 LP  0  0  0  0  0  0  0  0  0  0  0  0  # atno 27199 bound_to 8308
  213.4038   43.8440   10.7193 LP  0  0  0  0  0  0  0  0  0  0  0  0  # atno 27204 bound_to 8347
  209.0160   42.8579    8.8911 LP  0  0  0  0  0  0  0  0  0  0  0  0  # atno 27205 bound_to 8350
  210.2384   41.6982    9.2920 LP  0  0  0  0  0  0  0  0  0  0  0  0  # atno 27206 bound_to 8350
  210.2961   44.8316   10.0031 LP  0  0  0  0  0  0  0  0  0  0  0  0  # atno 27207 bound_to 8399
  205.8156   44.6802   10.9710 LP  0  0  0  0  0  0  0  0  0  0  0  0  # atno 27208 bound_to 8402
  206.4685   43.1624   11.4905 LP  0  0  0  0  0  0  0  0  0  0  0  0  # atno 27209 bound_to 8402
  208.1328   45.6755   10.2982 LP  0  0  0  0  0  0  0  0  0  0  0  0  # atno 27210 bound_to 8489
  204.9222   43.7036    6.7096 LP  0  0  0  0  0  0  0  0  0  0  0  0  # atno 27211 bound_to 8492
  205.4844   45.2846    6.2802 LP  0  0  0  0  0  0  0  0  0  0  0  0  # atno 27212 bound_to 8492
  206.4702   43.6999    8.0330 LP  0  0  0  0  0  0  0  0  0  0  0  0  # atno 27217 bound_to 8533
  211.0633   45.8055    7.1016 LP  0  0  0  0  0  0  0  0  0  0  0  0  # atno 27218 bound_to 9052
  210.2327   45.8398    5.6960 LP  0  0  0  0  0  0  0  0  0  0  0  0  # atno 27219 bound_to 9052
  216.7548   43.6660   11.2210 LP  0  0  0  0  0  0  0  0  0  0  0  0  # atno 27220 bound_to 8234
  215.3313   43.6340   10.2348 LP  0  0  0  0  0  0  0  0  0  0  0  0  # atno 27221 bound_to 8234
  219.3204   48.2961   11.5472 LP  0  0  0  0  0  0  0  0  0  0  0  0  # atno 27222 bound_to 8162
  218.0765   47.7464   10.4746 LP  0  0  0  0  0  0  0  0  0  0  0  0  # atno 27223 bound_to 8162
  218.6752   45.7092   11.4294 LP  0  0  0  0  0  0  0  0  0  0  0  0  # atno 27224 bound_to 8231
  211.7245   42.1865   11.5082 LP  0  0  0  0  0  0  0  0  0  0  0  0  # atno 27225 bound_to 10312
  213.2315   42.9813   11.8204 LP  0  0  0  0  0  0  0  0  0  0  0  0  # atno 27226 bound_to 10312

> <Gold.Score>
     Fitness  S(hb_ext) S(vdw_ext)  S(hb_int)    S(int)      intcor
     25.22       0.00      18.41       0.00      -0.09      -0.79

> <Gold.Goldscore.Fitness>
25.2207

> <Gold.Goldscore.Internal.Vdw>
-0.5142

> <Gold.Goldscore.Internal.Torsion>
-0.3670

> <Gold.Goldscore.External.Vdw>
18.4109

> <Gold.Goldscore.Internal.HBond>
0.0000

> <Gold.Goldscore.External.HBond>
0.0000

> <Gold.Goldscore.Internal.Correction>
-0.7869

> <Gold.Goldscore.Internal.Vdw.Weighted>
-0.5142

> <Gold.Goldscore.Internal.Torsion.Weighted>
-0.3670

> <Gold.Goldscore.External.Vdw.Weighted>
25.3150

> <Gold.Goldscore.Internal.HBond.Weighted>
0.0000

> <Gold.Goldscore.External.HBond.Weighted>
0.0000

> <Gold.Goldscore.Internal.Correction.Weighted>
-0.7869

> <Gold.Rescore>
     Score     S(PLP)   S(hbond)     S(cho)   S(metal)  DE(clash)   DE(tors)     intcor
     26.36     -26.48       0.00       0.00       0.00       0.00       0.06       ----

> <Gold.PLP.Fitness>
26.3626

> <Gold.PLP.PLP>
-26.4759

> <Gold.PLP.part.hbond>
-1.0000

> <Gold.PLP.part.metal>
0.0000

> <Gold.PLP.part.buried>
-5.1256

> <Gold.PLP.part.nonpolar>
-21.4594

> <Gold.PLP.part.repulsive>
0.2009

> <Gold.PLP.ligand.clash>
0.0000

> <Gold.PLP.ligand.torsion>
0.0566

> <Gold.PLP.Chemscore.Hbond>
0.0000

> <Gold.PLP.Chemscore.CHOScore>
0.0000

> <Gold.PLP.Chemscore.Metal>
0.0000

> <Gold.PLP.Chemscore.Internal.Correction>
   9.000000E+99

