#       Name:                CT1002167954
#       Creating user name   hitesit
#       Creation time:       Sun Apr 16 20:31:18 2023


#       File generated by GOLD software.
#

@<TRIPOS>MOLECULE
CT1002167954|ligand_prepared|mol2|1|dock7
    29    30     1
SMALL
NO_CHARGES


@<TRIPOS>ATOM
      1 C1         207.9880  49.4839  11.6091 C.3            1 RES1               0.0000
      2 C2         209.1448  49.1162  10.6576 C.ar           1 RES1               0.0000
      3 C3         207.0410  48.2876  11.6146 C.2            1 RES1               0.0000
      4 C4         208.6259  49.7787  12.9622 C.2            1 RES1               0.0000
      5 C5         207.1940  50.7370  11.1722 C.3            1 RES1               0.0000
      6 C6         209.3653  47.7925  10.2886 C.ar           1 RES1               0.0000
      7 C7         209.9967  50.0880  10.1396 C.ar           1 RES1               0.0000
      8 N8         207.0320  47.4939  12.7236 N.am           1 RES1               0.0000
      9 O9         206.3416  48.0218  10.6448 O.2            1 RES1               0.0000
     10 N10        208.3384  48.9369  14.0046 N.am           1 RES1               0.0000
     11 O11        209.3880  50.7226  13.1310 O.2            1 RES1               0.0000
     12 C12        206.0006  51.0477  12.0618 C.3            1 RES1               0.0000
     13 C13        210.3980  47.4530   9.4305 C.ar           1 RES1               0.0000
     14 C14        211.0291  49.7463   9.2818 C.ar           1 RES1               0.0000
     15 C15        207.5947  47.7903  13.9390 C.2            1 RES1               0.0000
     16 C16        211.2303  48.4296   8.9262 C.ar           1 RES1               0.0000
     17 O17        207.4258  47.0557  14.9081 O.2            1 RES1               0.0000
     18 H18        207.8696  51.6012  11.1730 H              1 RES1               0.0000
     19 H19        206.8393  50.5897  10.1445 H              1 RES1               0.0000
     20 H20        208.7221  47.0101  10.6774 H              1 RES1               0.0000
     21 H21        209.8580  51.1302  10.4065 H              1 RES1               0.0000
     22 H22        206.5636  46.5971  12.6417 H              1 RES1               0.0000
     23 H23        208.7134  49.1885  14.9137 H              1 RES1               0.0000
     24 H24        205.4789  51.9357  11.7111 H              1 RES1               0.0000
     25 H25        205.2954  50.2192  12.0645 H              1 RES1               0.0000
     26 H26        206.3195  51.2247  13.0869 H              1 RES1               0.0000
     27 H27        210.5530  46.4152   9.1548 H              1 RES1               0.0000
     28 H28        211.6821  50.5181   8.8878 H              1 RES1               0.0000
     29 H29        212.0391  48.1634   8.2536 H              1 RES1               0.0000
@<TRIPOS>BOND
    1    1    2 1     
    2    1    3 1     
    3    1    4 1     
    4    1    5 1     
    5    2    6 ar    
    6    2    7 ar    
    7    3    8 1     
    8    3    9 2     
    9    4   10 1     
   10    4   11 2     
   11    5   12 1     
   12    5   18 1     
   13    5   19 1     
   14    6   13 ar    
   15    6   20 1     
   16    7   14 ar    
   17    7   21 1     
   18    8   15 1     
   19    8   22 1     
   20   10   15 1     
   21   10   23 1     
   22   12   24 1     
   23   12   25 1     
   24   12   26 1     
   25   13   16 ar    
   26   13   27 1     
   27   14   16 ar    
   28   14   28 1     
   29   15   17 2     
   30   16   29 1     
@<TRIPOS>SUBSTRUCTURE
      1 RES1           1
@<TRIPOS>SET
DONOR_HYDROGENS      STATIC     ATOMS    <user>   **** ""
2 22 23
ATOM$RED        STATIC     ATOMS    COLORGROUP SYSTEM
2 22 23
@<TRIPOS>COMMENT
> <Gold.Version>
2022.3.0

> <Gold.Id.Protein>
unknown|4d1n_clean|pdb

> <Gold.Protein.RotatedTorsions>
[ 8321 8305 8306 8307 ] final  -73.50 input   94.69 | X-H torsion
[ 8357 8347 8348 8349 ] final -152.80 input   68.57 | X-H torsion
[ 8421 8399 8400 8401 ] final -175.52 input  113.07 | X-H torsion
[ 8513 8489 8490 8491 ] final -127.13 input   89.94 | X-H torsion
[ 8554 8533 8534 8535 ] final   57.96 input  110.24 | X-H torsion
[ 9082 9052 9051 9049 ] final   35.25 input   60.00 | X-H torsion
[ 8253 8231 8232 8233 ] final   -5.84 input   84.65 | X-H torsion
[ 10325 10309 10310 10311 ] final  -91.70 input   62.15 | X-H torsion
[ 27198 8308 8307 8306 ] final  -74.00 input   -0.00 | X-H torsion
[ 27205 8350 8349 8348 ] final  -31.74 input    0.00 | X-H torsion
[ 27208 8402 8401 8400 ] final  -34.76 input    0.00 | X-H torsion
[ 27211 8492 8491 8490 ] final   -7.85 input   -0.00 | X-H torsion
[ 27220 8234 8233 8232 ] final -164.35 input    0.00 | X-H torsion
[ 27222 8162 8161 8160 ] final  112.58 input    0.00 | X-H torsion
[ 27225 10312 10311 10310 ] final  -80.13 input    0.00 | X-H torsion

> <Gold.Protein.ActiveResidues>
 ASP403  LEU406  ILE407  VAL431  PHE432  ASP433  ALA434  ARG435  ASP436  CYS437 
 TYR446  ASN449  THR465  ILE466 

> <Gold.Protein.RotatedAtoms>
  218.5487   45.1357   11.4474 H   0  0  0  0  0  0  0  0  0  0  0  0  # atno 8253 bound_to 8231
  216.0659   45.4492   10.0890 H   0  0  0  0  0  0  0  0  0  0  0  0  # atno 8321 bound_to 8305
  213.6210   45.0446    9.7794 H   0  0  0  0  0  0  0  0  0  0  0  0  # atno 8357 bound_to 8347
  211.1103   43.9642   11.2717 H   0  0  0  0  0  0  0  0  0  0  0  0  # atno 8421 bound_to 8399
  207.7567   45.1054   10.5381 H   0  0  0  0  0  0  0  0  0  0  0  0  # atno 8513 bound_to 8489
  207.2831   43.0505    8.6393 H   0  0  0  0  0  0  0  0  0  0  0  0  # atno 8554 bound_to 8533
  211.6810   46.6234    5.8778 H   0  0  0  0  0  0  0  0  0  0  0  0  # atno 9082 bound_to 9052
  215.9711   40.6250   10.8111 H   0  0  0  0  0  0  0  0  0  0  0  0  # atno 10325 bound_to 10309
  215.9355   47.1937   10.1425 LP  0  0  0  0  0  0  0  0  0  0  0  0  # atno 27197 bound_to 8305
  212.1983   47.1868    9.4227 LP  0  0  0  0  0  0  0  0  0  0  0  0  # atno 27198 bound_to 8308
  213.1601   46.3969    8.2181 LP  0  0  0  0  0  0  0  0  0  0  0  0  # atno 27199 bound_to 8308
  212.7771   44.2285   11.0751 LP  0  0  0  0  0  0  0  0  0  0  0  0  # atno 27204 bound_to 8347
  209.9475   42.4402    8.3035 LP  0  0  0  0  0  0  0  0  0  0  0  0  # atno 27205 bound_to 8350
  209.3069   42.1159    9.8797 LP  0  0  0  0  0  0  0  0  0  0  0  0  # atno 27206 bound_to 8350
  210.2751   44.6820    9.9140 LP  0  0  0  0  0  0  0  0  0  0  0  0  # atno 27207 bound_to 8399
  206.4804   43.1894   11.5466 LP  0  0  0  0  0  0  0  0  0  0  0  0  # atno 27208 bound_to 8402
  205.8036   44.6532   10.9148 LP  0  0  0  0  0  0  0  0  0  0  0  0  # atno 27209 bound_to 8402
  208.7612   44.8294    9.1340 LP  0  0  0  0  0  0  0  0  0  0  0  0  # atno 27210 bound_to 8489
  204.9187   45.1963    6.9143 LP  0  0  0  0  0  0  0  0  0  0  0  0  # atno 27211 bound_to 8492
  205.4879   43.7919    6.0755 LP  0  0  0  0  0  0  0  0  0  0  0  0  # atno 27212 bound_to 8492
  207.3754   44.2350    7.3555 LP  0  0  0  0  0  0  0  0  0  0  0  0  # atno 27217 bound_to 8533
  211.0104   45.7767    7.0950 LP  0  0  0  0  0  0  0  0  0  0  0  0  # atno 27218 bound_to 9052
  210.2562   45.8710    5.6497 LP  0  0  0  0  0  0  0  0  0  0  0  0  # atno 27219 bound_to 9052
  215.2022   43.8489   10.7855 LP  0  0  0  0  0  0  0  0  0  0  0  0  # atno 27220 bound_to 8234
  216.8840   43.4511   10.6703 LP  0  0  0  0  0  0  0  0  0  0  0  0  # atno 27221 bound_to 8234
  219.0627   48.0397   10.2255 LP  0  0  0  0  0  0  0  0  0  0  0  0  # atno 27222 bound_to 8162
  218.3341   48.0028   11.7964 LP  0  0  0  0  0  0  0  0  0  0  0  0  # atno 27223 bound_to 8162
  219.7412   45.4672   10.2181 LP  0  0  0  0  0  0  0  0  0  0  0  0  # atno 27224 bound_to 8231
  212.3283   42.6732   12.5126 LP  0  0  0  0  0  0  0  0  0  0  0  0  # atno 27225 bound_to 10312
  212.6276   42.4946   10.8160 LP  0  0  0  0  0  0  0  0  0  0  0  0  # atno 27226 bound_to 10312

> <Gold.Score>
     Fitness  S(hb_ext) S(vdw_ext)  S(hb_int)    S(int)      intcor
     27.88       0.00      21.39       0.00      -1.53      -0.76

> <Gold.Goldscore.Fitness>
27.8831

> <Gold.Goldscore.Internal.Vdw>
-1.9101

> <Gold.Goldscore.Internal.Torsion>
-0.3892

> <Gold.Goldscore.External.Vdw>
21.3945

> <Gold.Goldscore.Internal.HBond>
0.0000

> <Gold.Goldscore.External.HBond>
0.0000

> <Gold.Goldscore.Internal.Correction>
-0.7650

> <Gold.Goldscore.Internal.Vdw.Weighted>
-1.9101

> <Gold.Goldscore.Internal.Torsion.Weighted>
-0.3892

> <Gold.Goldscore.External.Vdw.Weighted>
29.4175

> <Gold.Goldscore.Internal.HBond.Weighted>
0.0000

> <Gold.Goldscore.External.HBond.Weighted>
0.0000

> <Gold.Goldscore.Internal.Correction.Weighted>
-0.7650

> <Gold.Rescore>
     Score     S(PLP)   S(hbond)     S(cho)   S(metal)  DE(clash)   DE(tors)     intcor
     19.10     -21.76       0.00       0.00       0.00       0.00       1.33       ----

> <Gold.PLP.Fitness>
19.0992

> <Gold.PLP.PLP>
-21.7607

> <Gold.PLP.part.hbond>
-0.5766

> <Gold.PLP.part.metal>
0.0000

> <Gold.PLP.part.buried>
-5.6878

> <Gold.PLP.part.nonpolar>
-17.5746

> <Gold.PLP.part.repulsive>
1.6154

> <Gold.PLP.ligand.clash>
0.0000

> <Gold.PLP.ligand.torsion>
1.3307

> <Gold.PLP.Chemscore.Hbond>
0.0000

> <Gold.PLP.Chemscore.CHOScore>
0.0000

> <Gold.PLP.Chemscore.Metal>
0.0000

> <Gold.PLP.Chemscore.Internal.Correction>
   9.000000E+99

