#       Name:                CT1002167954
#       Creating user name   hitesit
#       Creation time:       Sun Apr 16 20:32:51 2023


#       File generated by GOLD software.
#

@<TRIPOS>MOLECULE
CT1002167954|ligand_prepared|mol2|1|dock1
    29    30     1
SMALL
NO_CHARGES


@<TRIPOS>ATOM
      1 C1         138.0301 145.1095 165.8106 C.3            1 RES1               0.0000
      2 C2         137.1678 145.8466 166.8555 C.ar           1 RES1               0.0000
      3 C3         138.6314 146.1877 164.9138 C.2            1 RES1               0.0000
      4 C4         139.0615 144.3083 166.5974 C.2            1 RES1               0.0000
      5 C5         137.2326 144.1232 164.9259 C.3            1 RES1               0.0000
      6 C6         135.8934 146.3007 166.5293 C.ar           1 RES1               0.0000
      7 C7         137.6311 146.0772 168.1481 C.ar           1 RES1               0.0000
      8 N8         139.9566 146.4707 165.0675 N.am           1 RES1               0.0000
      9 O9         137.9443 146.8079 164.1116 O.2            1 RES1               0.0000
     10 N10        140.3804 144.6574 166.4683 N.am           1 RES1               0.0000
     11 O11        138.7426 143.3886 167.3408 O.2            1 RES1               0.0000
     12 C12        138.1083 143.2180 164.0739 C.3            1 RES1               0.0000
     13 C13        135.1093 146.9588 167.4623 C.ar           1 RES1               0.0000
     14 C14        136.8455 146.7357 169.0795 C.ar           1 RES1               0.0000
     15 C15        140.8717 145.7219 165.7629 C.2            1 RES1               0.0000
     16 C16        135.5846 147.1764 168.7380 C.ar           1 RES1               0.0000
     17 O17        142.0663 146.0042 165.7388 O.2            1 RES1               0.0000
     18 H18        136.6030 143.4991 165.5720 H              1 RES1               0.0000
     19 H19        136.5705 144.6971 164.2658 H              1 RES1               0.0000
     20 H20        135.5034 146.1408 165.5296 H              1 RES1               0.0000
     21 H21        138.6204 145.7404 168.4388 H              1 RES1               0.0000
     22 H22        140.2989 147.3173 164.6244 H              1 RES1               0.0000
     23 H23        141.0586 144.0692 166.9419 H              1 RES1               0.0000
     24 H24        137.4990 142.5463 163.4729 H              1 RES1               0.0000
     25 H25        138.7300 143.8049 163.4010 H              1 RES1               0.0000
     26 H26        138.7624 142.6141 164.6994 H              1 RES1               0.0000
     27 H27        134.1182 147.3048 167.1881 H              1 RES1               0.0000
     28 H28        137.2238 146.9053 170.0822 H              1 RES1               0.0000
     29 H29        134.9700 147.6916 169.4688 H              1 RES1               0.0000
@<TRIPOS>BOND
    1    1    2 1     
    2    1    3 1     
    3    1    4 1     
    4    1    5 1     
    5    2    6 ar    
    6    2    7 ar    
    7    3    8 1     
    8    3    9 2     
    9    4   10 1     
   10    4   11 2     
   11    5   12 1     
   12    5   18 1     
   13    5   19 1     
   14    6   13 ar    
   15    6   20 1     
   16    7   14 ar    
   17    7   21 1     
   18    8   15 1     
   19    8   22 1     
   20   10   15 1     
   21   10   23 1     
   22   12   24 1     
   23   12   25 1     
   24   12   26 1     
   25   13   16 ar    
   26   13   27 1     
   27   14   16 ar    
   28   14   28 1     
   29   15   17 2     
   30   16   29 1     
@<TRIPOS>SUBSTRUCTURE
      1 RES1           1
@<TRIPOS>SET
DONOR_HYDROGENS      STATIC     ATOMS    <user>   **** ""
2 22 23
ATOM$RED        STATIC     ATOMS    COLORGROUP SYSTEM
2 22 23
@<TRIPOS>COMMENT
> <Gold.Version>
2022.3.0

> <Gold.Id.Protein>
unknown|7rmi_cavity_clean|pdb

> <Gold.Protein.RotatedTorsions>
[ 4998 4979 4980 4981 ] final -178.63 input  111.67 | X-H torsion
[ 5077 5072 5071 5069 ] final   86.78 input   59.98 | X-H torsion
[ 5036 5025 5024 5021 ] final -118.63 input   60.00 | X-H torsion
[ 5037 5026 5027 5028 ] final   49.25 input  106.27 | X-H torsion
[ 5041 5031 5030 5027 ] final -134.54 input   60.01 | X-H torsion
[ 5133 5126 5127 5128 ] final   43.38 input   60.01 | X-H torsion
[ 14305 4982 4981 4980 ] final   23.88 input    0.00 | X-H torsion
[ 14326 5029 5028 5027 ] final   37.82 input    0.00 | X-H torsion

> <Gold.Protein.ActiveResidues>
 TRP99   VAL100  MET101  CYS103  ALA104  ASP118  ASN119  ILE120  SER122  TYR124 
 LEU126  VAL133  LEU139  HIS142 

> <Gold.Protein.RotatedAtoms>
  134.1694  135.3730  116.0736 H   0  0  0  0  0  0  0  0  0  0  0  0  # atno 4998 bound_to 4979
  156.3708  141.8391  164.9134 H   0  0  0  0  0  0  0  0  0  0  0  0  # atno 5036 bound_to 5025
  136.6577  135.1711  119.4196 H   0  0  0  0  0  0  0  0  0  0  0  0  # atno 5037 bound_to 5026
  134.1439  136.9521  120.6013 H   0  0  0  0  0  0  0  0  0  0  0  0  # atno 5041 bound_to 5031
  156.6667  143.2939  160.9019 H   0  0  0  0  0  0  0  0  0  0  0  0  # atno 5077 bound_to 5072
  160.0827  150.6919  155.4315 H   0  0  0  0  0  0  0  0  0  0  0  0  # atno 5133 bound_to 5126
  159.5318  152.2393  155.6550 H   0  0  0  0  0  0  0  0  0  0  0  0  # atno 5134 bound_to 5126
  135.3852  135.9225  117.1974 LP  0  0  0  0  0  0  0  0  0  0  0  0  # atno 14304 bound_to 4979
  136.9681  132.0051  117.6803 LP  0  0  0  0  0  0  0  0  0  0  0  0  # atno 14305 bound_to 4982
  137.8485  132.9815  118.8080 LP  0  0  0  0  0  0  0  0  0  0  0  0  # atno 14306 bound_to 4982
  156.6596  143.9269  159.4032 LP  0  0  0  0  0  0  0  0  0  0  0  0  # atno 14317 bound_to 5072
  155.2766  143.3576  160.0588 LP  0  0  0  0  0  0  0  0  0  0  0  0  # atno 14318 bound_to 5072
  154.9028  141.1361  164.9386 LP  0  0  0  0  0  0  0  0  0  0  0  0  # atno 14323 bound_to 5025
  155.6457  141.5316  166.3381 LP  0  0  0  0  0  0  0  0  0  0  0  0  # atno 14324 bound_to 5025
  138.0845  135.9981  119.9899 LP  0  0  0  0  0  0  0  0  0  0  0  0  # atno 14325 bound_to 5026
  136.3340  134.1479  123.8125 LP  0  0  0  0  0  0  0  0  0  0  0  0  # atno 14326 bound_to 5029
  136.7530  132.6018  123.1539 LP  0  0  0  0  0  0  0  0  0  0  0  0  # atno 14327 bound_to 5029
  133.7744  135.6783  121.5438 LP  0  0  0  0  0  0  0  0  0  0  0  0  # atno 14328 bound_to 5031
  134.7705  135.4889  120.2638 LP  0  0  0  0  0  0  0  0  0  0  0  0  # atno 14329 bound_to 5031
  160.9611  151.7651  156.3167 LP  0  0  0  0  0  0  0  0  0  0  0  0  # atno 14334 bound_to 5126

> <Gold.Score>
     Fitness  S(hb_ext) S(vdw_ext)  S(hb_int)    S(int)      intcor
     35.76       1.67      25.45       0.00      -0.90      -0.83

> <Gold.Goldscore.Fitness>
35.7605

> <Gold.Goldscore.Internal.Vdw>
-1.1961

> <Gold.Goldscore.Internal.Torsion>
-0.5339

> <Gold.Goldscore.External.Vdw>
25.4510

> <Gold.Goldscore.Internal.HBond>
0.0000

> <Gold.Goldscore.External.HBond>
1.6698

> <Gold.Goldscore.Internal.Correction>
-0.8256

> <Gold.Goldscore.Hbonds>
donor molecule, donor type, donor heavy atom, donor atom, acceptor molecule, acceptor atom, score
      P1  H  4756  4762       L1    17  0.83

> <Gold.Goldscore.Internal.Vdw.Weighted>
-1.1961

> <Gold.Goldscore.Internal.Torsion.Weighted>
-0.5339

> <Gold.Goldscore.External.Vdw.Weighted>
34.9952

> <Gold.Goldscore.Internal.HBond.Weighted>
0.0000

> <Gold.Goldscore.External.HBond.Weighted>
1.6698

> <Gold.Goldscore.Internal.Correction.Weighted>
-0.8256

> <Gold.Rescore>
     Score     S(PLP)   S(hbond)     S(cho)   S(metal)  DE(clash)   DE(tors)     intcor
     34.35     -33.57       1.00       0.00       0.00       0.44       0.89       ----

> <Gold.PLP.Fitness>
34.3493

> <Gold.PLP.PLP>
-33.5698

> <Gold.PLP.part.hbond>
-2.3038

> <Gold.PLP.part.metal>
0.0000

> <Gold.PLP.part.buried>
-9.0452

> <Gold.PLP.part.nonpolar>
-25.2365

> <Gold.PLP.part.repulsive>
2.3815

> <Gold.PLP.ligand.clash>
0.4382

> <Gold.PLP.ligand.torsion>
0.8912

> <Gold.PLP.Chemscore.Hbond>
1.0000

> <Gold.PLP.Chemscore.CHOScore>
0.0000

> <Gold.PLP.Chemscore.Metal>
0.0000

> <Gold.Chemscore.Hbonds>
donor molecule, donor type, donor heavy atom, donor atom, acceptor molecule, acceptor atom, score
      P1  H  4756  4762       L1    17  1.00

> <Gold.PLP.Chemscore.Internal.Correction>
   9.000000E+99

