#       Name:                CT1002167954
#       Creating user name   hitesit
#       Creation time:       Sun Apr 16 20:33:02 2023


#       File generated by GOLD software.
#

@<TRIPOS>MOLECULE
CT1002167954|ligand_prepared|mol2|1|dock6
    29    30     1
SMALL
NO_CHARGES


@<TRIPOS>ATOM
      1 C1         137.9007 144.3024 166.2886 C.3            1 RES1               0.0000
      2 C2         137.8049 145.7269 165.7052 C.ar           1 RES1               0.0000
      3 C3         136.7084 143.5302 165.7316 C.2            1 RES1               0.0000
      4 C4         139.2553 143.7537 165.8540 C.2            1 RES1               0.0000
      5 C5         137.8390 144.2543 167.8331 C.3            1 RES1               0.0000
      6 C6         138.1629 145.9771 164.3838 C.ar           1 RES1               0.0000
      7 C7         137.3585 146.7986 166.4739 C.ar           1 RES1               0.0000
      8 N8         136.9529 142.6054 164.7596 N.am           1 RES1               0.0000
      9 O9         135.5662 143.7572 166.1114 O.2            1 RES1               0.0000
     10 N10        139.2700 142.6891 164.9914 N.am           1 RES1               0.0000
     11 O11        140.3100 144.2443 166.2377 O.2            1 RES1               0.0000
     12 C12        138.1692 142.8900 168.4177 C.3            1 RES1               0.0000
     13 C13        138.0751 147.2518 163.8493 C.ar           1 RES1               0.0000
     14 C14        137.2716 148.0727 165.9374 C.ar           1 RES1               0.0000
     15 C15        138.1804 142.1096 164.4004 C.2            1 RES1               0.0000
     16 C16        137.6290 148.3003 164.6255 C.ar           1 RES1               0.0000
     17 O17        138.2775 141.1904 163.5924 O.2            1 RES1               0.0000
     18 H18        138.5433 144.9917 168.2377 H              1 RES1               0.0000
     19 H19        136.8306 144.5419 168.1553 H              1 RES1               0.0000
     20 H20        138.5185 145.1650 163.7585 H              1 RES1               0.0000
     21 H21        137.0730 146.6433 167.5087 H              1 RES1               0.0000
     22 H22        136.1486 142.2496 164.2528 H              1 RES1               0.0000
     23 H23        140.1772 142.2916 164.7694 H              1 RES1               0.0000
     24 H24        138.1112 142.9116 169.5039 H              1 RES1               0.0000
     25 H25        137.4725 142.1366 168.0560 H              1 RES1               0.0000
     26 H26        139.1750 142.5837 168.1380 H              1 RES1               0.0000
     27 H27        138.3588 147.4259 162.8167 H              1 RES1               0.0000
     28 H28        136.9207 148.8950 166.5521 H              1 RES1               0.0000
     29 H29        137.5600 149.2987 164.2064 H              1 RES1               0.0000
@<TRIPOS>BOND
    1    1    2 1     
    2    1    3 1     
    3    1    4 1     
    4    1    5 1     
    5    2    6 ar    
    6    2    7 ar    
    7    3    8 1     
    8    3    9 2     
    9    4   10 1     
   10    4   11 2     
   11    5   12 1     
   12    5   18 1     
   13    5   19 1     
   14    6   13 ar    
   15    6   20 1     
   16    7   14 ar    
   17    7   21 1     
   18    8   15 1     
   19    8   22 1     
   20   10   15 1     
   21   10   23 1     
   22   12   24 1     
   23   12   25 1     
   24   12   26 1     
   25   13   16 ar    
   26   13   27 1     
   27   14   16 ar    
   28   14   28 1     
   29   15   17 2     
   30   16   29 1     
@<TRIPOS>SUBSTRUCTURE
      1 RES1           1
@<TRIPOS>SET
DONOR_HYDROGENS      STATIC     ATOMS    <user>   **** ""
2 22 23
ATOM$RED        STATIC     ATOMS    COLORGROUP SYSTEM
2 22 23
@<TRIPOS>COMMENT
> <Gold.Version>
2022.3.0

> <Gold.Id.Protein>
unknown|7rmi_cavity_clean|pdb

> <Gold.Protein.RotatedTorsions>
[ 4998 4979 4980 4981 ] final  -78.41 input  111.67 | X-H torsion
[ 5077 5072 5071 5069 ] final -167.98 input   59.98 | X-H torsion
[ 5036 5025 5024 5021 ] final -120.15 input   60.00 | X-H torsion
[ 5037 5026 5027 5028 ] final  112.13 input  106.27 | X-H torsion
[ 5041 5031 5030 5027 ] final  108.53 input   60.01 | X-H torsion
[ 5133 5126 5127 5128 ] final    9.79 input   60.01 | X-H torsion
[ 14305 4982 4981 4980 ] final   67.62 input    0.00 | X-H torsion
[ 14326 5029 5028 5027 ] final -162.12 input    0.00 | X-H torsion

> <Gold.Protein.ActiveResidues>
 TRP99   VAL100  MET101  CYS103  ALA104  ASP118  ASN119  ILE120  SER122  TYR124 
 LEU126  VAL133  LEU139  HIS142 

> <Gold.Protein.RotatedAtoms>
  134.4316  135.3718  117.3953 H   0  0  0  0  0  0  0  0  0  0  0  0  # atno 4998 bound_to 4979
  156.3592  141.8329  164.8922 H   0  0  0  0  0  0  0  0  0  0  0  0  # atno 5036 bound_to 5025
  136.6783  136.0832  119.5083 H   0  0  0  0  0  0  0  0  0  0  0  0  # atno 5037 bound_to 5026
  133.7614  135.7272  121.5496 H   0  0  0  0  0  0  0  0  0  0  0  0  # atno 5041 bound_to 5031
  155.3150  143.2735  160.2818 H   0  0  0  0  0  0  0  0  0  0  0  0  # atno 5077 bound_to 5072
  160.5629  150.6880  155.7062 H   0  0  0  0  0  0  0  0  0  0  0  0  # atno 5133 bound_to 5126
  159.3578  151.7830  155.3957 H   0  0  0  0  0  0  0  0  0  0  0  0  # atno 5134 bound_to 5126
  135.1265  135.9237  115.8935 LP  0  0  0  0  0  0  0  0  0  0  0  0  # atno 14304 bound_to 4979
  137.5846  132.0782  117.5048 LP  0  0  0  0  0  0  0  0  0  0  0  0  # atno 14305 bound_to 4982
  137.2321  132.9084  118.9835 LP  0  0  0  0  0  0  0  0  0  0  0  0  # atno 14306 bound_to 4982
  156.8585  143.3815  160.7846 LP  0  0  0  0  0  0  0  0  0  0  0  0  # atno 14317 bound_to 5072
  156.4396  143.9236  159.3023 LP  0  0  0  0  0  0  0  0  0  0  0  0  # atno 14318 bound_to 5072
  154.8918  141.1315  164.9608 LP  0  0  0  0  0  0  0  0  0  0  0  0  # atno 14323 bound_to 5025
  155.6684  141.5424  166.3373 LP  0  0  0  0  0  0  0  0  0  0  0  0  # atno 14324 bound_to 5025
  138.0642  135.0989  119.9024 LP  0  0  0  0  0  0  0  0  0  0  0  0  # atno 14325 bound_to 5026
  136.4565  132.5674  123.1826 LP  0  0  0  0  0  0  0  0  0  0  0  0  # atno 14326 bound_to 5029
  136.6305  134.1824  123.7838 LP  0  0  0  0  0  0  0  0  0  0  0  0  # atno 14327 bound_to 5029
  134.7583  135.4499  120.2940 LP  0  0  0  0  0  0  0  0  0  0  0  0  # atno 14328 bound_to 5031
  134.1717  136.9508  120.5587 LP  0  0  0  0  0  0  0  0  0  0  0  0  # atno 14329 bound_to 5031
  160.6596  152.2187  156.3017 LP  0  0  0  0  0  0  0  0  0  0  0  0  # atno 14334 bound_to 5126

> <Gold.Score>
     Fitness  S(hb_ext) S(vdw_ext)  S(hb_int)    S(int)      intcor
     34.66       1.87      23.89       0.00      -0.06      -0.76

> <Gold.Goldscore.Fitness>
34.6565

> <Gold.Goldscore.Internal.Vdw>
-0.3010

> <Gold.Goldscore.Internal.Torsion>
-0.5176

> <Gold.Goldscore.External.Vdw>
23.8883

> <Gold.Goldscore.Internal.HBond>
0.0000

> <Gold.Goldscore.External.HBond>
1.8701

> <Gold.Goldscore.Internal.Correction>
-0.7585

> <Gold.Goldscore.Hbonds>
donor molecule, donor type, donor heavy atom, donor atom, acceptor molecule, acceptor atom, score
      L1  H    10    23       P1  4728  0.94

> <Gold.Goldscore.Internal.Vdw.Weighted>
-0.3010

> <Gold.Goldscore.Internal.Torsion.Weighted>
-0.5176

> <Gold.Goldscore.External.Vdw.Weighted>
32.8465

> <Gold.Goldscore.Internal.HBond.Weighted>
0.0000

> <Gold.Goldscore.External.HBond.Weighted>
1.8701

> <Gold.Goldscore.Internal.Correction.Weighted>
-0.7585

> <Gold.Rescore>
     Score     S(PLP)   S(hbond)     S(cho)   S(metal)  DE(clash)   DE(tors)     intcor
     19.08     -19.88       0.00       0.00       0.00       0.00       0.40       ----

> <Gold.PLP.Fitness>
19.0760

> <Gold.PLP.PLP>
-19.8766

> <Gold.PLP.part.hbond>
-0.9706

> <Gold.PLP.part.metal>
0.0000

> <Gold.PLP.part.buried>
-0.6341

> <Gold.PLP.part.nonpolar>
-20.4756

> <Gold.PLP.part.repulsive>
1.0638

> <Gold.PLP.ligand.clash>
0.0000

> <Gold.PLP.ligand.torsion>
0.4003

> <Gold.PLP.Chemscore.Hbond>
0.0000

> <Gold.PLP.Chemscore.CHOScore>
0.0000

> <Gold.PLP.Chemscore.Metal>
0.0000

> <Gold.Chemscore.Hbonds>
donor molecule, donor type, donor heavy atom, donor atom, acceptor molecule, acceptor atom, score
      L1  H    10    23       P1  4728  0.81

> <Gold.PLP.Chemscore.Internal.Correction>
   9.000000E+99

