#       Name:                CT1002167954
#       Creating user name   hitesit
#       Creation time:       Sun Apr 16 20:33:09 2023


#       File generated by GOLD software.
#

@<TRIPOS>MOLECULE
CT1002167954|ligand_prepared|mol2|1|dock9
    29    30     1
SMALL
NO_CHARGES


@<TRIPOS>ATOM
      1 C1         137.3416 142.0056 167.0891 C.3            1 RES1               0.0000
      2 C2         136.9255 143.4594 167.3925 C.ar           1 RES1               0.0000
      3 C3         136.2920 141.4508 166.1305 C.2            1 RES1               0.0000
      4 C4         138.7459 142.0780 166.4998 C.2            1 RES1               0.0000
      5 C5         137.3943 141.0969 168.3393 C.3            1 RES1               0.0000
      6 C6         137.5304 144.1686 168.4259 C.ar           1 RES1               0.0000
      7 C7         135.9420 144.1045 166.6474 C.ar           1 RES1               0.0000
      8 N8         136.6498 141.2937 164.8239 N.am           1 RES1               0.0000
      9 O9         135.1556 141.1923 166.5073 O.2            1 RES1               0.0000
     10 N10        138.9142 141.7009 165.1932 N.am           1 RES1               0.0000
     11 O11        139.7053 142.4740 167.1502 O.2            1 RES1               0.0000
     12 C12        137.6928 139.6393 168.0256 C.3            1 RES1               0.0000
     13 C13        137.1674 145.4763 168.7026 C.ar           1 RES1               0.0000
     14 C14        135.5803 145.4122 166.9259 C.ar           1 RES1               0.0000
     15 C15        137.9245 141.3412 164.3195 C.2            1 RES1               0.0000
     16 C16        136.1925 146.0991 167.9526 C.ar           1 RES1               0.0000
     17 O17        138.1481 141.0678 163.1437 O.2            1 RES1               0.0000
     18 H18        138.1663 141.4769 169.0197 H              1 RES1               0.0000
     19 H19        136.4303 141.1558 168.8595 H              1 RES1               0.0000
     20 H20        138.2978 143.6942 169.0284 H              1 RES1               0.0000
     21 H21        135.4460 143.5833 165.8356 H              1 RES1               0.0000
     22 H22        135.9002 141.1254 164.1605 H              1 RES1               0.0000
     23 H23        139.8654 141.6868 164.8391 H              1 RES1               0.0000
     24 H24        137.7184 139.0460 168.9372 H              1 RES1               0.0000
     25 H25        136.9307 139.2217 167.3708 H              1 RES1               0.0000
     26 H26        138.6564 139.5409 167.5301 H              1 RES1               0.0000
     27 H27        137.6513 146.0121 169.5125 H              1 RES1               0.0000
     28 H28        134.8121 145.8982 166.3335 H              1 RES1               0.0000
     29 H29        135.9086 147.1236 168.1693 H              1 RES1               0.0000
@<TRIPOS>BOND
    1    1    2 1     
    2    1    3 1     
    3    1    4 1     
    4    1    5 1     
    5    2    6 ar    
    6    2    7 ar    
    7    3    8 1     
    8    3    9 2     
    9    4   10 1     
   10    4   11 2     
   11    5   12 1     
   12    5   18 1     
   13    5   19 1     
   14    6   13 ar    
   15    6   20 1     
   16    7   14 ar    
   17    7   21 1     
   18    8   15 1     
   19    8   22 1     
   20   10   15 1     
   21   10   23 1     
   22   12   24 1     
   23   12   25 1     
   24   12   26 1     
   25   13   16 ar    
   26   13   27 1     
   27   14   16 ar    
   28   14   28 1     
   29   15   17 2     
   30   16   29 1     
@<TRIPOS>SUBSTRUCTURE
      1 RES1           1
@<TRIPOS>SET
DONOR_HYDROGENS      STATIC     ATOMS    <user>   **** ""
2 22 23
ATOM$RED        STATIC     ATOMS    COLORGROUP SYSTEM
2 22 23
@<TRIPOS>COMMENT
> <Gold.Version>
2022.3.0

> <Gold.Id.Protein>
unknown|7rmi_cavity_clean|pdb

> <Gold.Protein.RotatedTorsions>
[ 4998 4979 4980 4981 ] final    8.64 input  111.67 | X-H torsion
[ 5077 5072 5071 5069 ] final   98.81 input   59.98 | X-H torsion
[ 5036 5025 5024 5021 ] final -131.91 input   60.00 | X-H torsion
[ 5037 5026 5027 5028 ] final  109.14 input  106.27 | X-H torsion
[ 5041 5031 5030 5027 ] final -176.44 input   60.01 | X-H torsion
[ 5133 5126 5127 5128 ] final   79.61 input   60.01 | X-H torsion
[ 14305 4982 4981 4980 ] final  -95.65 input    0.00 | X-H torsion
[ 14326 5029 5028 5027 ] final  123.39 input    0.00 | X-H torsion

> <Gold.Protein.ActiveResidues>
 TRP99   VAL100  MET101  CYS103  ALA104  ASP118  ASN119  ILE120  SER122  TYR124 
 LEU126  VAL133  LEU139  HIS142 

> <Gold.Protein.RotatedAtoms>
  135.4427  135.9743  117.1171 H   0  0  0  0  0  0  0  0  0  0  0  0  # atno 4998 bound_to 4979
  156.2534  141.7780  164.7419 H   0  0  0  0  0  0  0  0  0  0  0  0  # atno 5036 bound_to 5025
  136.6558  136.0449  119.4971 H   0  0  0  0  0  0  0  0  0  0  0  0  # atno 5037 bound_to 5026
  133.7849  136.7920  121.1431 H   0  0  0  0  0  0  0  0  0  0  0  0  # atno 5041 bound_to 5031
  156.4912  143.2310  160.9631 H   0  0  0  0  0  0  0  0  0  0  0  0  # atno 5077 bound_to 5072
  159.6120  151.0214  155.2759 H   0  0  0  0  0  0  0  0  0  0  0  0  # atno 5133 bound_to 5126
  159.9649  152.4767  155.9868 H   0  0  0  0  0  0  0  0  0  0  0  0  # atno 5134 bound_to 5126
  134.1289  135.3293  116.1679 LP  0  0  0  0  0  0  0  0  0  0  0  0  # atno 14304 bound_to 4979
  137.0031  132.8124  118.9399 LP  0  0  0  0  0  0  0  0  0  0  0  0  # atno 14305 bound_to 4982
  137.8135  132.1742  117.5485 LP  0  0  0  0  0  0  0  0  0  0  0  0  # atno 14306 bound_to 4982
  156.8173  143.9100  159.5211 LP  0  0  0  0  0  0  0  0  0  0  0  0  # atno 14317 bound_to 5072
  155.2957  143.4379  159.8793 LP  0  0  0  0  0  0  0  0  0  0  0  0  # atno 14318 bound_to 5072
  154.8256  141.1051  165.1402 LP  0  0  0  0  0  0  0  0  0  0  0  0  # atno 14323 bound_to 5025
  155.8410  141.6240  166.3091 LP  0  0  0  0  0  0  0  0  0  0  0  0  # atno 14324 bound_to 5025
  138.0864  135.1367  119.9134 LP  0  0  0  0  0  0  0  0  0  0  0  0  # atno 14325 bound_to 5026
  135.6972  133.1985  123.5348 LP  0  0  0  0  0  0  0  0  0  0  0  0  # atno 14326 bound_to 5029
  137.3898  133.5512  123.4316 LP  0  0  0  0  0  0  0  0  0  0  0  0  # atno 14327 bound_to 5029
  134.1333  135.2047  121.2253 LP  0  0  0  0  0  0  0  0  0  0  0  0  # atno 14328 bound_to 5031
  134.7732  136.1237  120.0367 LP  0  0  0  0  0  0  0  0  0  0  0  0  # atno 14329 bound_to 5031
  160.9980  151.2064  156.1430 LP  0  0  0  0  0  0  0  0  0  0  0  0  # atno 14334 bound_to 5126

> <Gold.Score>
     Fitness  S(hb_ext) S(vdw_ext)  S(hb_int)    S(int)      intcor
     33.89       1.18      24.84       0.00      -1.46      -0.76

> <Gold.Goldscore.Fitness>
33.8865

> <Gold.Goldscore.Internal.Vdw>
-1.8091

> <Gold.Goldscore.Internal.Torsion>
-0.4062

> <Gold.Goldscore.External.Vdw>
24.8450

> <Gold.Goldscore.Internal.HBond>
0.0000

> <Gold.Goldscore.External.HBond>
1.1814

> <Gold.Goldscore.Internal.Correction>
-0.7585

> <Gold.Goldscore.Hbonds>
donor molecule, donor type, donor heavy atom, donor atom, acceptor molecule, acceptor atom, score
      L1  H    10    23       P1  4728  0.59

> <Gold.Goldscore.Internal.Vdw.Weighted>
-1.8091

> <Gold.Goldscore.Internal.Torsion.Weighted>
-0.4062

> <Gold.Goldscore.External.Vdw.Weighted>
34.1618

> <Gold.Goldscore.Internal.HBond.Weighted>
0.0000

> <Gold.Goldscore.External.HBond.Weighted>
1.1814

> <Gold.Goldscore.Internal.Correction.Weighted>
-0.7585

> <Gold.Rescore>
     Score     S(PLP)   S(hbond)     S(cho)   S(metal)  DE(clash)   DE(tors)     intcor
     15.64     -17.17       0.00       0.00       0.00       1.32       0.10       ----

> <Gold.PLP.Fitness>
15.6436

> <Gold.PLP.PLP>
-17.1663

> <Gold.PLP.part.hbond>
-1.2740

> <Gold.PLP.part.metal>
0.0000

> <Gold.PLP.part.buried>
3.1001

> <Gold.PLP.part.nonpolar>
-27.4061

> <Gold.PLP.part.repulsive>
7.4937

> <Gold.PLP.ligand.clash>
1.3153

> <Gold.PLP.ligand.torsion>
0.1037

> <Gold.PLP.Chemscore.Hbond>
0.0000

> <Gold.PLP.Chemscore.CHOScore>
0.0000

> <Gold.PLP.Chemscore.Metal>
0.0000

> <Gold.Chemscore.Hbonds>
donor molecule, donor type, donor heavy atom, donor atom, acceptor molecule, acceptor atom, score
      L1  H    10    23       P1  4728  0.49

> <Gold.PLP.Chemscore.Internal.Correction>
   9.000000E+99

