#       Name:                CT1002167954
#       Creating user name   hitesit
#       Creation time:       Sun Apr 16 02:22:13 2023


#       File generated by GOLD software.
#

@<TRIPOS>MOLECULE
CT1002167954|ligand_prepared|mol2|1|dock2
    29    30     1
SMALL
NO_CHARGES


@<TRIPOS>ATOM
      1 C1         122.7892 243.8304 355.5397 C.3            1 RES1               0.0000
      2 C2         122.1778 245.1312 356.0989 C.ar           1 RES1               0.0000
      3 C3         124.2730 244.1129 355.3233 C.2            1 RES1               0.0000
      4 C4         122.5067 242.7469 356.5745 C.2            1 RES1               0.0000
      5 C5         122.1740 243.3786 354.1948 C.3            1 RES1               0.0000
      6 C6         120.7977 245.2807 356.1965 C.ar           1 RES1               0.0000
      7 C7         122.9797 246.1875 356.5229 C.ar           1 RES1               0.0000
      8 N8         125.1567 243.5563 356.2004 N.am           1 RES1               0.0000
      9 O9         124.6591 244.8450 354.4203 O.2            1 RES1               0.0000
     10 N10        123.5743 242.1881 357.2269 N.am           1 RES1               0.0000
     11 O11        121.3681 242.3838 356.8428 O.2            1 RES1               0.0000
     12 C12        122.8625 242.1699 353.5808 C.3            1 RES1               0.0000
     13 C13        120.2393 246.4429 356.7025 C.ar           1 RES1               0.0000
     14 C14        122.4193 247.3490 357.0284 C.ar           1 RES1               0.0000
     15 C15        124.8843 242.5653 357.1089 C.2            1 RES1               0.0000
     16 C16        121.0496 247.4775 357.1191 C.ar           1 RES1               0.0000
     17 O17        125.7822 242.0518 357.7701 O.2            1 RES1               0.0000
     18 H18        121.1153 243.1391 354.3535 H              1 RES1               0.0000
     19 H19        122.2260 244.2131 353.4846 H              1 RES1               0.0000
     20 H20        120.1440 244.4782 355.8713 H              1 RES1               0.0000
     21 H21        124.0597 246.1091 356.4599 H              1 RES1               0.0000
     22 H22        126.1080 243.9096 356.1788 H              1 RES1               0.0000
     23 H23        123.3740 241.4196 357.8591 H              1 RES1               0.0000
     24 H24        122.3919 241.8948 352.6392 H              1 RES1               0.0000
     25 H25        123.9119 242.3813 353.3860 H              1 RES1               0.0000
     26 H26        122.8078 241.3136 354.2498 H              1 RES1               0.0000
     27 H27        119.1608 246.5396 356.7705 H              1 RES1               0.0000
     28 H28        123.0608 248.1610 357.3545 H              1 RES1               0.0000
     29 H29        120.6120 248.3877 357.5157 H              1 RES1               0.0000
@<TRIPOS>BOND
    1    1    2 1     
    2    1    3 1     
    3    1    4 1     
    4    1    5 1     
    5    2    6 ar    
    6    2    7 ar    
    7    3    8 1     
    8    3    9 2     
    9    4   10 1     
   10    4   11 2     
   11    5   12 1     
   12    5   18 1     
   13    5   19 1     
   14    6   13 ar    
   15    6   20 1     
   16    7   14 ar    
   17    7   21 1     
   18    8   15 1     
   19    8   22 1     
   20   10   15 1     
   21   10   23 1     
   22   12   24 1     
   23   12   25 1     
   24   12   26 1     
   25   13   16 ar    
   26   13   27 1     
   27   14   16 ar    
   28   14   28 1     
   29   15   17 2     
   30   16   29 1     
@<TRIPOS>SUBSTRUCTURE
      1 RES1           1
@<TRIPOS>SET
DONOR_HYDROGENS      STATIC     ATOMS    <user>   **** ""
2 22 23
ATOM$RED        STATIC     ATOMS    COLORGROUP SYSTEM
2 22 23
@<TRIPOS>COMMENT
> <Gold.Version>
2022.3.0

> <Gold.Id.Protein>
unknown|6ng7_clean|pdb

> <Gold.Protein.RotatedTorsions>
[ 9082 9061 9060 9058 ] final   67.60 input   59.98 | X-H torsion
[ 8982 8971 8970 8967 ] final  -96.89 input   60.02 | X-H torsion
[ 8337 8307 8306 8304 ] final  -60.66 input   60.01 | X-H torsion
[ 5554 5539 5538 5535 ] final -164.71 input   60.02 | X-H torsion
[ 9167 9146 9144 9141 ] final -154.86 input   60.02 | X-H torsion
[ 12891 12861 12860 12858 ] final  -57.01 input   59.98 | X-H torsion
[ 13348 13339 13338 13334 ] final  -92.80 input   60.02 | X-H torsion
[ 9491 9475 9474 9471 ] final  -75.55 input   59.96 | X-H torsion

> <Gold.Protein.ActiveResidues>
 MET341  TRP414  ARG419  CYS420  VAL421  GLY422  LEU429  LEU460  SER462  ALA463 
 SER482  GLN483  LEU484  ILE485  ARG486  ASP500  ALA502  ASN503  TRP566  TYR567 
 GLY568  LEU569  PRO570  ALA571  VAL572  SER573  ASN574  MET575  PRO588  PHE589 
 SER590  GLY591  TRP592  TYR593  MET594  GLY595  THR596  GLU597  ILE598  VAL600 
 ARG601  ASP602  TYR603  ASP605  SER607  ARG608  ILE653  VAL654  TRP683  PRO687 
 SER691  PHE696  HIS697  TYR711  HEM801  H4B802 

> <Gold.Protein.RotatedAtoms>
  127.9659  248.5398  360.1686 H   0  0  0  0  0  0  0  0  0  0  0  0  # atno 5554 bound_to 5539
  125.0813  240.6477  359.9332 H   0  0  0  0  0  0  0  0  0  0  0  0  # atno 8337 bound_to 8307
  115.5908  244.3427  367.5134 H   0  0  0  0  0  0  0  0  0  0  0  0  # atno 8982 bound_to 8971
  123.3911  239.3467  359.2523 H   0  0  0  0  0  0  0  0  0  0  0  0  # atno 9082 bound_to 9061
  117.1987  238.2579  349.0354 H   0  0  0  0  0  0  0  0  0  0  0  0  # atno 9167 bound_to 9146
  132.0083  244.2415  348.5818 H   0  0  0  0  0  0  0  0  0  0  0  0  # atno 9491 bound_to 9475
  119.2637  253.3711  353.0707 H   0  0  0  0  0  0  0  0  0  0  0  0  # atno 12891 bound_to 12861
  124.9876  248.4600  345.6504 H   0  0  0  0  0  0  0  0  0  0  0  0  # atno 13348 bound_to 13339
  122.6088  240.2865  360.3255 LP  0  0  0  0  0  0  0  0  0  0  0  0  # atno 13479 bound_to 9061
  122.7117  240.7407  358.7603 LP  0  0  0  0  0  0  0  0  0  0  0  0  # atno 13480 bound_to 9061
  115.5656  242.7487  367.1878 LP  0  0  0  0  0  0  0  0  0  0  0  0  # atno 13497 bound_to 8971
  114.4715  243.7439  366.4956 LP  0  0  0  0  0  0  0  0  0  0  0  0  # atno 13498 bound_to 8971
  126.6055  240.7081  360.5008 LP  0  0  0  0  0  0  0  0  0  0  0  0  # atno 13516 bound_to 8307
  125.4476  241.6518  361.1606 LP  0  0  0  0  0  0  0  0  0  0  0  0  # atno 13517 bound_to 8307
  126.5987  247.9332  360.8098 LP  0  0  0  0  0  0  0  0  0  0  0  0  # atno 13524 bound_to 5539
  127.8575  248.3162  361.7769 LP  0  0  0  0  0  0  0  0  0  0  0  0  # atno 13525 bound_to 5539
  118.3784  239.0428  349.8355 LP  0  0  0  0  0  0  0  0  0  0  0  0  # atno 13540 bound_to 9146
  117.4685  237.9267  350.6056 LP  0  0  0  0  0  0  0  0  0  0  0  0  # atno 13541 bound_to 9146
  120.3819  252.5048  353.8749 LP  0  0  0  0  0  0  0  0  0  0  0  0  # atno 13552 bound_to 12861
  120.7757  253.2578  352.4804 LP  0  0  0  0  0  0  0  0  0  0  0  0  # atno 13553 bound_to 12861
  124.8221  248.8667  344.0834 LP  0  0  0  0  0  0  0  0  0  0  0  0  # atno 13554 bound_to 13339
  123.7451  247.8608  344.7869 LP  0  0  0  0  0  0  0  0  0  0  0  0  # atno 13555 bound_to 13339

> <Gold.Score>
     Fitness  S(hb_ext) S(vdw_ext)  S(hb_int)    S(int)      intcor
     33.85       2.54      23.87       0.00      -1.52      -0.76

> <Gold.Goldscore.Fitness>
33.8512

> <Gold.Goldscore.Internal.Vdw>
-1.8668

> <Gold.Goldscore.Internal.Torsion>
-0.4157

> <Gold.Goldscore.External.Vdw>
23.8736

> <Gold.Goldscore.Internal.HBond>
0.0000

> <Gold.Goldscore.External.HBond>
2.5424

> <Gold.Goldscore.Internal.Correction>
-0.7650

> <Gold.Goldscore.Hbonds>
donor molecule, donor type, donor heavy atom, donor atom, acceptor molecule, acceptor atom, score
      P1  H  9502  9538       L1    17  0.09
      L1  H    10    23       P1  9061  1.00

> <Gold.Goldscore.Internal.Vdw.Weighted>
-1.8668

> <Gold.Goldscore.Internal.Torsion.Weighted>
-0.4157

> <Gold.Goldscore.External.Vdw.Weighted>
32.8263

> <Gold.Goldscore.Internal.HBond.Weighted>
0.0000

> <Gold.Goldscore.External.HBond.Weighted>
2.5424

> <Gold.Goldscore.Internal.Correction.Weighted>
-0.7650

> <Gold.Rescore>
     Score     S(PLP)   S(hbond)     S(cho)   S(metal)  DE(clash)   DE(tors)     intcor
     27.45     -25.49       1.31       0.00       0.00       0.00       0.99       ----

> <Gold.PLP.Fitness>
27.4512

> <Gold.PLP.PLP>
-25.4890

> <Gold.PLP.part.hbond>
-2.8530

> <Gold.PLP.part.metal>
0.0000

> <Gold.PLP.part.buried>
-0.4852

> <Gold.PLP.part.nonpolar>
-22.2912

> <Gold.PLP.part.repulsive>
0.8677

> <Gold.PLP.ligand.clash>
0.0000

> <Gold.PLP.ligand.torsion>
0.9869

> <Gold.PLP.Chemscore.Hbond>
1.3120

> <Gold.PLP.Chemscore.CHOScore>
0.0000

> <Gold.PLP.Chemscore.Metal>
0.0000

> <Gold.Chemscore.Hbonds>
donor molecule, donor type, donor heavy atom, donor atom, acceptor molecule, acceptor atom, score
      L1  H    10    23       P1  9061  0.42

> <Gold.PLP.Chemscore.Internal.Correction>
   9.000000E+99

