#       Name:                CT1002167954
#       Creating user name   hitesit
#       Creation time:       Sun Apr 16 02:22:18 2023


#       File generated by GOLD software.
#

@<TRIPOS>MOLECULE
CT1002167954|ligand_prepared|mol2|1|dock8
    29    30     1
SMALL
NO_CHARGES


@<TRIPOS>ATOM
      1 C1         117.8189 244.8779 357.8299 C.3            1 RES1               0.0000
      2 C2         119.2524 244.3938 357.5308 C.ar           1 RES1               0.0000
      3 C3         116.9028 244.1219 356.8720 C.2            1 RES1               0.0000
      4 C4         117.5650 244.5753 359.3025 C.2            1 RES1               0.0000
      5 C5         117.6134 246.3950 357.6115 C.3            1 RES1               0.0000
      6 C6         119.7756 243.2819 358.1840 C.ar           1 RES1               0.0000
      7 C7         120.0613 245.0461 356.6041 C.ar           1 RES1               0.0000
      8 N8         116.1336 243.1221 357.3903 N.am           1 RES1               0.0000
      9 O9         116.8849 244.3728 355.6733 O.2            1 RES1               0.0000
     10 N10        116.6073 243.6450 359.6111 N.am           1 RES1               0.0000
     11 O11        118.1972 245.1220 360.1980 O.2            1 RES1               0.0000
     12 C12        116.4104 246.9630 358.3479 C.3            1 RES1               0.0000
     13 C13        121.0598 242.8363 357.9182 C.ar           1 RES1               0.0000
     14 C14        121.3454 244.5990 356.3400 C.ar           1 RES1               0.0000
     15 C15        115.9016 242.8824 358.7208 C.2            1 RES1               0.0000
     16 C16        121.8453 243.4942 356.9958 C.ar           1 RES1               0.0000
     17 O17        115.0959 242.0270 359.0764 O.2            1 RES1               0.0000
     18 H18        118.5141 246.9249 357.9451 H              1 RES1               0.0000
     19 H19        117.4915 246.5839 356.5378 H              1 RES1               0.0000
     20 H20        119.1731 242.7528 358.9148 H              1 RES1               0.0000
     21 H21        119.6893 245.9181 356.0769 H              1 RES1               0.0000
     22 H22        115.6898 242.4946 356.7272 H              1 RES1               0.0000
     23 H23        116.4013 243.5086 360.5956 H              1 RES1               0.0000
     24 H24        116.3121 248.0303 358.1606 H              1 RES1               0.0000
     25 H25        115.4935 246.4760 358.0223 H              1 RES1               0.0000
     26 H26        116.5100 246.8151 359.4212 H              1 RES1               0.0000
     27 H27        121.4490 241.9671 358.4380 H              1 RES1               0.0000
     28 H28        121.9603 245.1202 355.6137 H              1 RES1               0.0000
     29 H29        122.8511 243.1447 356.7875 H              1 RES1               0.0000
@<TRIPOS>BOND
    1    1    2 1     
    2    1    3 1     
    3    1    4 1     
    4    1    5 1     
    5    2    6 ar    
    6    2    7 ar    
    7    3    8 1     
    8    3    9 2     
    9    4   10 1     
   10    4   11 2     
   11    5   12 1     
   12    5   18 1     
   13    5   19 1     
   14    6   13 ar    
   15    6   20 1     
   16    7   14 ar    
   17    7   21 1     
   18    8   15 1     
   19    8   22 1     
   20   10   15 1     
   21   10   23 1     
   22   12   24 1     
   23   12   25 1     
   24   12   26 1     
   25   13   16 ar    
   26   13   27 1     
   27   14   16 ar    
   28   14   28 1     
   29   15   17 2     
   30   16   29 1     
@<TRIPOS>SUBSTRUCTURE
      1 RES1           1
@<TRIPOS>SET
DONOR_HYDROGENS      STATIC     ATOMS    <user>   **** ""
2 22 23
ATOM$RED        STATIC     ATOMS    COLORGROUP SYSTEM
2 22 23
@<TRIPOS>COMMENT
> <Gold.Version>
2022.3.0

> <Gold.Id.Protein>
unknown|6ng7_clean|pdb

> <Gold.Protein.RotatedTorsions>
[ 9082 9061 9060 9058 ] final  -79.19 input   59.98 | X-H torsion
[ 8982 8971 8970 8967 ] final   61.21 input   60.02 | X-H torsion
[ 8337 8307 8306 8304 ] final   -2.02 input   60.01 | X-H torsion
[ 5554 5539 5538 5535 ] final  -11.82 input   60.02 | X-H torsion
[ 9167 9146 9144 9141 ] final   76.12 input   60.02 | X-H torsion
[ 12891 12861 12860 12858 ] final  148.83 input   59.98 | X-H torsion
[ 13348 13339 13338 13334 ] final   42.90 input   60.02 | X-H torsion
[ 9491 9475 9474 9471 ] final  122.99 input   59.96 | X-H torsion

> <Gold.Protein.ActiveResidues>
 MET341  TRP414  ARG419  CYS420  VAL421  GLY422  LEU429  LEU460  SER462  ALA463 
 SER482  GLN483  LEU484  ILE485  ARG486  ASP500  ALA502  ASN503  TRP566  TYR567 
 GLY568  LEU569  PRO570  ALA571  VAL572  SER573  ASN574  MET575  PRO588  PHE589 
 SER590  GLY591  TRP592  TYR593  MET594  GLY595  THR596  GLU597  ILE598  VAL600 
 ARG601  ASP602  TYR603  ASP605  SER607  ARG608  ILE653  VAL654  TRP683  PRO687 
 SER691  PHE696  HIS697  TYR711  HEM801  H4B802 

> <Gold.Protein.RotatedAtoms>
  127.3665  248.1202  361.8353 H   0  0  0  0  0  0  0  0  0  0  0  0  # atno 5554 bound_to 5539
  124.8156  241.2790  360.5432 H   0  0  0  0  0  0  0  0  0  0  0  0  # atno 8337 bound_to 8307
  114.6251  243.1501  366.5021 H   0  0  0  0  0  0  0  0  0  0  0  0  # atno 8982 bound_to 8971
  122.4637  240.6279  360.0979 H   0  0  0  0  0  0  0  0  0  0  0  0  # atno 9082 bound_to 9061
  118.3918  238.9987  349.9762 H   0  0  0  0  0  0  0  0  0  0  0  0  # atno 9167 bound_to 9146
  132.4687  245.1956  350.0956 H   0  0  0  0  0  0  0  0  0  0  0  0  # atno 9491 bound_to 9475
  120.8278  252.5664  353.5558 H   0  0  0  0  0  0  0  0  0  0  0  0  # atno 12891 bound_to 12861
  123.7513  247.9495  344.5460 H   0  0  0  0  0  0  0  0  0  0  0  0  # atno 13348 bound_to 13339
  122.9376  240.4286  358.5543 LP  0  0  0  0  0  0  0  0  0  0  0  0  # atno 13479 bound_to 9061
  123.3173  239.3076  359.6794 LP  0  0  0  0  0  0  0  0  0  0  0  0  # atno 13480 bound_to 9061
  115.1209  244.5458  367.1757 LP  0  0  0  0  0  0  0  0  0  0  0  0  # atno 13497 bound_to 8971
  115.8891  243.1482  367.5266 LP  0  0  0  0  0  0  0  0  0  0  0  0  # atno 13498 bound_to 8971
  125.9939  240.3540  359.9067 LP  0  0  0  0  0  0  0  0  0  0  0  0  # atno 13516 bound_to 8307
  126.3267  241.3705  361.1407 LP  0  0  0  0  0  0  0  0  0  0  0  0  # atno 13517 bound_to 8307
  128.2854  248.6158  360.5871 LP  0  0  0  0  0  0  0  0  0  0  0  0  # atno 13524 bound_to 5539
  126.7746  248.0563  360.3208 LP  0  0  0  0  0  0  0  0  0  0  0  0  # atno 13525 bound_to 5539
  117.3640  237.8618  350.5232 LP  0  0  0  0  0  0  0  0  0  0  0  0  # atno 13540 bound_to 9146
  117.2818  238.3619  348.9708 LP  0  0  0  0  0  0  0  0  0  0  0  0  # atno 13541 bound_to 9146
  120.3010  253.5020  352.3332 LP  0  0  0  0  0  0  0  0  0  0  0  0  # atno 13552 bound_to 12861
  119.2811  253.0711  353.5335 LP  0  0  0  0  0  0  0  0  0  0  0  0  # atno 13553 bound_to 12861
  124.8063  248.2990  345.7349 LP  0  0  0  0  0  0  0  0  0  0  0  0  # atno 13554 bound_to 13339
  125.0057  248.9425  344.2473 LP  0  0  0  0  0  0  0  0  0  0  0  0  # atno 13555 bound_to 13339

> <Gold.Score>
     Fitness  S(hb_ext) S(vdw_ext)  S(hb_int)    S(int)      intcor
     36.71       0.00      27.61       0.00      -1.26      -0.76

> <Gold.Goldscore.Fitness>
36.7091

> <Gold.Goldscore.Internal.Vdw>
-1.0347

> <Gold.Goldscore.Internal.Torsion>
-0.9826

> <Gold.Goldscore.External.Vdw>
27.6142

> <Gold.Goldscore.Internal.HBond>
0.0000

> <Gold.Goldscore.External.HBond>
0.0000

> <Gold.Goldscore.Internal.Correction>
-0.7568

> <Gold.Goldscore.Internal.Vdw.Weighted>
-1.0347

> <Gold.Goldscore.Internal.Torsion.Weighted>
-0.9826

> <Gold.Goldscore.External.Vdw.Weighted>
37.9696

> <Gold.Goldscore.Internal.HBond.Weighted>
0.0000

> <Gold.Goldscore.External.HBond.Weighted>
0.0000

> <Gold.Goldscore.Internal.Correction.Weighted>
-0.7568

> <Gold.Rescore>
     Score     S(PLP)   S(hbond)     S(cho)   S(metal)  DE(clash)   DE(tors)     intcor
     35.09     -36.13       0.75       0.00       0.00       1.63       0.82       ----

> <Gold.PLP.Fitness>
35.0851

> <Gold.PLP.PLP>
-36.1252

> <Gold.PLP.part.hbond>
-4.2991

> <Gold.PLP.part.metal>
0.0000

> <Gold.PLP.part.buried>
6.5624

> <Gold.PLP.part.nonpolar>
-40.0391

> <Gold.PLP.part.repulsive>
3.4640

> <Gold.PLP.ligand.clash>
1.6320

> <Gold.PLP.ligand.torsion>
0.8218

> <Gold.PLP.Chemscore.Hbond>
0.7452

> <Gold.PLP.Chemscore.CHOScore>
0.0000

> <Gold.PLP.Chemscore.Metal>
0.0000

> <Gold.PLP.Chemscore.Internal.Correction>
   9.000000E+99

