#       Name:                CT1002167954
#       Creating user name   hitesit
#       Creation time:       Sun Apr 16 02:22:15 2023


#       File generated by GOLD software.
#

@<TRIPOS>MOLECULE
CT1002167954|ligand_prepared|mol2|1|dock4
    29    30     1
SMALL
NO_CHARGES


@<TRIPOS>ATOM
      1 C1         123.2497 242.9590 356.0570 C.3            1 RES1               0.0000
      2 C2         122.1473 243.4970 356.9918 C.ar           1 RES1               0.0000
      3 C3         124.4866 243.8139 356.3168 C.2            1 RES1               0.0000
      4 C4         123.4264 241.4861 356.4092 C.2            1 RES1               0.0000
      5 C5         122.8952 243.0518 354.5546 C.3            1 RES1               0.0000
      6 C6         122.1706 243.2103 358.3534 C.ar           1 RES1               0.0000
      7 C7         121.1039 244.2822 356.5085 C.ar           1 RES1               0.0000
      8 N8         125.5091 243.2486 357.0203 N.am           1 RES1               0.0000
      9 O9         124.5477 244.9792 355.9443 O.2            1 RES1               0.0000
     10 N10        124.6203 241.0955 356.9566 N.am           1 RES1               0.0000
     11 O11        122.5363 240.6633 356.2331 O.2            1 RES1               0.0000
     12 C12        123.8817 242.3347 353.6464 C.3            1 RES1               0.0000
     13 C13        121.1881 243.6934 359.2018 C.ar           1 RES1               0.0000
     14 C14        120.1223 244.7641 357.3586 C.ar           1 RES1               0.0000
     15 C15        125.6584 241.9154 357.3065 C.2            1 RES1               0.0000
     16 C16        120.1637 244.4709 358.7051 C.ar           1 RES1               0.0000
     17 O17        126.6790 241.4965 357.8450 O.2            1 RES1               0.0000
     18 H18        121.8972 242.6233 354.4002 H              1 RES1               0.0000
     19 H19        122.8543 244.1094 354.2661 H              1 RES1               0.0000
     20 H20        122.9675 242.5980 358.7620 H              1 RES1               0.0000
     21 H21        121.0505 244.5247 355.4526 H              1 RES1               0.0000
     22 H22        126.2292 243.8751 357.3656 H              1 RES1               0.0000
     23 H23        124.7471 240.1014 357.1180 H              1 RES1               0.0000
     24 H24        123.5862 242.4309 352.6038 H              1 RES1               0.0000
     25 H25        124.8804 242.7523 353.7556 H              1 RES1               0.0000
     26 H26        123.9290 241.2750 353.8889 H              1 RES1               0.0000
     27 H27        121.2244 243.4587 360.2604 H              1 RES1               0.0000
     28 H28        119.3176 245.3751 356.9633 H              1 RES1               0.0000
     29 H29        119.3943 244.8496 359.3699 H              1 RES1               0.0000
@<TRIPOS>BOND
    1    1    2 1     
    2    1    3 1     
    3    1    4 1     
    4    1    5 1     
    5    2    6 ar    
    6    2    7 ar    
    7    3    8 1     
    8    3    9 2     
    9    4   10 1     
   10    4   11 2     
   11    5   12 1     
   12    5   18 1     
   13    5   19 1     
   14    6   13 ar    
   15    6   20 1     
   16    7   14 ar    
   17    7   21 1     
   18    8   15 1     
   19    8   22 1     
   20   10   15 1     
   21   10   23 1     
   22   12   24 1     
   23   12   25 1     
   24   12   26 1     
   25   13   16 ar    
   26   13   27 1     
   27   14   16 ar    
   28   14   28 1     
   29   15   17 2     
   30   16   29 1     
@<TRIPOS>SUBSTRUCTURE
      1 RES1           1
@<TRIPOS>SET
DONOR_HYDROGENS      STATIC     ATOMS    <user>   **** ""
2 22 23
ATOM$RED        STATIC     ATOMS    COLORGROUP SYSTEM
2 22 23
@<TRIPOS>COMMENT
> <Gold.Version>
2022.3.0

> <Gold.Id.Protein>
unknown|6ng7_clean|pdb

> <Gold.Protein.RotatedTorsions>
[ 9082 9061 9060 9058 ] final  -92.29 input   59.98 | X-H torsion
[ 8982 8971 8970 8967 ] final  176.54 input   60.02 | X-H torsion
[ 8337 8307 8306 8304 ] final   62.18 input   60.01 | X-H torsion
[ 5554 5539 5538 5535 ] final -167.74 input   60.02 | X-H torsion
[ 9167 9146 9144 9141 ] final  138.03 input   60.02 | X-H torsion
[ 12891 12861 12860 12858 ] final -151.78 input   59.98 | X-H torsion
[ 13348 13339 13338 13334 ] final -173.42 input   60.02 | X-H torsion
[ 9491 9475 9474 9471 ] final -106.40 input   59.96 | X-H torsion

> <Gold.Protein.ActiveResidues>
 MET341  TRP414  ARG419  CYS420  VAL421  GLY422  LEU429  LEU460  SER462  ALA463 
 SER482  GLN483  LEU484  ILE485  ARG486  ASP500  ALA502  ASN503  TRP566  TYR567 
 GLY568  LEU569  PRO570  ALA571  VAL572  SER573  ASN574  MET575  PRO588  PHE589 
 SER590  GLY591  TRP592  TYR593  MET594  GLY595  THR596  GLU597  ILE598  VAL600 
 ARG601  ASP602  TYR603  ASP605  SER607  ARG608  ILE653  VAL654  TRP683  PRO687 
 SER691  PHE696  HIS697  TYR711  HEM801  H4B802 

> <Gold.Protein.RotatedAtoms>
  127.9270  248.5278  360.1404 H   0  0  0  0  0  0  0  0  0  0  0  0  # atno 5554 bound_to 5539
  125.4925  241.6466  361.1737 H   0  0  0  0  0  0  0  0  0  0  0  0  # atno 8337 bound_to 8307
  115.8599  243.0881  367.4884 H   0  0  0  0  0  0  0  0  0  0  0  0  # atno 8982 bound_to 8971
  122.4258  240.7604  359.9348 H   0  0  0  0  0  0  0  0  0  0  0  0  # atno 9082 bound_to 9061
  117.9747  238.9388  349.1100 H   0  0  0  0  0  0  0  0  0  0  0  0  # atno 9167 bound_to 9146
  132.1018  244.7243  348.5030 H   0  0  0  0  0  0  0  0  0  0  0  0  # atno 9491 bound_to 9475
  119.9866  252.5895  353.9452 H   0  0  0  0  0  0  0  0  0  0  0  0  # atno 12891 bound_to 12861
  125.2042  248.9766  344.5762 H   0  0  0  0  0  0  0  0  0  0  0  0  # atno 13348 bound_to 13339
  123.0487  240.2472  358.5221 LP  0  0  0  0  0  0  0  0  0  0  0  0  # atno 13479 bound_to 9061
  123.2444  239.3556  359.8761 LP  0  0  0  0  0  0  0  0  0  0  0  0  # atno 13480 bound_to 9061
  114.5852  243.2137  366.4851 LP  0  0  0  0  0  0  0  0  0  0  0  0  # atno 13497 bound_to 8971
  115.1808  244.5428  367.2236 LP  0  0  0  0  0  0  0  0  0  0  0  0  # atno 13498 bound_to 8971
  125.0454  240.6746  359.9472 LP  0  0  0  0  0  0  0  0  0  0  0  0  # atno 13516 bound_to 8307
  126.5939  240.6798  360.4656 LP  0  0  0  0  0  0  0  0  0  0  0  0  # atno 13517 bound_to 8307
  126.5965  247.9268  360.8592 LP  0  0  0  0  0  0  0  0  0  0  0  0  # atno 13524 bound_to 5539
  127.8988  248.3347  361.7559 LP  0  0  0  0  0  0  0  0  0  0  0  0  # atno 13525 bound_to 5539
  118.0982  238.4792  350.6661 LP  0  0  0  0  0  0  0  0  0  0  0  0  # atno 13540 bound_to 9146
  116.9675  237.8049  349.6999 LP  0  0  0  0  0  0  0  0  0  0  0  0  # atno 13541 bound_to 9146
  120.9918  253.0242  352.7418 LP  0  0  0  0  0  0  0  0  0  0  0  0  # atno 13552 bound_to 12861
  119.4378  253.5257  352.7328 LP  0  0  0  0  0  0  0  0  0  0  0  0  # atno 13553 bound_to 12861
  123.8587  248.1317  344.2235 LP  0  0  0  0  0  0  0  0  0  0  0  0  # atno 13554 bound_to 13339
  124.4904  248.0757  345.7283 LP  0  0  0  0  0  0  0  0  0  0  0  0  # atno 13555 bound_to 13339

> <Gold.Score>
     Fitness  S(hb_ext) S(vdw_ext)  S(hb_int)    S(int)      intcor
     37.15       0.66      26.56       0.00      -0.03      -0.76

> <Gold.Goldscore.Fitness>
37.1515

> <Gold.Goldscore.Internal.Vdw>
-0.3059

> <Gold.Goldscore.Internal.Torsion>
-0.4861

> <Gold.Goldscore.External.Vdw>
26.5575

> <Gold.Goldscore.Internal.HBond>
0.0000

> <Gold.Goldscore.External.HBond>
0.6619

> <Gold.Goldscore.Internal.Correction>
-0.7650

> <Gold.Goldscore.Hbonds>
donor molecule, donor type, donor heavy atom, donor atom, acceptor molecule, acceptor atom, score
      P1  H  9502  9538       L1    17  0.09
      L1  H    10    23       P1  9337  0.02

> <Gold.Goldscore.Internal.Vdw.Weighted>
-0.3059

> <Gold.Goldscore.Internal.Torsion.Weighted>
-0.4861

> <Gold.Goldscore.External.Vdw.Weighted>
36.5166

> <Gold.Goldscore.Internal.HBond.Weighted>
0.0000

> <Gold.Goldscore.External.HBond.Weighted>
0.6619

> <Gold.Goldscore.Internal.Correction.Weighted>
-0.7650

> <Gold.Rescore>
     Score     S(PLP)   S(hbond)     S(cho)   S(metal)  DE(clash)   DE(tors)     intcor
     29.15     -27.34       0.97       0.00       0.00       0.00       0.55       ----

> <Gold.PLP.Fitness>
29.1490

> <Gold.PLP.PLP>
-27.3390

> <Gold.PLP.part.hbond>
-7.6716

> <Gold.PLP.part.metal>
0.0000

> <Gold.PLP.part.buried>
7.1681

> <Gold.PLP.part.nonpolar>
-29.5015

> <Gold.PLP.part.repulsive>
2.1524

> <Gold.PLP.ligand.clash>
0.0000

> <Gold.PLP.ligand.torsion>
0.5537

> <Gold.PLP.Chemscore.Hbond>
0.9725

> <Gold.PLP.Chemscore.CHOScore>
0.0000

> <Gold.PLP.Chemscore.Metal>
0.0000

> <Gold.Chemscore.Hbonds>
donor molecule, donor type, donor heavy atom, donor atom, acceptor molecule, acceptor atom, score
      L1  H    10    23       P1  9337  0.42
      P1  H  5676  5713       L1    17  0.22
      P1  H  9502  9538       L1    17  0.85

> <Gold.PLP.Chemscore.Internal.Correction>
   9.000000E+99

