#       Name:                CT1002167954
#       Creating user name   hitesit
#       Creation time:       Sun Apr 16 02:22:20 2023


#       File generated by GOLD software.
#

@<TRIPOS>MOLECULE
CT1002167954|ligand_prepared|mol2|1|dock10
    29    30     1
SMALL
NO_CHARGES


@<TRIPOS>ATOM
      1 C1         122.5588 243.8719 355.2968 C.3            1 RES1               0.0000
      2 C2         121.9260 245.1756 355.8248 C.ar           1 RES1               0.0000
      3 C3         124.0428 244.1659 355.0982 C.2            1 RES1               0.0000
      4 C4         122.2712 242.8030 356.3453 C.2            1 RES1               0.0000
      5 C5         121.9687 243.3916 353.9505 C.3            1 RES1               0.0000
      6 C6         122.7274 246.2367 356.2354 C.ar           1 RES1               0.0000
      7 C7         120.5449 245.3328 355.9045 C.ar           1 RES1               0.0000
      8 N8         124.9184 243.6330 355.9978 N.am           1 RES1               0.0000
      9 O9         124.4354 244.8867 354.1890 O.2            1 RES1               0.0000
     10 N10        123.3342 242.2660 357.0232 N.am           1 RES1               0.0000
     11 O11        121.1323 242.4328 356.6024 O.2            1 RES1               0.0000
     12 C12        122.7221 242.2243 353.3325 C.3            1 RES1               0.0000
     13 C13        122.1685 247.4133 356.7059 C.ar           1 RES1               0.0000
     14 C14        119.9879 246.5103 356.3755 C.ar           1 RES1               0.0000
     15 C15        124.6420 242.6546 356.9186 C.2            1 RES1               0.0000
     16 C16        120.7986 247.5511 356.7758 C.ar           1 RES1               0.0000
     17 O17        125.5347 242.1613 357.6019 O.2            1 RES1               0.0000
     18 H18        120.9247 243.0940 354.1087 H              1 RES1               0.0000
     19 H19        121.9749 244.2300 353.2431 H              1 RES1               0.0000
     20 H20        123.8076 246.1456 356.1899 H              1 RES1               0.0000
     21 H21        119.8877 244.5268 355.5961 H              1 RES1               0.0000
     22 H22        125.8664 243.9956 355.9847 H              1 RES1               0.0000
     23 H23        123.1318 241.5062 357.6650 H              1 RES1               0.0000
     24 H24        122.2669 241.9270 352.3901 H              1 RES1               0.0000
     25 H25        123.7583 242.4934 353.1383 H              1 RES1               0.0000
     26 H26        122.7144 241.3641 353.9988 H              1 RES1               0.0000
     27 H27        122.8108 248.2290 357.0210 H              1 RES1               0.0000
     28 H28        118.9093 246.6141 356.4294 H              1 RES1               0.0000
     29 H29        120.3609 248.4731 357.1440 H              1 RES1               0.0000
@<TRIPOS>BOND
    1    1    2 1     
    2    1    3 1     
    3    1    4 1     
    4    1    5 1     
    5    2    6 ar    
    6    2    7 ar    
    7    3    8 1     
    8    3    9 2     
    9    4   10 1     
   10    4   11 2     
   11    5   12 1     
   12    5   18 1     
   13    5   19 1     
   14    6   13 ar    
   15    6   20 1     
   16    7   14 ar    
   17    7   21 1     
   18    8   15 1     
   19    8   22 1     
   20   10   15 1     
   21   10   23 1     
   22   12   24 1     
   23   12   25 1     
   24   12   26 1     
   25   13   16 ar    
   26   13   27 1     
   27   14   16 ar    
   28   14   28 1     
   29   15   17 2     
   30   16   29 1     
@<TRIPOS>SUBSTRUCTURE
      1 RES1           1
@<TRIPOS>SET
DONOR_HYDROGENS      STATIC     ATOMS    <user>   **** ""
2 22 23
ATOM$RED        STATIC     ATOMS    COLORGROUP SYSTEM
2 22 23
@<TRIPOS>COMMENT
> <Gold.Version>
2022.3.0

> <Gold.Id.Protein>
unknown|6ng7_clean|pdb

> <Gold.Protein.RotatedTorsions>
[ 9082 9061 9060 9058 ] final  -33.03 input   59.98 | X-H torsion
[ 8982 8971 8970 8967 ] final  106.59 input   60.02 | X-H torsion
[ 8337 8307 8306 8304 ] final -132.57 input   60.01 | X-H torsion
[ 5554 5539 5538 5535 ] final   64.13 input   60.02 | X-H torsion
[ 9167 9146 9144 9141 ] final -173.59 input   60.02 | X-H torsion
[ 12891 12861 12860 12858 ] final   37.14 input   59.98 | X-H torsion
[ 13348 13339 13338 13334 ] final  122.71 input   60.02 | X-H torsion
[ 9491 9475 9474 9471 ] final -179.40 input   59.96 | X-H torsion

> <Gold.Protein.ActiveResidues>
 MET341  TRP414  ARG419  CYS420  VAL421  GLY422  LEU429  LEU460  SER462  ALA463 
 SER482  GLN483  LEU484  ILE485  ARG486  ASP500  ALA502  ASN503  TRP566  TYR567 
 GLY568  LEU569  PRO570  ALA571  VAL572  SER573  ASN574  MET575  PRO588  PHE589 
 SER590  GLY591  TRP592  TYR593  MET594  GLY595  THR596  GLU597  ILE598  VAL600 
 ARG601  ASP602  TYR603  ASP605  SER607  ARG608  ILE653  VAL654  TRP683  PRO687 
 SER691  PHE696  HIS697  TYR711  HEM801  H4B802 

> <Gold.Protein.RotatedAtoms>
  126.6082  247.9186  360.9917 H   0  0  0  0  0  0  0  0  0  0  0  0  # atno 5554 bound_to 5539
  126.1459  240.3765  359.9859 H   0  0  0  0  0  0  0  0  0  0  0  0  # atno 8337 bound_to 8307
  115.1129  242.7180  366.8129 H   0  0  0  0  0  0  0  0  0  0  0  0  # atno 8982 bound_to 8971
  122.7559  240.0091  360.3624 H   0  0  0  0  0  0  0  0  0  0  0  0  # atno 9082 bound_to 9061
  117.3918  238.4713  348.9353 H   0  0  0  0  0  0  0  0  0  0  0  0  # atno 9167 bound_to 9146
  132.3954  245.4974  349.2487 H   0  0  0  0  0  0  0  0  0  0  0  0  # atno 9491 bound_to 9475
  120.4273  253.4536  352.3506 H   0  0  0  0  0  0  0  0  0  0  0  0  # atno 12891 bound_to 12861
  124.4952  248.6812  343.9505 H   0  0  0  0  0  0  0  0  0  0  0  0  # atno 13348 bound_to 13339
  122.5718  240.8866  359.0047 LP  0  0  0  0  0  0  0  0  0  0  0  0  # atno 13479 bound_to 9061
  123.3887  239.4732  358.9626 LP  0  0  0  0  0  0  0  0  0  0  0  0  # atno 13480 bound_to 9061
  114.6256  244.2676  366.7215 LP  0  0  0  0  0  0  0  0  0  0  0  0  # atno 13497 bound_to 8971
  115.8930  243.8617  367.6677 LP  0  0  0  0  0  0  0  0  0  0  0  0  # atno 13498 bound_to 8971
  126.1913  241.4624  361.1974 LP  0  0  0  0  0  0  0  0  0  0  0  0  # atno 13516 bound_to 8307
  124.7903  241.1705  360.4109 LP  0  0  0  0  0  0  0  0  0  0  0  0  # atno 13517 bound_to 8307
  128.0036  248.3831  361.6883 LP  0  0  0  0  0  0  0  0  0  0  0  0  # atno 13524 bound_to 5539
  127.8201  248.4921  360.0693 LP  0  0  0  0  0  0  0  0  0  0  0  0  # atno 13525 bound_to 5539
  118.3925  238.9477  350.1269 LP  0  0  0  0  0  0  0  0  0  0  0  0  # atno 13540 bound_to 9146
  117.2600  237.8070  350.4150 LP  0  0  0  0  0  0  0  0  0  0  0  0  # atno 13541 bound_to 9146
  119.2458  253.1493  353.4273 LP  0  0  0  0  0  0  0  0  0  0  0  0  # atno 13552 bound_to 12861
  120.7398  252.5302  353.6534 LP  0  0  0  0  0  0  0  0  0  0  0  0  # atno 13553 bound_to 12861
  123.8555  247.8112  345.1680 LP  0  0  0  0  0  0  0  0  0  0  0  0  # atno 13554 bound_to 13339
  125.2075  248.6936  345.4137 LP  0  0  0  0  0  0  0  0  0  0  0  0  # atno 13555 bound_to 13339

> <Gold.Score>
     Fitness  S(hb_ext) S(vdw_ext)  S(hb_int)    S(int)      intcor
     33.07       3.53      23.01       0.00      -2.10      -0.76

> <Gold.Goldscore.Fitness>
33.0691

> <Gold.Goldscore.Internal.Vdw>
-2.3753

> <Gold.Goldscore.Internal.Torsion>
-0.4787

> <Gold.Goldscore.External.Vdw>
23.0082

> <Gold.Goldscore.Internal.HBond>
0.0000

> <Gold.Goldscore.External.HBond>
3.5300

> <Gold.Goldscore.Internal.Correction>
-0.7568

> <Gold.Goldscore.Hbonds>
donor molecule, donor type, donor heavy atom, donor atom, acceptor molecule, acceptor atom, score
      P1  H  9502  9538       L1    17  0.26
      L1  H    10    23       P1  9061  0.99

> <Gold.Goldscore.Internal.Vdw.Weighted>
-2.3753

> <Gold.Goldscore.Internal.Torsion.Weighted>
-0.4787

> <Gold.Goldscore.External.Vdw.Weighted>
31.6363

> <Gold.Goldscore.Internal.HBond.Weighted>
0.0000

> <Gold.Goldscore.External.HBond.Weighted>
3.5300

> <Gold.Goldscore.Internal.Correction.Weighted>
-0.7568

> <Gold.Rescore>
     Score     S(PLP)   S(hbond)     S(cho)   S(metal)  DE(clash)   DE(tors)     intcor
     26.31     -25.88       1.00       0.00       0.00       1.94       0.31       ----

> <Gold.PLP.Fitness>
26.3099

> <Gold.PLP.PLP>
-25.8818

> <Gold.PLP.part.hbond>
-3.4255

> <Gold.PLP.part.metal>
0.0000

> <Gold.PLP.part.buried>
-3.8138

> <Gold.PLP.part.nonpolar>
-20.1262

> <Gold.PLP.part.repulsive>
0.8289

> <Gold.PLP.ligand.clash>
1.9416

> <Gold.PLP.ligand.torsion>
0.3114

> <Gold.PLP.Chemscore.Hbond>
0.9975

> <Gold.PLP.Chemscore.CHOScore>
0.0000

> <Gold.PLP.Chemscore.Metal>
0.0000

> <Gold.Chemscore.Hbonds>
donor molecule, donor type, donor heavy atom, donor atom, acceptor molecule, acceptor atom, score
      L1  H    10    23       P1  9061  0.34

> <Gold.PLP.Chemscore.Internal.Correction>
   9.000000E+99

