#       Name:                CT1002167954
#       Creating user name   hitesit
#       Creation time:       Sun Apr 16 02:22:16 2023


#       File generated by GOLD software.
#

@<TRIPOS>MOLECULE
CT1002167954|ligand_prepared|mol2|1|dock5
    29    30     1
SMALL
NO_CHARGES


@<TRIPOS>ATOM
      1 C1         117.3420 244.5358 358.6712 C.3            1 RES1               0.0000
      2 C2         118.8339 244.2582 358.9464 C.ar           1 RES1               0.0000
      3 C3         117.1262 244.2803 357.1824 C.2            1 RES1               0.0000
      4 C4         116.5583 243.5985 359.5833 C.2            1 RES1               0.0000
      5 C5         116.9072 245.9856 358.9888 C.3            1 RES1               0.0000
      6 C6         119.6429 243.6950 357.9641 C.ar           1 RES1               0.0000
      7 C7         119.4151 244.5618 360.1747 C.ar           1 RES1               0.0000
      8 N8         116.4618 243.1439 356.8262 N.am           1 RES1               0.0000
      9 O9         117.5669 245.0444 356.3325 O.2            1 RES1               0.0000
     10 N10        115.8032 242.6160 358.9981 N.am           1 RES1               0.0000
     11 O11        116.6009 243.6914 360.8038 O.2            1 RES1               0.0000
     12 C12        115.4308 246.2513 358.7403 C.3            1 RES1               0.0000
     13 C13        120.9850 243.4470 358.1999 C.ar           1 RES1               0.0000
     14 C14        120.7574 244.3127 360.4086 C.ar           1 RES1               0.0000
     15 C15        115.7437 242.3269 357.6620 C.2            1 RES1               0.0000
     16 C16        121.5432 243.7560 359.4220 C.ar           1 RES1               0.0000
     17 O17        115.0841 241.3922 357.2167 O.2            1 RES1               0.0000
     18 H18        117.1322 246.1991 360.0410 H              1 RES1               0.0000
     19 H19        117.4985 246.6745 358.3730 H              1 RES1               0.0000
     20 H20        119.2206 243.4428 356.9970 H              1 RES1               0.0000
     21 H21        118.8159 244.9994 360.9660 H              1 RES1               0.0000
     22 H22        116.5028 242.8766 355.8478 H              1 RES1               0.0000
     23 H23        115.2325 242.0476 359.6158 H              1 RES1               0.0000
     24 H24        115.1791 247.2825 358.9788 H              1 RES1               0.0000
     25 H25        115.1770 246.0731 357.6974 H              1 RES1               0.0000
     26 H26        114.8129 245.6006 359.3555 H              1 RES1               0.0000
     27 H27        121.5988 243.0074 357.4206 H              1 RES1               0.0000
     28 H28        121.1924 244.5570 361.3721 H              1 RES1               0.0000
     29 H29        122.5947 243.5620 359.6064 H              1 RES1               0.0000
@<TRIPOS>BOND
    1    1    2 1     
    2    1    3 1     
    3    1    4 1     
    4    1    5 1     
    5    2    6 ar    
    6    2    7 ar    
    7    3    8 1     
    8    3    9 2     
    9    4   10 1     
   10    4   11 2     
   11    5   12 1     
   12    5   18 1     
   13    5   19 1     
   14    6   13 ar    
   15    6   20 1     
   16    7   14 ar    
   17    7   21 1     
   18    8   15 1     
   19    8   22 1     
   20   10   15 1     
   21   10   23 1     
   22   12   24 1     
   23   12   25 1     
   24   12   26 1     
   25   13   16 ar    
   26   13   27 1     
   27   14   16 ar    
   28   14   28 1     
   29   15   17 2     
   30   16   29 1     
@<TRIPOS>SUBSTRUCTURE
      1 RES1           1
@<TRIPOS>SET
DONOR_HYDROGENS      STATIC     ATOMS    <user>   **** ""
2 22 23
ATOM$RED        STATIC     ATOMS    COLORGROUP SYSTEM
2 22 23
@<TRIPOS>COMMENT
> <Gold.Version>
2022.3.0

> <Gold.Id.Protein>
unknown|6ng7_clean|pdb

> <Gold.Protein.RotatedTorsions>
[ 9082 9061 9060 9058 ] final   88.80 input   59.98 | X-H torsion
[ 8982 8971 8970 8967 ] final -156.65 input   60.02 | X-H torsion
[ 8337 8307 8306 8304 ] final   38.59 input   60.01 | X-H torsion
[ 5554 5539 5538 5535 ] final  169.95 input   60.02 | X-H torsion
[ 9167 9146 9144 9141 ] final  129.65 input   60.02 | X-H torsion
[ 12891 12861 12860 12858 ] final   38.86 input   59.98 | X-H torsion
[ 13348 13339 13338 13334 ] final    4.27 input   60.02 | X-H torsion
[ 9491 9475 9474 9471 ] final   74.32 input   59.96 | X-H torsion

> <Gold.Protein.ActiveResidues>
 MET341  TRP414  ARG419  CYS420  VAL421  GLY422  LEU429  LEU460  SER462  ALA463 
 SER482  GLN483  LEU484  ILE485  ARG486  ASP500  ALA502  ASN503  TRP566  TYR567 
 GLY568  LEU569  PRO570  ALA571  VAL572  SER573  ASN574  MET575  PRO588  PHE589 
 SER590  GLY591  TRP592  TYR593  MET594  GLY595  THR596  GLU597  ILE598  VAL600 
 ARG601  ASP602  TYR603  ASP605  SER607  ARG608  ILE653  VAL654  TRP683  PRO687 
 SER691  PHE696  HIS697  TYR711  HEM801  H4B802 

> <Gold.Protein.RotatedAtoms>
  127.6098  248.4194  360.0033 H   0  0  0  0  0  0  0  0  0  0  0  0  # atno 5554 bound_to 5539
  125.1553  241.5914  361.0011 H   0  0  0  0  0  0  0  0  0  0  0  0  # atno 8337 bound_to 8307
  115.9442  243.4881  367.6339 H   0  0  0  0  0  0  0  0  0  0  0  0  # atno 8982 bound_to 8971
  123.3795  239.4932  358.9411 H   0  0  0  0  0  0  0  0  0  0  0  0  # atno 9082 bound_to 9061
  118.0661  238.9895  349.1984 H   0  0  0  0  0  0  0  0  0  0  0  0  # atno 9167 bound_to 9146
  132.3501  244.4740  350.3416 H   0  0  0  0  0  0  0  0  0  0  0  0  # atno 9491 bound_to 9475
  120.4528  253.4428  352.3549 H   0  0  0  0  0  0  0  0  0  0  0  0  # atno 12891 bound_to 12861
  123.8478  247.8171  345.1433 H   0  0  0  0  0  0  0  0  0  0  0  0  # atno 13348 bound_to 13339
  122.7719  239.9834  360.3684 LP  0  0  0  0  0  0  0  0  0  0  0  0  # atno 13479 bound_to 9061
  122.5603  240.8961  359.0309 LP  0  0  0  0  0  0  0  0  0  0  0  0  # atno 13480 bound_to 9061
  114.8300  242.8768  366.6178 LP  0  0  0  0  0  0  0  0  0  0  0  0  # atno 13497 bound_to 8971
  114.8512  244.4767  366.9443 LP  0  0  0  0  0  0  0  0  0  0  0  0  # atno 13498 bound_to 8971
  125.3555  240.4773  359.8316 LP  0  0  0  0  0  0  0  0  0  0  0  0  # atno 13516 bound_to 8307
  126.6231  240.9327  360.7549 LP  0  0  0  0  0  0  0  0  0  0  0  0  # atno 13517 bound_to 8307
  126.6553  247.9096  361.2187 LP  0  0  0  0  0  0  0  0  0  0  0  0  # atno 13524 bound_to 5539
  128.1596  248.4611  361.5344 LP  0  0  0  0  0  0  0  0  0  0  0  0  # atno 13525 bound_to 5539
  118.0089  238.3825  350.7072 LP  0  0  0  0  0  0  0  0  0  0  0  0  # atno 13540 bound_to 9146
  116.9648  237.8505  349.5699 LP  0  0  0  0  0  0  0  0  0  0  0  0  # atno 13541 bound_to 9146
  119.2408  253.1653  353.4044 LP  0  0  0  0  0  0  0  0  0  0  0  0  # atno 13552 bound_to 12861
  120.7191  252.5251  353.6719 LP  0  0  0  0  0  0  0  0  0  0  0  0  # atno 13553 bound_to 12861
  125.1971  248.6797  345.4328 LP  0  0  0  0  0  0  0  0  0  0  0  0  # atno 13554 bound_to 13339
  124.5178  248.6950  343.9480 LP  0  0  0  0  0  0  0  0  0  0  0  0  # atno 13555 bound_to 13339

> <Gold.Score>
     Fitness  S(hb_ext) S(vdw_ext)  S(hb_int)    S(int)      intcor
     47.70       0.04      36.44       0.00      -2.45      -0.76

> <Gold.Goldscore.Fitness>
47.6998

> <Gold.Goldscore.Internal.Vdw>
-2.8425

> <Gold.Goldscore.Internal.Torsion>
-0.3679

> <Gold.Goldscore.External.Vdw>
36.4389

> <Gold.Goldscore.Internal.HBond>
0.0000

> <Gold.Goldscore.External.HBond>
0.0418

> <Gold.Goldscore.Internal.Correction>
-0.7650

> <Gold.Goldscore.Hbonds>
donor molecule, donor type, donor heavy atom, donor atom, acceptor molecule, acceptor atom, score
      P1  H  8988  8996       L1    11  0.02

> <Gold.Goldscore.Internal.Vdw.Weighted>
-2.8425

> <Gold.Goldscore.Internal.Torsion.Weighted>
-0.3679

> <Gold.Goldscore.External.Vdw.Weighted>
50.1035

> <Gold.Goldscore.Internal.HBond.Weighted>
0.0000

> <Gold.Goldscore.External.HBond.Weighted>
0.0418

> <Gold.Goldscore.Internal.Correction.Weighted>
-0.7650

> <Gold.Rescore>
     Score     S(PLP)   S(hbond)     S(cho)   S(metal)  DE(clash)   DE(tors)     intcor
      9.26     -11.27       0.46       0.00       0.00       1.22       1.09       ----

> <Gold.PLP.Fitness>
9.2589

> <Gold.PLP.PLP>
-11.2738

> <Gold.PLP.part.hbond>
-1.5728

> <Gold.PLP.part.metal>
0.0000

> <Gold.PLP.part.buried>
15.4289

> <Gold.PLP.part.nonpolar>
-35.5466

> <Gold.PLP.part.repulsive>
12.5421

> <Gold.PLP.ligand.clash>
1.2223

> <Gold.PLP.ligand.torsion>
1.0875

> <Gold.PLP.Chemscore.Hbond>
0.4608

> <Gold.PLP.Chemscore.CHOScore>
0.0000

> <Gold.PLP.Chemscore.Metal>
0.0000

> <Gold.Chemscore.Hbonds>
donor molecule, donor type, donor heavy atom, donor atom, acceptor molecule, acceptor atom, score
      L1  H     8    22       P1  9175  0.03
      L1  H    10    23       P1  9005  0.11
      P1  H  8988  8996       L1    11  0.21

> <Gold.PLP.Chemscore.Internal.Correction>
   9.000000E+99

