#       Name:                CT1002167954
#       Creating user name   hitesit
#       Creation time:       Sun Apr 16 02:22:14 2023


#       File generated by GOLD software.
#

@<TRIPOS>MOLECULE
CT1002167954|ligand_prepared|mol2|1|dock3
    29    30     1
SMALL
NO_CHARGES


@<TRIPOS>ATOM
      1 C1         120.4886 244.3677 357.8200 C.3            1 RES1               0.0000
      2 C2         119.0228 243.8985 357.9204 C.ar           1 RES1               0.0000
      3 C3         121.0117 244.4478 359.2512 C.2            1 RES1               0.0000
      4 C4         121.2068 243.3406 356.9517 C.2            1 RES1               0.0000
      5 C5         120.6567 245.7548 357.1573 C.3            1 RES1               0.0000
      6 C6         118.7082 242.5435 357.8807 C.ar           1 RES1               0.0000
      7 C7         117.9765 244.8072 358.0554 C.ar           1 RES1               0.0000
      8 N8         121.8781 243.4781 359.6624 N.am           1 RES1               0.0000
      9 O9         120.6391 245.3258 360.0196 O.2            1 RES1               0.0000
     10 N10        122.1835 242.5769 357.5354 N.am           1 RES1               0.0000
     11 O11        120.9242 243.1742 355.7716 O.2            1 RES1               0.0000
     12 C12        122.0983 246.1037 356.8225 C.3            1 RES1               0.0000
     13 C13        117.3954 242.1122 357.9755 C.ar           1 RES1               0.0000
     14 C14        116.6643 244.3737 358.1498 C.ar           1 RES1               0.0000
     15 C15        122.5304 242.5778 358.8589 C.2            1 RES1               0.0000
     16 C16        116.3728 243.0268 358.1106 C.ar           1 RES1               0.0000
     17 O17        123.3816 241.8226 359.3196 O.2            1 RES1               0.0000
     18 H18        120.0640 245.7794 356.2345 H              1 RES1               0.0000
     19 H19        120.2562 246.5201 357.8335 H              1 RES1               0.0000
     20 H20        119.4994 241.8092 357.7723 H              1 RES1               0.0000
     21 H21        118.1822 245.8717 358.0875 H              1 RES1               0.0000
     22 H22        122.0575 243.4167 360.6596 H              1 RES1               0.0000
     23 H23        122.6998 241.9498 356.9267 H              1 RES1               0.0000
     24 H24        122.1599 247.0864 356.3598 H              1 RES1               0.0000
     25 H25        122.7116 246.1132 357.7211 H              1 RES1               0.0000
     26 H26        122.5206 245.3768 356.1316 H              1 RES1               0.0000
     27 H27        117.1711 241.0511 357.9427 H              1 RES1               0.0000
     28 H28        115.8626 245.0971 358.2554 H              1 RES1               0.0000
     29 H29        115.3445 242.6887 358.1852 H              1 RES1               0.0000
@<TRIPOS>BOND
    1    1    2 1     
    2    1    3 1     
    3    1    4 1     
    4    1    5 1     
    5    2    6 ar    
    6    2    7 ar    
    7    3    8 1     
    8    3    9 2     
    9    4   10 1     
   10    4   11 2     
   11    5   12 1     
   12    5   18 1     
   13    5   19 1     
   14    6   13 ar    
   15    6   20 1     
   16    7   14 ar    
   17    7   21 1     
   18    8   15 1     
   19    8   22 1     
   20   10   15 1     
   21   10   23 1     
   22   12   24 1     
   23   12   25 1     
   24   12   26 1     
   25   13   16 ar    
   26   13   27 1     
   27   14   16 ar    
   28   14   28 1     
   29   15   17 2     
   30   16   29 1     
@<TRIPOS>SUBSTRUCTURE
      1 RES1           1
@<TRIPOS>SET
DONOR_HYDROGENS      STATIC     ATOMS    <user>   **** ""
2 22 23
ATOM$RED        STATIC     ATOMS    COLORGROUP SYSTEM
2 22 23
@<TRIPOS>COMMENT
> <Gold.Version>
2022.3.0

> <Gold.Id.Protein>
unknown|6ng7_clean|pdb

> <Gold.Protein.RotatedTorsions>
[ 9082 9061 9060 9058 ] final  -51.95 input   59.98 | X-H torsion
[ 8982 8971 8970 8967 ] final   13.17 input   60.02 | X-H torsion
[ 8337 8307 8306 8304 ] final  -14.27 input   60.01 | X-H torsion
[ 5554 5539 5538 5535 ] final   42.52 input   60.02 | X-H torsion
[ 9167 9146 9144 9141 ] final   47.72 input   60.02 | X-H torsion
[ 12891 12861 12860 12858 ] final   12.78 input   59.98 | X-H torsion
[ 13348 13339 13338 13334 ] final   54.83 input   60.02 | X-H torsion
[ 9491 9475 9474 9471 ] final  -80.16 input   59.96 | X-H torsion

> <Gold.Protein.ActiveResidues>
 MET341  TRP414  ARG419  CYS420  VAL421  GLY422  LEU429  LEU460  SER462  ALA463 
 SER482  GLN483  LEU484  ILE485  ARG486  ASP500  ALA502  ASN503  TRP566  TYR567 
 GLY568  LEU569  PRO570  ALA571  VAL572  SER573  ASN574  MET575  PRO588  PHE589 
 SER590  GLY591  TRP592  TYR593  MET594  GLY595  THR596  GLU597  ILE598  VAL600 
 ARG601  ASP602  TYR603  ASP605  SER607  ARG608  ILE653  VAL654  TRP683  PRO687 
 SER691  PHE696  HIS697  TYR711  HEM801  H4B802 

> <Gold.Protein.RotatedAtoms>
  126.7079  247.9199  361.3282 H   0  0  0  0  0  0  0  0  0  0  0  0  # atno 5554 bound_to 5539
  124.7954  241.1490  360.3928 H   0  0  0  0  0  0  0  0  0  0  0  0  # atno 8337 bound_to 8307
  114.4919  243.8995  366.5393 H   0  0  0  0  0  0  0  0  0  0  0  0  # atno 8982 bound_to 8971
  122.6121  240.2778  360.3207 H   0  0  0  0  0  0  0  0  0  0  0  0  # atno 9082 bound_to 9061
  118.3287  238.7911  350.3811 H   0  0  0  0  0  0  0  0  0  0  0  0  # atno 9167 bound_to 9146
  132.0188  244.3105  348.5535 H   0  0  0  0  0  0  0  0  0  0  0  0  # atno 9491 bound_to 9475
  120.0484  253.5638  352.3677 H   0  0  0  0  0  0  0  0  0  0  0  0  # atno 12891 bound_to 12861
  123.7916  248.0355  344.3760 H   0  0  0  0  0  0  0  0  0  0  0  0  # atno 13348 bound_to 13339
  122.7081  240.7450  358.7652 LP  0  0  0  0  0  0  0  0  0  0  0  0  # atno 13479 bound_to 9061
  123.3972  239.3441  359.2442 LP  0  0  0  0  0  0  0  0  0  0  0  0  # atno 13480 bound_to 9061
  115.6955  244.2375  367.5807 LP  0  0  0  0  0  0  0  0  0  0  0  0  # atno 13497 bound_to 8971
  115.4487  242.7015  367.0841 LP  0  0  0  0  0  0  0  0  0  0  0  0  # atno 13498 bound_to 8971
  126.1731  240.3795  359.9943 LP  0  0  0  0  0  0  0  0  0  0  0  0  # atno 13516 bound_to 8307
  126.1678  241.4758  361.2045 LP  0  0  0  0  0  0  0  0  0  0  0  0  # atno 13517 bound_to 8307
  128.2253  248.4975  361.4379 LP  0  0  0  0  0  0  0  0  0  0  0  0  # atno 13524 bound_to 5539
  127.4980  248.3764  359.9808 LP  0  0  0  0  0  0  0  0  0  0  0  0  # atno 13525 bound_to 5539
  117.0964  237.7512  350.1625 LP  0  0  0  0  0  0  0  0  0  0  0  0  # atno 13540 bound_to 9146
  117.6129  238.6816  348.9239 LP  0  0  0  0  0  0  0  0  0  0  0  0  # atno 13541 bound_to 9146
  119.3993  252.9199  353.7137 LP  0  0  0  0  0  0  0  0  0  0  0  0  # atno 13552 bound_to 12861
  120.9680  252.6487  353.3498 LP  0  0  0  0  0  0  0  0  0  0  0  0  # atno 13553 bound_to 12861
  124.6499  248.1820  345.7509 LP  0  0  0  0  0  0  0  0  0  0  0  0  # atno 13554 bound_to 13339
  125.1216  248.9730  344.4024 LP  0  0  0  0  0  0  0  0  0  0  0  0  # atno 13555 bound_to 13339

> <Gold.Score>
     Fitness  S(hb_ext) S(vdw_ext)  S(hb_int)    S(int)      intcor
     42.58       2.00      29.87       0.00      -0.49      -0.76

> <Gold.Goldscore.Fitness>
42.5790

> <Gold.Goldscore.Internal.Vdw>
-0.7122

> <Gold.Goldscore.Internal.Torsion>
-0.5475

> <Gold.Goldscore.External.Vdw>
29.8718

> <Gold.Goldscore.Internal.HBond>
0.0000

> <Gold.Goldscore.External.HBond>
2.0000

> <Gold.Goldscore.Internal.Correction>
-0.7650

> <Gold.Goldscore.Hbonds>
donor molecule, donor type, donor heavy atom, donor atom, acceptor molecule, acceptor atom, score
      P1  H  8307  8337       L1    17  1.00

> <Gold.Goldscore.Internal.Vdw.Weighted>
-0.7122

> <Gold.Goldscore.Internal.Torsion.Weighted>
-0.5475

> <Gold.Goldscore.External.Vdw.Weighted>
41.0738

> <Gold.Goldscore.Internal.HBond.Weighted>
0.0000

> <Gold.Goldscore.External.HBond.Weighted>
2.0000

> <Gold.Goldscore.Internal.Correction.Weighted>
-0.7650

> <Gold.Rescore>
     Score     S(PLP)   S(hbond)     S(cho)   S(metal)  DE(clash)   DE(tors)     intcor
     35.12     -37.54       0.00       0.00       0.00       0.00       1.21       ----

> <Gold.PLP.Fitness>
35.1163

> <Gold.PLP.PLP>
-37.5357

> <Gold.PLP.part.hbond>
-2.0000

> <Gold.PLP.part.metal>
0.0000

> <Gold.PLP.part.buried>
-4.2687

> <Gold.PLP.part.nonpolar>
-33.0672

> <Gold.PLP.part.repulsive>
0.5429

> <Gold.PLP.ligand.clash>
0.0000

> <Gold.PLP.ligand.torsion>
1.2097

> <Gold.PLP.Chemscore.Hbond>
0.0000

> <Gold.PLP.Chemscore.CHOScore>
0.0000

> <Gold.PLP.Chemscore.Metal>
0.0000

> <Gold.Chemscore.Hbonds>
donor molecule, donor type, donor heavy atom, donor atom, acceptor molecule, acceptor atom, score
      P1  H  8307  8337       L1    17  1.00

> <Gold.PLP.Chemscore.Internal.Correction>
   9.000000E+99

