#       Name:                CT1002167954
#       Creating user name   hitesit
#       Creation time:       Sun Apr 16 02:22:19 2023


#       File generated by GOLD software.
#

@<TRIPOS>MOLECULE
CT1002167954|ligand_prepared|mol2|1|dock9
    29    30     1
SMALL
NO_CHARGES


@<TRIPOS>ATOM
      1 C1         123.3482 243.7252 355.1835 C.3            1 RES1               0.0000
      2 C2         123.7312 244.4857 353.8975 C.ar           1 RES1               0.0000
      3 C3         123.4131 244.7430 356.3185 C.2            1 RES1               0.0000
      4 C4         121.9566 243.1513 354.9413 C.2            1 RES1               0.0000
      5 C5         124.2969 242.5516 355.5214 C.3            1 RES1               0.0000
      6 C6         124.4911 243.8680 352.9087 C.ar           1 RES1               0.0000
      7 C7         123.3304 245.8020 353.6849 C.ar           1 RES1               0.0000
      8 N8         122.2325 245.1911 356.8336 N.am           1 RES1               0.0000
      9 O9         124.4831 245.1755 356.7286 O.2            1 RES1               0.0000
     10 N10        120.9235 243.6283 355.7049 N.am           1 RES1               0.0000
     11 O11        121.7425 242.3023 354.0848 O.2            1 RES1               0.0000
     12 C12        124.0782 241.9659 356.9075 C.3            1 RES1               0.0000
     13 C13        124.8354 244.5408 351.7481 C.ar           1 RES1               0.0000
     14 C14        123.6760 246.4731 352.5236 C.ar           1 RES1               0.0000
     15 C15        120.9929 244.6442 356.6188 C.2            1 RES1               0.0000
     16 C16        124.4278 245.8435 351.5545 C.ar           1 RES1               0.0000
     17 O17        120.0086 245.0544 357.2271 O.2            1 RES1               0.0000
     18 H18        124.1565 241.7585 354.7767 H              1 RES1               0.0000
     19 H19        125.3335 242.9026 355.4460 H              1 RES1               0.0000
     20 H20        124.8231 242.8441 353.0445 H              1 RES1               0.0000
     21 H21        122.7392 246.3177 354.4340 H              1 RES1               0.0000
     22 H22        122.2751 246.0085 357.4339 H              1 RES1               0.0000
     23 H23        120.0190 243.1848 355.5805 H              1 RES1               0.0000
     24 H24        124.7692 241.1464 357.0934 H              1 RES1               0.0000
     25 H25        124.2345 242.7215 357.6746 H              1 RES1               0.0000
     26 H26        123.0644 241.5842 357.0093 H              1 RES1               0.0000
     27 H27        125.4284 244.0413 350.9891 H              1 RES1               0.0000
     28 H28        123.3535 247.4985 352.3757 H              1 RES1               0.0000
     29 H29        124.6973 246.3702 350.6450 H              1 RES1               0.0000
@<TRIPOS>BOND
    1    1    2 1     
    2    1    3 1     
    3    1    4 1     
    4    1    5 1     
    5    2    6 ar    
    6    2    7 ar    
    7    3    8 1     
    8    3    9 2     
    9    4   10 1     
   10    4   11 2     
   11    5   12 1     
   12    5   18 1     
   13    5   19 1     
   14    6   13 ar    
   15    6   20 1     
   16    7   14 ar    
   17    7   21 1     
   18    8   15 1     
   19    8   22 1     
   20   10   15 1     
   21   10   23 1     
   22   12   24 1     
   23   12   25 1     
   24   12   26 1     
   25   13   16 ar    
   26   13   27 1     
   27   14   16 ar    
   28   14   28 1     
   29   15   17 2     
   30   16   29 1     
@<TRIPOS>SUBSTRUCTURE
      1 RES1           1
@<TRIPOS>SET
DONOR_HYDROGENS      STATIC     ATOMS    <user>   **** ""
2 22 23
ATOM$RED        STATIC     ATOMS    COLORGROUP SYSTEM
2 22 23
@<TRIPOS>COMMENT
> <Gold.Version>
2022.3.0

> <Gold.Id.Protein>
unknown|6ng7_clean|pdb

> <Gold.Protein.RotatedTorsions>
[ 9082 9061 9060 9058 ] final  -70.97 input   59.98 | X-H torsion
[ 8982 8971 8970 8967 ] final  -93.90 input   60.02 | X-H torsion
[ 8337 8307 8306 8304 ] final   56.85 input   60.01 | X-H torsion
[ 5554 5539 5538 5535 ] final  -55.46 input   60.02 | X-H torsion
[ 9167 9146 9144 9141 ] final   64.63 input   60.02 | X-H torsion
[ 12891 12861 12860 12858 ] final   45.11 input   59.98 | X-H torsion
[ 13348 13339 13338 13334 ] final   61.02 input   60.02 | X-H torsion
[ 9491 9475 9474 9471 ] final   79.63 input   59.96 | X-H torsion

> <Gold.Protein.ActiveResidues>
 MET341  TRP414  ARG419  CYS420  VAL421  GLY422  LEU429  LEU460  SER462  ALA463 
 SER482  GLN483  LEU484  ILE485  ARG486  ASP500  ALA502  ASN503  TRP566  TYR567 
 GLY568  LEU569  PRO570  ALA571  VAL572  SER573  ASN574  MET575  PRO588  PHE589 
 SER590  GLY591  TRP592  TYR593  MET594  GLY595  THR596  GLU597  ILE598  VAL600 
 ARG601  ASP602  TYR603  ASP605  SER607  ARG608  ILE653  VAL654  TRP683  PRO687 
 SER691  PHE696  HIS697  TYR711  HEM801  H4B802 

> <Gold.Protein.RotatedAtoms>
  127.9941  248.3815  361.6869 H   0  0  0  0  0  0  0  0  0  0  0  0  # atno 5554 bound_to 5539
  125.4109  241.6435  361.1433 H   0  0  0  0  0  0  0  0  0  0  0  0  # atno 8337 bound_to 8307
  115.5575  244.3715  367.4921 H   0  0  0  0  0  0  0  0  0  0  0  0  # atno 8982 bound_to 8971
  122.4993  240.5309  360.1834 H   0  0  0  0  0  0  0  0  0  0  0  0  # atno 9082 bound_to 9061
  118.3869  238.9297  350.1504 H   0  0  0  0  0  0  0  0  0  0  0  0  # atno 9167 bound_to 9146
  132.3695  244.5585  350.3459 H   0  0  0  0  0  0  0  0  0  0  0  0  # atno 9491 bound_to 9475
  120.5431  253.4005  352.3762 H   0  0  0  0  0  0  0  0  0  0  0  0  # atno 12891 bound_to 12861
  123.8250  248.0865  344.2954 H   0  0  0  0  0  0  0  0  0  0  0  0  # atno 13348 bound_to 13339
  122.8667  240.5348  358.5984 LP  0  0  0  0  0  0  0  0  0  0  0  0  # atno 13479 bound_to 9061
  123.3523  239.2992  359.5492 LP  0  0  0  0  0  0  0  0  0  0  0  0  # atno 13480 bound_to 9061
  115.5990  242.7681  367.2185 LP  0  0  0  0  0  0  0  0  0  0  0  0  # atno 13497 bound_to 8971
  114.4717  243.6955  366.4864 LP  0  0  0  0  0  0  0  0  0  0  0  0  # atno 13498 bound_to 8971
  125.1074  240.6239  359.9116 LP  0  0  0  0  0  0  0  0  0  0  0  0  # atno 13516 bound_to 8307
  126.6140  240.7337  360.5318 LP  0  0  0  0  0  0  0  0  0  0  0  0  # atno 13517 bound_to 8307
  127.8258  248.4940  360.0722 LP  0  0  0  0  0  0  0  0  0  0  0  0  # atno 13524 bound_to 5539
  126.6020  247.9149  360.9852 LP  0  0  0  0  0  0  0  0  0  0  0  0  # atno 13525 bound_to 5539
  117.2423  237.7989  350.3934 LP  0  0  0  0  0  0  0  0  0  0  0  0  # atno 13540 bound_to 9146
  117.4083  238.4944  348.9253 LP  0  0  0  0  0  0  0  0  0  0  0  0  # atno 13541 bound_to 9146
  119.2295  253.2223  353.3197 LP  0  0  0  0  0  0  0  0  0  0  0  0  # atno 13552 bound_to 12861
  120.6394  252.5107  353.7351 LP  0  0  0  0  0  0  0  0  0  0  0  0  # atno 13553 bound_to 12861
  124.5661  248.1245  345.7437 LP  0  0  0  0  0  0  0  0  0  0  0  0  # atno 13554 bound_to 13339
  125.1717  248.9790  344.4908 LP  0  0  0  0  0  0  0  0  0  0  0  0  # atno 13555 bound_to 13339

> <Gold.Score>
     Fitness  S(hb_ext) S(vdw_ext)  S(hb_int)    S(int)      intcor
     31.97       4.49      20.48       0.00      -0.68      -0.76

> <Gold.Goldscore.Fitness>
31.9705

> <Gold.Goldscore.Internal.Vdw>
-0.8893

> <Gold.Goldscore.Internal.Torsion>
-0.5498

> <Gold.Goldscore.External.Vdw>
20.4832

> <Gold.Goldscore.Internal.HBond>
0.0000

> <Gold.Goldscore.External.HBond>
4.4884

> <Gold.Goldscore.Internal.Correction>
-0.7568

> <Gold.Goldscore.Hbonds>
donor molecule, donor type, donor heavy atom, donor atom, acceptor molecule, acceptor atom, score
      P1  H  5563  5588       L1     9  0.09
      L1  H    10    23       P1  9175  0.72

> <Gold.Goldscore.Internal.Vdw.Weighted>
-0.8893

> <Gold.Goldscore.Internal.Torsion.Weighted>
-0.5498

> <Gold.Goldscore.External.Vdw.Weighted>
28.1644

> <Gold.Goldscore.Internal.HBond.Weighted>
0.0000

> <Gold.Goldscore.External.HBond.Weighted>
4.4884

> <Gold.Goldscore.Internal.Correction.Weighted>
-0.7568

> <Gold.Rescore>
     Score     S(PLP)   S(hbond)     S(cho)   S(metal)  DE(clash)   DE(tors)     intcor
     17.67     -15.48       1.43       0.00       0.00       0.00       1.05       ----

> <Gold.PLP.Fitness>
17.6743

> <Gold.PLP.PLP>
-15.4776

> <Gold.PLP.part.hbond>
-0.7713

> <Gold.PLP.part.metal>
0.0000

> <Gold.PLP.part.buried>
1.0678

> <Gold.PLP.part.nonpolar>
-16.3915

> <Gold.PLP.part.repulsive>
0.8164

> <Gold.PLP.ligand.clash>
0.0000

> <Gold.PLP.ligand.torsion>
1.0452

> <Gold.PLP.Chemscore.Hbond>
1.4290

> <Gold.PLP.Chemscore.CHOScore>
0.0000

> <Gold.PLP.Chemscore.Metal>
0.0000

> <Gold.Chemscore.Hbonds>
donor molecule, donor type, donor heavy atom, donor atom, acceptor molecule, acceptor atom, score
      L1  H    10    23       P1  9175  1.00
      P1  H  5563  5588       L1     9  0.59

> <Gold.PLP.Chemscore.Internal.Correction>
   9.000000E+99

