#       Name:                CT1002167954
#       Creating user name   hitesit
#       Creation time:       Sun Apr 16 02:22:12 2023


#       File generated by GOLD software.
#

@<TRIPOS>MOLECULE
CT1002167954|ligand_prepared|mol2|1|dock1
    29    30     1
SMALL
NO_CHARGES


@<TRIPOS>ATOM
      1 C1         117.4155 244.8505 358.3752 C.3            1 RES1               0.0000
      2 C2         118.4115 245.7263 357.5879 C.ar           1 RES1               0.0000
      3 C3         118.1181 244.4640 359.6734 C.2            1 RES1               0.0000
      4 C4         116.1649 245.6997 358.5736 C.2            1 RES1               0.0000
      5 C5         117.0020 243.5564 357.6364 C.3            1 RES1               0.0000
      6 C6         118.2797 247.1116 357.5742 C.ar           1 RES1               0.0000
      7 C7         119.4667 245.1646 356.8741 C.ar           1 RES1               0.0000
      8 N8         117.7084 245.0775 360.8204 N.am           1 RES1               0.0000
      9 O9         119.0441 243.6624 359.6846 O.2            1 RES1               0.0000
     10 N10        115.8339 246.0664 359.8518 N.am           1 RES1               0.0000
     11 O11        115.4724 246.0686 357.6331 O.2            1 RES1               0.0000
     12 C12        115.9859 242.7160 358.3937 C.3            1 RES1               0.0000
     13 C13        119.1723 247.9069 356.8747 C.ar           1 RES1               0.0000
     14 C14        120.3580 245.9617 356.1751 C.ar           1 RES1               0.0000
     15 C15        116.5659 245.8195 360.9812 C.2            1 RES1               0.0000
     16 C16        120.2121 247.3326 356.1751 C.ar           1 RES1               0.0000
     17 O17        116.2307 246.2291 362.0888 O.2            1 RES1               0.0000
     18 H18        116.5798 243.8264 356.6606 H              1 RES1               0.0000
     19 H19        117.8985 242.9500 357.4576 H              1 RES1               0.0000
     20 H20        117.4662 247.5813 358.1169 H              1 RES1               0.0000
     21 H21        119.6004 244.0882 356.8590 H              1 RES1               0.0000
     22 H22        118.3068 244.9751 361.6339 H              1 RES1               0.0000
     23 H23        114.9608 246.5698 359.9726 H              1 RES1               0.0000
     24 H24        115.7305 241.8203 357.8315 H              1 RES1               0.0000
     25 H25        116.3825 242.4085 359.3591 H              1 RES1               0.0000
     26 H26        115.0716 243.2797 358.5669 H              1 RES1               0.0000
     27 H27        119.0523 248.9852 356.8768 H              1 RES1               0.0000
     28 H28        121.1746 245.5053 355.6253 H              1 RES1               0.0000
     29 H29        120.9114 247.9558 355.6275 H              1 RES1               0.0000
@<TRIPOS>BOND
    1    1    2 1     
    2    1    3 1     
    3    1    4 1     
    4    1    5 1     
    5    2    6 ar    
    6    2    7 ar    
    7    3    8 1     
    8    3    9 2     
    9    4   10 1     
   10    4   11 2     
   11    5   12 1     
   12    5   18 1     
   13    5   19 1     
   14    6   13 ar    
   15    6   20 1     
   16    7   14 ar    
   17    7   21 1     
   18    8   15 1     
   19    8   22 1     
   20   10   15 1     
   21   10   23 1     
   22   12   24 1     
   23   12   25 1     
   24   12   26 1     
   25   13   16 ar    
   26   13   27 1     
   27   14   16 ar    
   28   14   28 1     
   29   15   17 2     
   30   16   29 1     
@<TRIPOS>SUBSTRUCTURE
      1 RES1           1
@<TRIPOS>SET
DONOR_HYDROGENS      STATIC     ATOMS    <user>   **** ""
2 22 23
ATOM$RED        STATIC     ATOMS    COLORGROUP SYSTEM
2 22 23
@<TRIPOS>COMMENT
> <Gold.Version>
2022.3.0

> <Gold.Id.Protein>
unknown|6ng7_clean|pdb

> <Gold.Protein.RotatedTorsions>
[ 9082 9061 9060 9058 ] final -172.94 input   59.98 | X-H torsion
[ 8982 8971 8970 8967 ] final   56.14 input   60.02 | X-H torsion
[ 8337 8307 8306 8304 ] final  -53.24 input   60.01 | X-H torsion
[ 5554 5539 5538 5535 ] final   13.75 input   60.02 | X-H torsion
[ 9167 9146 9144 9141 ] final   85.59 input   60.02 | X-H torsion
[ 12891 12861 12860 12858 ] final   39.38 input   59.98 | X-H torsion
[ 13348 13339 13338 13334 ] final   26.49 input   60.02 | X-H torsion
[ 9491 9475 9474 9471 ] final   62.14 input   59.96 | X-H torsion

> <Gold.Protein.ActiveResidues>
 MET341  TRP414  ARG419  CYS420  VAL421  GLY422  LEU429  LEU460  SER462  ALA463 
 SER482  GLN483  LEU484  ILE485  ARG486  ASP500  ALA502  ASN503  TRP566  TYR567 
 GLY568  LEU569  PRO570  ALA571  VAL572  SER573  ASN574  MET575  PRO588  PHE589 
 SER590  GLY591  TRP592  TYR593  MET594  GLY595  THR596  GLU597  ILE598  VAL600 
 ARG601  ASP602  TYR603  ASP605  SER607  ARG608  ILE653  VAL654  TRP683  PRO687 
 SER691  PHE696  HIS697  TYR711  HEM801  H4B802 

> <Gold.Protein.RotatedAtoms>
  127.0032  247.9959  361.6794 H   0  0  0  0  0  0  0  0  0  0  0  0  # atno 5554 bound_to 5539
  125.0008  240.7204  359.9870 H   0  0  0  0  0  0  0  0  0  0  0  0  # atno 8337 bound_to 8307
  114.5884  243.2229  366.4865 H   0  0  0  0  0  0  0  0  0  0  0  0  # atno 8982 bound_to 8971
  122.7155  240.7298  358.7591 H   0  0  0  0  0  0  0  0  0  0  0  0  # atno 9082 bound_to 9061
  118.3744  239.0378  349.8277 H   0  0  0  0  0  0  0  0  0  0  0  0  # atno 9167 bound_to 9146
  132.3020  244.2854  350.3023 H   0  0  0  0  0  0  0  0  0  0  0  0  # atno 9491 bound_to 9475
  120.4605  253.4395  352.3563 H   0  0  0  0  0  0  0  0  0  0  0  0  # atno 12891 bound_to 12861
  123.7503  247.8635  344.7991 H   0  0  0  0  0  0  0  0  0  0  0  0  # atno 13348 bound_to 13339
  123.3962  239.3395  359.2599 LP  0  0  0  0  0  0  0  0  0  0  0  0  # atno 13479 bound_to 9061
  122.6051  240.2941  360.3227 LP  0  0  0  0  0  0  0  0  0  0  0  0  # atno 13480 bound_to 9061
  115.1861  244.5422  367.2278 LP  0  0  0  0  0  0  0  0  0  0  0  0  # atno 13497 bound_to 8971
  115.8608  243.0785  367.4902 LP  0  0  0  0  0  0  0  0  0  0  0  0  # atno 13498 bound_to 8971
  126.5705  240.6358  360.4091 LP  0  0  0  0  0  0  0  0  0  0  0  0  # atno 13516 bound_to 8307
  125.5636  241.6509  361.1981 LP  0  0  0  0  0  0  0  0  0  0  0  0  # atno 13517 bound_to 8307
  128.3536  248.5965  360.9984 LP  0  0  0  0  0  0  0  0  0  0  0  0  # atno 13524 bound_to 5539
  127.0723  248.2008  360.0665 LP  0  0  0  0  0  0  0  0  0  0  0  0  # atno 13525 bound_to 5539
  117.4740  237.9304  350.6093 LP  0  0  0  0  0  0  0  0  0  0  0  0  # atno 13540 bound_to 9146
  117.1893  238.2540  349.0342 LP  0  0  0  0  0  0  0  0  0  0  0  0  # atno 13541 bound_to 9146
  119.2395  253.1701  353.3975 LP  0  0  0  0  0  0  0  0  0  0  0  0  # atno 13552 bound_to 12861
  120.7127  252.5237  353.6774 LP  0  0  0  0  0  0  0  0  0  0  0  0  # atno 13553 bound_to 12861
  124.9999  248.4657  345.6502 LP  0  0  0  0  0  0  0  0  0  0  0  0  # atno 13554 bound_to 13339
  124.8131  248.8624  344.0772 LP  0  0  0  0  0  0  0  0  0  0  0  0  # atno 13555 bound_to 13339

> <Gold.Score>
     Fitness  S(hb_ext) S(vdw_ext)  S(hb_int)    S(int)      intcor
     38.98       0.66      29.09       0.00      -1.68      -0.76

> <Gold.Goldscore.Fitness>
38.9846

> <Gold.Goldscore.Internal.Vdw>
-2.0670

> <Gold.Goldscore.Internal.Torsion>
-0.3730

> <Gold.Goldscore.External.Vdw>
29.0871

> <Gold.Goldscore.Internal.HBond>
0.0000

> <Gold.Goldscore.External.HBond>
0.6649

> <Gold.Goldscore.Internal.Correction>
-0.7650

> <Gold.Goldscore.Hbonds>
donor molecule, donor type, donor heavy atom, donor atom, acceptor molecule, acceptor atom, score
      P1  H  8438  8452       L1    17  0.33

> <Gold.Goldscore.Internal.Vdw.Weighted>
-2.0670

> <Gold.Goldscore.Internal.Torsion.Weighted>
-0.3730

> <Gold.Goldscore.External.Vdw.Weighted>
39.9948

> <Gold.Goldscore.Internal.HBond.Weighted>
0.0000

> <Gold.Goldscore.External.HBond.Weighted>
0.6649

> <Gold.Goldscore.Internal.Correction.Weighted>
-0.7650

> <Gold.Rescore>
     Score     S(PLP)   S(hbond)     S(cho)   S(metal)  DE(clash)   DE(tors)     intcor
     39.90     -36.19       0.00       0.00       1.00       1.76       0.26       ----

> <Gold.PLP.Fitness>
39.9040

> <Gold.PLP.PLP>
-36.1860

> <Gold.PLP.part.hbond>
-2.3939

> <Gold.PLP.part.metal>
-1.0000

> <Gold.PLP.part.buried>
15.0829

> <Gold.PLP.part.nonpolar>
-54.3351

> <Gold.PLP.part.repulsive>
6.7872

> <Gold.PLP.ligand.clash>
1.7569

> <Gold.PLP.ligand.torsion>
0.2626

> <Gold.PLP.Chemscore.Hbond>
0.0000

> <Gold.PLP.Chemscore.CHOScore>
0.0000

> <Gold.PLP.Chemscore.Metal>
1.0000

> <Gold.Chemscore.Hbonds>
donor molecule, donor type, donor heavy atom, donor atom, acceptor molecule, acceptor atom, score
      P1  M 13291 13291       L1    11  1.00

> <Gold.PLP.Chemscore.Internal.Correction>
   9.000000E+99

