#       Name:                GA Fitting Points
#       Creating user name   hitesit
#       Creation time:       Sun Apr 16 02:33:40 2023


#       Fitting Points Used by GA Software.
#

@<TRIPOS>MOLECULE
GA Fitting Points
  3810    0    0
SMALL
NO_CHARGES


@<TRIPOS>ATOM
      1 ****       220.5000 343.7500 -110.7500 Du        
      2 ****       220.5000 343.7500 -110.5000 Du        
      3 ****       220.5000 343.7500 -110.2500 Du        
      4 ****       220.5000 343.7500 -110.0000 Du        
      5 ****       220.5000 343.7500 -109.7500 Du        
      6 ****       220.5000 343.7500 -109.5000 Du        
      7 ****       220.5000 344.0000 -110.2500 Du        
      8 ****       220.5000 344.0000 -110.0000 Du        
      9 ****       220.5000 344.0000 -109.7500 Du        
     10 ****       220.5000 344.0000 -109.5000 Du        
     11 ****       220.5000 344.0000 -109.2500 Du        
     12 ****       220.5000 344.0000 -109.0000 Du        
     13 ****       220.5000 344.2500 -110.0000 Du        
     14 ****       220.5000 344.2500 -109.7500 Du        
     15 ****       220.5000 344.2500 -109.5000 Du        
     16 ****       220.5000 344.2500 -109.2500 Du        
     17 ****       220.7500 343.5000 -110.7500 Du        
     18 ****       220.7500 343.5000 -110.5000 Du        
     19 ****       220.7500 343.5000 -110.2500 Du        
     20 ****       220.7500 343.5000 -110.0000 Du        
     21 ****       220.7500 343.5000 -109.7500 Du        
     22 ****       220.7500 343.5000 -109.5000 Du        
     23 ****       220.7500 343.5000 -109.2500 Du        
     24 ****       220.7500 343.7500 -111.0000 Du        
     25 ****       220.7500 343.7500 -110.7500 Du        
     26 ****       220.7500 343.7500 -110.5000 Du        
     27 ****       220.7500 343.7500 -110.2500 Du        
     28 ****       220.7500 343.7500 -110.0000 Du        
     29 ****       220.7500 343.7500 -109.7500 Du        
     30 ****       220.7500 343.7500 -109.5000 Du        
     31 ****       220.7500 343.7500 -109.2500 Du        
     32 ****       220.7500 343.7500 -109.0000 Du        
     33 ****       220.7500 343.7500 -108.7500 Du        
     34 ****       220.7500 344.0000 -110.7500 Du        
     35 ****       220.7500 344.0000 -110.5000 Du        
     36 ****       220.7500 344.0000 -110.2500 Du        
     37 ****       220.7500 344.0000 -110.0000 Du        
     38 ****       220.7500 344.0000 -109.7500 Du        
     39 ****       220.7500 344.0000 -109.5000 Du        
     40 ****       220.7500 344.0000 -109.2500 Du        
     41 ****       220.7500 344.0000 -109.0000 Du        
     42 ****       220.7500 344.0000 -108.7500 Du        
     43 ****       220.7500 344.2500 -110.2500 Du        
     44 ****       220.7500 344.2500 -110.0000 Du        
     45 ****       220.7500 344.2500 -109.7500 Du        
     46 ****       220.7500 344.2500 -109.5000 Du        
     47 ****       220.7500 344.2500 -109.2500 Du        
     48 ****       220.7500 344.2500 -109.0000 Du        
     49 ****       220.7500 344.2500 -108.7500 Du        
     50 ****       220.7500 348.0000 -102.2500 Du        
     51 ****       220.7500 348.0000 -102.0000 Du        
     52 ****       220.7500 348.0000 -101.7500 Du        
     53 ****       220.7500 348.0000 -101.5000 Du        
     54 ****       220.7500 348.0000 -101.2500 Du        
     55 ****       220.7500 348.2500 -102.0000 Du        
     56 ****       220.7500 348.2500 -101.7500 Du        
     57 ****       220.7500 348.2500 -101.5000 Du        
     58 ****       220.7500 348.5000 -102.0000 Du        
     59 ****       220.7500 348.5000 -101.7500 Du        
     60 ****       220.7500 348.5000 -101.5000 Du        
     61 ****       220.7500 348.5000 -101.2500 Du        
     62 ****       220.7500 348.7500 -101.7500 Du        
     63 ****       220.7500 348.7500 -101.5000 Du        
     64 ****       220.7500 348.7500 -101.2500 Du        
     65 ****       221.0000 342.7500 -112.7500 Du        
     66 ****       221.0000 343.2500 -111.7500 Du        
     67 ****       221.0000 343.2500 -111.5000 Du        
     68 ****       221.0000 343.2500 -111.2500 Du        
     69 ****       221.0000 343.2500 -111.0000 Du        
     70 ****       221.0000 343.2500 -110.7500 Du        
     71 ****       221.0000 343.2500 -110.5000 Du        
     72 ****       221.0000 343.2500 -110.2500 Du        
     73 ****       221.0000 343.2500 -110.0000 Du        
     74 ****       221.0000 343.2500 -109.7500 Du        
     75 ****       221.0000 343.2500 -109.5000 Du        
     76 ****       221.0000 343.2500 -109.2500 Du        
     77 ****       221.0000 343.5000 -111.7500 Du        
     78 ****       221.0000 343.5000 -111.5000 Du        
     79 ****       221.0000 343.5000 -111.2500 Du        
     80 ****       221.0000 343.5000 -111.0000 Du        
     81 ****       221.0000 343.5000 -110.7500 Du        
     82 ****       221.0000 343.5000 -110.5000 Du        
     83 ****       221.0000 343.5000 -110.2500 Du        
     84 ****       221.0000 343.5000 -110.0000 Du        
     85 ****       221.0000 343.5000 -109.7500 Du        
     86 ****       221.0000 343.5000 -109.5000 Du        
     87 ****       221.0000 343.5000 -109.2500 Du        
     88 ****       221.0000 343.5000 -109.0000 Du        
     89 ****       221.0000 343.5000 -108.7500 Du        
     90 ****       221.0000 343.7500 -111.2500 Du        
     91 ****       221.0000 343.7500 -111.0000 Du        
     92 ****       221.0000 343.7500 -110.7500 Du        
     93 ****       221.0000 343.7500 -110.5000 Du        
     94 ****       221.0000 343.7500 -110.2500 Du        
     95 ****       221.0000 343.7500 -110.0000 Du        
     96 ****       221.0000 343.7500 -109.7500 Du        
     97 ****       221.0000 343.7500 -109.5000 Du        
     98 ****       221.0000 343.7500 -109.2500 Du        
     99 ****       221.0000 343.7500 -109.0000 Du        
    100 ****       221.0000 343.7500 -108.7500 Du        
    101 ****       221.0000 343.7500 -108.5000 Du        
    102 ****       221.0000 344.0000 -111.2500 Du        
    103 ****       221.0000 344.0000 -111.0000 Du        
    104 ****       221.0000 344.0000 -110.7500 Du        
    105 ****       221.0000 344.0000 -110.5000 Du        
    106 ****       221.0000 344.0000 -110.2500 Du        
    107 ****       221.0000 344.0000 -110.0000 Du        
    108 ****       221.0000 344.0000 -109.7500 Du        
    109 ****       221.0000 344.0000 -109.5000 Du        
    110 ****       221.0000 344.0000 -109.2500 Du        
    111 ****       221.0000 344.0000 -109.0000 Du        
    112 ****       221.0000 344.0000 -108.7500 Du        
    113 ****       221.0000 344.0000 -108.5000 Du        
    114 ****       221.0000 344.2500 -110.5000 Du        
    115 ****       221.0000 344.2500 -110.2500 Du        
    116 ****       221.0000 344.2500 -110.0000 Du        
    117 ****       221.0000 344.2500 -109.7500 Du        
    118 ****       221.0000 344.2500 -109.5000 Du        
    119 ****       221.0000 344.2500 -109.2500 Du        
    120 ****       221.0000 344.2500 -109.0000 Du        
    121 ****       221.0000 344.2500 -108.7500 Du        
    122 ****       221.0000 344.2500 -108.5000 Du        
    123 ****       221.0000 347.2500 -102.0000 Du        
    124 ****       221.0000 347.2500 -101.7500 Du        
    125 ****       221.0000 347.5000 -102.0000 Du        
    126 ****       221.0000 347.5000 -101.7500 Du        
    127 ****       221.0000 347.5000 -101.5000 Du        
    128 ****       221.0000 347.5000 -101.2500 Du        
    129 ****       221.0000 347.7500 -102.2500 Du        
    130 ****       221.0000 347.7500 -102.0000 Du        
    131 ****       221.0000 347.7500 -101.7500 Du        
    132 ****       221.0000 347.7500 -101.5000 Du        
    133 ****       221.0000 347.7500 -101.2500 Du        
    134 ****       221.0000 347.7500 -101.0000 Du        
    135 ****       221.0000 348.0000 -102.2500 Du        
    136 ****       221.0000 348.0000 -102.0000 Du        
    137 ****       221.0000 348.0000 -101.7500 Du        
    138 ****       221.0000 348.0000 -101.5000 Du        
    139 ****       221.0000 348.0000 -101.2500 Du        
    140 ****       221.0000 348.0000 -101.0000 Du        
    141 ****       221.0000 348.2500 -102.2500 Du        
    142 ****       221.0000 348.2500 -102.0000 Du        
    143 ****       221.0000 348.2500 -101.7500 Du        
    144 ****       221.0000 348.2500 -101.5000 Du        
    145 ****       221.0000 348.2500 -101.2500 Du        
    146 ****       221.0000 348.2500 -101.0000 Du        
    147 ****       221.0000 348.5000 -102.0000 Du        
    148 ****       221.0000 348.5000 -101.7500 Du        
    149 ****       221.0000 348.5000 -101.5000 Du        
    150 ****       221.0000 348.5000 -101.2500 Du        
    151 ****       221.0000 348.5000 -101.0000 Du        
    152 ****       221.0000 348.5000 -100.7500 Du        
    153 ****       221.0000 348.7500 -101.7500 Du        
    154 ****       221.0000 348.7500 -101.5000 Du        
    155 ****       221.0000 348.7500 -101.2500 Du        
    156 ****       221.0000 348.7500 -101.0000 Du        
    157 ****       221.0000 348.7500 -100.7500 Du        
    158 ****       221.0000 348.7500 -100.0000 Du        
    159 ****       221.0000 349.0000 -100.0000 Du        
    160 ****       221.2500 342.7500 -113.2500 Du        
    161 ****       221.2500 342.7500 -113.0000 Du        
    162 ****       221.2500 342.7500 -112.7500 Du        
    163 ****       221.2500 342.7500 -112.2500 Du        
    164 ****       221.2500 342.7500 -112.0000 Du        
    165 ****       221.2500 342.7500 -111.7500 Du        
    166 ****       221.2500 343.0000 -114.0000 Du        
    167 ****       221.2500 343.0000 -113.7500 Du        
    168 ****       221.2500 343.0000 -113.2500 Du        
    169 ****       221.2500 343.0000 -113.0000 Du        
    170 ****       221.2500 343.0000 -112.7500 Du        
    171 ****       221.2500 343.0000 -112.5000 Du        
    172 ****       221.2500 343.0000 -112.2500 Du        
    173 ****       221.2500 343.0000 -112.0000 Du        
    174 ****       221.2500 343.0000 -111.7500 Du        
    175 ****       221.2500 343.0000 -111.5000 Du        
    176 ****       221.2500 343.0000 -111.2500 Du        
    177 ****       221.2500 343.0000 -111.0000 Du        
    178 ****       221.2500 343.0000 -110.7500 Du        
    179 ****       221.2500 343.0000 -110.5000 Du        
    180 ****       221.2500 343.0000 -110.2500 Du        
    181 ****       221.2500 343.0000 -110.0000 Du        
    182 ****       221.2500 343.0000 -109.7500 Du        
    183 ****       221.2500 343.0000 -109.5000 Du        
    184 ****       221.2500 343.0000 -109.2500 Du        
    185 ****       221.2500 343.0000 -109.0000 Du        
    186 ****       221.2500 343.2500 -112.7500 Du        
    187 ****       221.2500 343.2500 -112.5000 Du        
    188 ****       221.2500 343.2500 -112.2500 Du        
    189 ****       221.2500 343.2500 -112.0000 Du        
    190 ****       221.2500 343.2500 -111.7500 Du        
    191 ****       221.2500 343.2500 -111.5000 Du        
    192 ****       221.2500 343.2500 -111.2500 Du        
    193 ****       221.2500 343.2500 -111.0000 Du        
    194 ****       221.2500 343.2500 -110.7500 Du        
    195 ****       221.2500 343.2500 -110.5000 Du        
    196 ****       221.2500 343.2500 -110.2500 Du        
    197 ****       221.2500 343.2500 -110.0000 Du        
    198 ****       221.2500 343.2500 -109.7500 Du        
    199 ****       221.2500 343.2500 -109.5000 Du        
    200 ****       221.2500 343.2500 -109.2500 Du        
    201 ****       221.2500 343.2500 -109.0000 Du        
    202 ****       221.2500 343.2500 -108.7500 Du        
    203 ****       221.2500 343.5000 -112.0000 Du        
    204 ****       221.2500 343.5000 -111.7500 Du        
    205 ****       221.2500 343.5000 -111.5000 Du        
    206 ****       221.2500 343.5000 -111.2500 Du        
    207 ****       221.2500 343.5000 -111.0000 Du        
    208 ****       221.2500 343.5000 -110.7500 Du        
    209 ****       221.2500 343.5000 -110.5000 Du        
    210 ****       221.2500 343.5000 -110.2500 Du        
    211 ****       221.2500 343.5000 -110.0000 Du        
    212 ****       221.2500 343.5000 -109.7500 Du        
    213 ****       221.2500 343.5000 -109.5000 Du        
    214 ****       221.2500 343.5000 -109.2500 Du        
    215 ****       221.2500 343.5000 -109.0000 Du        
    216 ****       221.2500 343.5000 -108.7500 Du        
    217 ****       221.2500 343.5000 -108.5000 Du        
    218 ****       221.2500 343.7500 -111.7500 Du        
    219 ****       221.2500 343.7500 -111.5000 Du        
    220 ****       221.2500 343.7500 -111.2500 Du        
    221 ****       221.2500 343.7500 -111.0000 Du        
    222 ****       221.2500 343.7500 -110.7500 Du        
    223 ****       221.2500 343.7500 -110.5000 Du        
    224 ****       221.2500 343.7500 -110.2500 Du        
    225 ****       221.2500 343.7500 -110.0000 Du        
    226 ****       221.2500 343.7500 -109.7500 Du        
    227 ****       221.2500 343.7500 -109.5000 Du        
    228 ****       221.2500 343.7500 -109.2500 Du        
    229 ****       221.2500 343.7500 -109.0000 Du        
    230 ****       221.2500 343.7500 -108.7500 Du        
    231 ****       221.2500 343.7500 -108.5000 Du        
    232 ****       221.2500 344.0000 -111.5000 Du        
    233 ****       221.2500 344.0000 -111.2500 Du        
    234 ****       221.2500 344.0000 -111.0000 Du        
    235 ****       221.2500 344.0000 -110.7500 Du        
    236 ****       221.2500 344.0000 -110.5000 Du        
    237 ****       221.2500 344.0000 -110.2500 Du        
    238 ****       221.2500 344.0000 -110.0000 Du        
    239 ****       221.2500 344.0000 -109.7500 Du        
    240 ****       221.2500 344.0000 -109.5000 Du        
    241 ****       221.2500 344.0000 -109.2500 Du        
    242 ****       221.2500 344.0000 -109.0000 Du        
    243 ****       221.2500 344.0000 -108.7500 Du        
    244 ****       221.2500 344.0000 -108.5000 Du        
    245 ****       221.2500 344.2500 -111.0000 Du        
    246 ****       221.2500 344.2500 -110.7500 Du        
    247 ****       221.2500 344.2500 -110.5000 Du        
    248 ****       221.2500 344.2500 -110.2500 Du        
    249 ****       221.2500 344.2500 -110.0000 Du        
    250 ****       221.2500 344.2500 -109.7500 Du        
    251 ****       221.2500 344.2500 -109.5000 Du        
    252 ****       221.2500 344.2500 -109.2500 Du        
    253 ****       221.2500 344.2500 -109.0000 Du        
    254 ****       221.2500 344.2500 -108.7500 Du        
    255 ****       221.2500 344.2500 -108.5000 Du        
    256 ****       221.2500 347.0000 -101.7500 Du        
    257 ****       221.2500 347.2500 -102.0000 Du        
    258 ****       221.2500 347.2500 -101.7500 Du        
    259 ****       221.2500 347.2500 -101.5000 Du        
    260 ****       221.2500 347.2500 -101.2500 Du        
    261 ****       221.2500 347.2500 -101.0000 Du        
    262 ****       221.2500 347.5000 -102.0000 Du        
    263 ****       221.2500 347.5000 -101.7500 Du        
    264 ****       221.2500 347.5000 -101.5000 Du        
    265 ****       221.2500 347.5000 -101.2500 Du        
    266 ****       221.2500 347.5000 -101.0000 Du        
    267 ****       221.2500 347.7500 -102.2500 Du        
    268 ****       221.2500 347.7500 -102.0000 Du        
    269 ****       221.2500 347.7500 -101.7500 Du        
    270 ****       221.2500 347.7500 -101.5000 Du        
    271 ****       221.2500 347.7500 -101.2500 Du        
    272 ****       221.2500 347.7500 -101.0000 Du        
    273 ****       221.2500 347.7500 -100.7500 Du        
    274 ****       221.2500 348.0000 -102.2500 Du        
    275 ****       221.2500 348.0000 -102.0000 Du        
    276 ****       221.2500 348.0000 -101.7500 Du        
    277 ****       221.2500 348.0000 -101.5000 Du        
    278 ****       221.2500 348.0000 -101.2500 Du        
    279 ****       221.2500 348.0000 -101.0000 Du        
    280 ****       221.2500 348.0000 -100.7500 Du        
    281 ****       221.2500 348.2500 -102.2500 Du        
    282 ****       221.2500 348.2500 -102.0000 Du        
    283 ****       221.2500 348.2500 -101.7500 Du        
    284 ****       221.2500 348.2500 -101.5000 Du        
    285 ****       221.2500 348.2500 -101.2500 Du        
    286 ****       221.2500 348.2500 -101.0000 Du        
    287 ****       221.2500 348.2500 -100.7500 Du        
    288 ****       221.2500 348.5000 -102.0000 Du        
    289 ****       221.2500 348.5000 -101.7500 Du        
    290 ****       221.2500 348.5000 -101.5000 Du        
    291 ****       221.2500 348.5000 -101.2500 Du        
    292 ****       221.2500 348.5000 -101.0000 Du        
    293 ****       221.2500 348.5000 -100.7500 Du        
    294 ****       221.2500 348.5000 -100.5000 Du        
    295 ****       221.2500 348.5000 -100.2500 Du        
    296 ****       221.2500 348.5000 -100.0000 Du        
    297 ****       221.2500 348.5000 -99.7500 Du        
    298 ****       221.2500 348.7500 -101.7500 Du        
    299 ****       221.2500 348.7500 -101.5000 Du        
    300 ****       221.2500 348.7500 -101.2500 Du        
    301 ****       221.2500 348.7500 -101.0000 Du        
    302 ****       221.2500 348.7500 -100.7500 Du        
    303 ****       221.2500 348.7500 -100.2500 Du        
    304 ****       221.2500 348.7500 -100.0000 Du        
    305 ****       221.2500 348.7500 -99.7500 Du        
    306 ****       221.2500 349.0000 -100.0000 Du        
    307 ****       221.2500 349.0000 -99.7500 Du        
    308 ****       221.5000 342.5000 -113.0000 Du        
    309 ****       221.5000 342.5000 -112.7500 Du        
    310 ****       221.5000 342.5000 -112.5000 Du        
    311 ****       221.5000 342.5000 -112.2500 Du        
    312 ****       221.5000 342.5000 -112.0000 Du        
    313 ****       221.5000 342.5000 -111.7500 Du        
    314 ****       221.5000 342.5000 -111.5000 Du        
    315 ****       221.5000 342.5000 -110.0000 Du        
    316 ****       221.5000 342.5000 -109.7500 Du        
    317 ****       221.5000 342.7500 -114.0000 Du        
    318 ****       221.5000 342.7500 -113.7500 Du        
    319 ****       221.5000 342.7500 -113.5000 Du        
    320 ****       221.5000 342.7500 -113.2500 Du        
    321 ****       221.5000 342.7500 -113.0000 Du        
    322 ****       221.5000 342.7500 -112.7500 Du        
    323 ****       221.5000 342.7500 -112.5000 Du        
    324 ****       221.5000 342.7500 -112.2500 Du        
    325 ****       221.5000 342.7500 -112.0000 Du        
    326 ****       221.5000 342.7500 -111.7500 Du        
    327 ****       221.5000 342.7500 -111.5000 Du        
    328 ****       221.5000 342.7500 -111.2500 Du        
    329 ****       221.5000 342.7500 -111.0000 Du        
    330 ****       221.5000 342.7500 -110.7500 Du        
    331 ****       221.5000 342.7500 -110.5000 Du        
    332 ****       221.5000 342.7500 -110.2500 Du        
    333 ****       221.5000 342.7500 -110.0000 Du        
    334 ****       221.5000 342.7500 -109.7500 Du        
    335 ****       221.5000 342.7500 -109.5000 Du        
    336 ****       221.5000 342.7500 -109.2500 Du        
    337 ****       221.5000 342.7500 -109.0000 Du        
    338 ****       221.5000 343.0000 -114.2500 Du        
    339 ****       221.5000 343.0000 -114.0000 Du        
    340 ****       221.5000 343.0000 -113.7500 Du        
    341 ****       221.5000 343.0000 -113.5000 Du        
    342 ****       221.5000 343.0000 -113.2500 Du        
    343 ****       221.5000 343.0000 -113.0000 Du        
    344 ****       221.5000 343.0000 -112.7500 Du        
    345 ****       221.5000 343.0000 -112.5000 Du        
    346 ****       221.5000 343.0000 -112.2500 Du        
    347 ****       221.5000 343.0000 -112.0000 Du        
    348 ****       221.5000 343.0000 -111.7500 Du        
    349 ****       221.5000 343.0000 -111.5000 Du        
    350 ****       221.5000 343.0000 -111.2500 Du        
    351 ****       221.5000 343.0000 -111.0000 Du        
    352 ****       221.5000 343.0000 -110.7500 Du        
    353 ****       221.5000 343.0000 -110.5000 Du        
    354 ****       221.5000 343.0000 -110.2500 Du        
    355 ****       221.5000 343.0000 -110.0000 Du        
    356 ****       221.5000 343.0000 -109.7500 Du        
    357 ****       221.5000 343.0000 -109.5000 Du        
    358 ****       221.5000 343.0000 -109.2500 Du        
    359 ****       221.5000 343.0000 -109.0000 Du        
    360 ****       221.5000 343.0000 -108.7500 Du        
    361 ****       221.5000 343.0000 -108.5000 Du        
    362 ****       221.5000 343.2500 -114.2500 Du        
    363 ****       221.5000 343.2500 -114.0000 Du        
    364 ****       221.5000 343.2500 -113.7500 Du        
    365 ****       221.5000 343.2500 -113.5000 Du        
    366 ****       221.5000 343.2500 -113.2500 Du        
    367 ****       221.5000 343.2500 -113.0000 Du        
    368 ****       221.5000 343.2500 -112.7500 Du        
    369 ****       221.5000 343.2500 -112.5000 Du        
    370 ****       221.5000 343.2500 -112.2500 Du        
    371 ****       221.5000 343.2500 -112.0000 Du        
    372 ****       221.5000 343.2500 -111.7500 Du        
    373 ****       221.5000 343.2500 -111.5000 Du        
    374 ****       221.5000 343.2500 -111.2500 Du        
    375 ****       221.5000 343.2500 -111.0000 Du        
    376 ****       221.5000 343.2500 -110.7500 Du        
    377 ****       221.5000 343.2500 -110.5000 Du        
    378 ****       221.5000 343.2500 -110.2500 Du        
    379 ****       221.5000 343.2500 -110.0000 Du        
    380 ****       221.5000 343.2500 -109.7500 Du        
    381 ****       221.5000 343.2500 -109.5000 Du        
    382 ****       221.5000 343.2500 -109.2500 Du        
    383 ****       221.5000 343.2500 -109.0000 Du        
    384 ****       221.5000 343.2500 -108.7500 Du        
    385 ****       221.5000 343.2500 -108.5000 Du        
    386 ****       221.5000 343.2500 -108.2500 Du        
    387 ****       221.5000 343.5000 -113.0000 Du        
    388 ****       221.5000 343.5000 -112.7500 Du        
    389 ****       221.5000 343.5000 -112.5000 Du        
    390 ****       221.5000 343.5000 -112.2500 Du        
    391 ****       221.5000 343.5000 -112.0000 Du        
    392 ****       221.5000 343.5000 -111.7500 Du        
    393 ****       221.5000 343.5000 -111.5000 Du        
    394 ****       221.5000 343.5000 -111.2500 Du        
    395 ****       221.5000 343.5000 -111.0000 Du        
    396 ****       221.5000 343.5000 -110.7500 Du        
    397 ****       221.5000 343.5000 -110.5000 Du        
    398 ****       221.5000 343.5000 -110.2500 Du        
    399 ****       221.5000 343.5000 -110.0000 Du        
    400 ****       221.5000 343.5000 -109.7500 Du        
    401 ****       221.5000 343.5000 -109.5000 Du        
    402 ****       221.5000 343.5000 -109.2500 Du        
    403 ****       221.5000 343.5000 -109.0000 Du        
    404 ****       221.5000 343.5000 -108.7500 Du        
    405 ****       221.5000 343.5000 -108.5000 Du        
    406 ****       221.5000 343.5000 -108.2500 Du        
    407 ****       221.5000 343.7500 -112.2500 Du        
    408 ****       221.5000 343.7500 -112.0000 Du        
    409 ****       221.5000 343.7500 -111.7500 Du        
    410 ****       221.5000 343.7500 -111.5000 Du        
    411 ****       221.5000 343.7500 -111.2500 Du        
    412 ****       221.5000 343.7500 -111.0000 Du        
    413 ****       221.5000 343.7500 -110.7500 Du        
    414 ****       221.5000 343.7500 -110.5000 Du        
    415 ****       221.5000 343.7500 -110.2500 Du        
    416 ****       221.5000 343.7500 -110.0000 Du        
    417 ****       221.5000 343.7500 -109.7500 Du        
    418 ****       221.5000 343.7500 -109.5000 Du        
    419 ****       221.5000 343.7500 -109.2500 Du        
    420 ****       221.5000 343.7500 -109.0000 Du        
    421 ****       221.5000 343.7500 -108.7500 Du        
    422 ****       221.5000 343.7500 -108.5000 Du        
    423 ****       221.5000 343.7500 -108.2500 Du        
    424 ****       221.5000 344.0000 -111.7500 Du        
    425 ****       221.5000 344.0000 -111.5000 Du        
    426 ****       221.5000 344.0000 -111.2500 Du        
    427 ****       221.5000 344.0000 -111.0000 Du        
    428 ****       221.5000 344.0000 -110.7500 Du        
    429 ****       221.5000 344.0000 -110.5000 Du        
    430 ****       221.5000 344.0000 -110.2500 Du        
    431 ****       221.5000 344.0000 -110.0000 Du        
    432 ****       221.5000 344.0000 -109.7500 Du        
    433 ****       221.5000 344.0000 -109.5000 Du        
    434 ****       221.5000 344.0000 -109.2500 Du        
    435 ****       221.5000 344.0000 -109.0000 Du        
    436 ****       221.5000 344.0000 -108.7500 Du        
    437 ****       221.5000 344.0000 -108.5000 Du        
    438 ****       221.5000 344.0000 -108.2500 Du        
    439 ****       221.5000 344.2500 -111.5000 Du        
    440 ****       221.5000 344.2500 -111.2500 Du        
    441 ****       221.5000 344.2500 -111.0000 Du        
    442 ****       221.5000 344.2500 -110.7500 Du        
    443 ****       221.5000 344.2500 -110.5000 Du        
    444 ****       221.5000 344.2500 -110.2500 Du        
    445 ****       221.5000 344.2500 -110.0000 Du        
    446 ****       221.5000 344.2500 -109.7500 Du        
    447 ****       221.5000 344.2500 -109.5000 Du        
    448 ****       221.5000 344.2500 -109.2500 Du        
    449 ****       221.5000 344.2500 -109.0000 Du        
    450 ****       221.5000 344.2500 -108.7500 Du        
    451 ****       221.5000 344.2500 -108.5000 Du        
    452 ****       221.5000 344.2500 -98.2500 Du        
    453 ****       221.5000 344.5000 -110.7500 Du        
    454 ****       221.5000 344.5000 -110.5000 Du        
    455 ****       221.5000 344.5000 -110.2500 Du        
    456 ****       221.5000 346.5000 -101.2500 Du        
    457 ****       221.5000 346.5000 -101.0000 Du        
    458 ****       221.5000 346.7500 -101.5000 Du        
    459 ****       221.5000 346.7500 -101.2500 Du        
    460 ****       221.5000 346.7500 -101.0000 Du        
    461 ****       221.5000 347.0000 -101.7500 Du        
    462 ****       221.5000 347.0000 -101.5000 Du        
    463 ****       221.5000 347.0000 -101.2500 Du        
    464 ****       221.5000 347.0000 -101.0000 Du        
    465 ****       221.5000 347.0000 -100.7500 Du        
    466 ****       221.5000 347.2500 -102.0000 Du        
    467 ****       221.5000 347.2500 -101.7500 Du        
    468 ****       221.5000 347.2500 -101.5000 Du        
    469 ****       221.5000 347.2500 -101.2500 Du        
    470 ****       221.5000 347.2500 -101.0000 Du        
    471 ****       221.5000 347.2500 -100.7500 Du        
    472 ****       221.5000 347.5000 -102.0000 Du        
    473 ****       221.5000 347.5000 -101.7500 Du        
    474 ****       221.5000 347.5000 -101.5000 Du        
    475 ****       221.5000 347.5000 -101.2500 Du        
    476 ****       221.5000 347.5000 -101.0000 Du        
    477 ****       221.5000 347.5000 -100.7500 Du        
    478 ****       221.5000 347.5000 -100.5000 Du        
    479 ****       221.5000 347.5000 -100.2500 Du        
    480 ****       221.5000 347.7500 -102.2500 Du        
    481 ****       221.5000 347.7500 -102.0000 Du        
    482 ****       221.5000 347.7500 -101.7500 Du        
    483 ****       221.5000 347.7500 -101.5000 Du        
    484 ****       221.5000 347.7500 -101.2500 Du        
    485 ****       221.5000 347.7500 -101.0000 Du        
    486 ****       221.5000 347.7500 -100.7500 Du        
    487 ****       221.5000 347.7500 -100.5000 Du        
    488 ****       221.5000 347.7500 -100.2500 Du        
    489 ****       221.5000 348.0000 -102.2500 Du        
    490 ****       221.5000 348.0000 -102.0000 Du        
    491 ****       221.5000 348.0000 -101.7500 Du        
    492 ****       221.5000 348.0000 -101.5000 Du        
    493 ****       221.5000 348.0000 -101.2500 Du        
    494 ****       221.5000 348.0000 -101.0000 Du        
    495 ****       221.5000 348.0000 -100.7500 Du        
    496 ****       221.5000 348.0000 -100.5000 Du        
    497 ****       221.5000 348.0000 -100.2500 Du        
    498 ****       221.5000 348.0000 -100.0000 Du        
    499 ****       221.5000 348.2500 -102.2500 Du        
    500 ****       221.5000 348.2500 -102.0000 Du        
    501 ****       221.5000 348.2500 -101.7500 Du        
    502 ****       221.5000 348.2500 -101.5000 Du        
    503 ****       221.5000 348.2500 -101.2500 Du        
    504 ****       221.5000 348.2500 -101.0000 Du        
    505 ****       221.5000 348.2500 -100.7500 Du        
    506 ****       221.5000 348.2500 -100.5000 Du        
    507 ****       221.5000 348.2500 -100.2500 Du        
    508 ****       221.5000 348.2500 -100.0000 Du        
    509 ****       221.5000 348.5000 -102.2500 Du        
    510 ****       221.5000 348.5000 -102.0000 Du        
    511 ****       221.5000 348.5000 -101.7500 Du        
    512 ****       221.5000 348.5000 -101.5000 Du        
    513 ****       221.5000 348.5000 -101.2500 Du        
    514 ****       221.5000 348.5000 -101.0000 Du        
    515 ****       221.5000 348.5000 -100.7500 Du        
    516 ****       221.5000 348.5000 -100.5000 Du        
    517 ****       221.5000 348.5000 -100.2500 Du        
    518 ****       221.5000 348.5000 -100.0000 Du        
    519 ****       221.5000 348.5000 -99.7500 Du        
    520 ****       221.5000 348.5000 -99.5000 Du        
    521 ****       221.5000 348.7500 -101.7500 Du        
    522 ****       221.5000 348.7500 -101.5000 Du        
    523 ****       221.5000 348.7500 -101.2500 Du        
    524 ****       221.5000 348.7500 -101.0000 Du        
    525 ****       221.5000 348.7500 -100.7500 Du        
    526 ****       221.5000 348.7500 -100.5000 Du        
    527 ****       221.5000 348.7500 -100.2500 Du        
    528 ****       221.5000 348.7500 -100.0000 Du        
    529 ****       221.5000 348.7500 -99.7500 Du        
    530 ****       221.5000 349.0000 -100.2500 Du        
    531 ****       221.5000 349.0000 -100.0000 Du        
    532 ****       221.5000 349.0000 -99.7500 Du        
    533 ****       221.7500 342.5000 -112.7500 Du        
    534 ****       221.7500 342.5000 -112.5000 Du        
    535 ****       221.7500 342.5000 -112.2500 Du        
    536 ****       221.7500 342.5000 -112.0000 Du        
    537 ****       221.7500 342.5000 -111.7500 Du        
    538 ****       221.7500 342.5000 -111.5000 Du        
    539 ****       221.7500 342.5000 -111.2500 Du        
    540 ****       221.7500 342.5000 -111.0000 Du        
    541 ****       221.7500 342.5000 -110.2500 Du        
    542 ****       221.7500 342.5000 -110.0000 Du        
    543 ****       221.7500 342.5000 -109.7500 Du        
    544 ****       221.7500 342.5000 -109.5000 Du        
    545 ****       221.7500 342.5000 -109.2500 Du        
    546 ****       221.7500 342.5000 -109.0000 Du        
    547 ****       221.7500 342.7500 -114.0000 Du        
    548 ****       221.7500 342.7500 -113.7500 Du        
    549 ****       221.7500 342.7500 -113.5000 Du        
    550 ****       221.7500 342.7500 -113.2500 Du        
    551 ****       221.7500 342.7500 -113.0000 Du        
    552 ****       221.7500 342.7500 -112.7500 Du        
    553 ****       221.7500 342.7500 -112.5000 Du        
    554 ****       221.7500 342.7500 -112.2500 Du        
    555 ****       221.7500 342.7500 -112.0000 Du        
    556 ****       221.7500 342.7500 -111.7500 Du        
    557 ****       221.7500 342.7500 -111.5000 Du        
    558 ****       221.7500 342.7500 -111.2500 Du        
    559 ****       221.7500 342.7500 -111.0000 Du        
    560 ****       221.7500 342.7500 -110.7500 Du        
    561 ****       221.7500 342.7500 -110.5000 Du        
    562 ****       221.7500 342.7500 -110.2500 Du        
    563 ****       221.7500 342.7500 -110.0000 Du        
    564 ****       221.7500 342.7500 -109.7500 Du        
    565 ****       221.7500 342.7500 -109.5000 Du        
    566 ****       221.7500 342.7500 -109.2500 Du        
    567 ****       221.7500 342.7500 -109.0000 Du        
    568 ****       221.7500 342.7500 -108.7500 Du        
    569 ****       221.7500 342.7500 -108.5000 Du        
    570 ****       221.7500 342.7500 -98.5000 Du        
    571 ****       221.7500 342.7500 -98.2500 Du        
    572 ****       221.7500 343.0000 -114.2500 Du        
    573 ****       221.7500 343.0000 -114.0000 Du        
    574 ****       221.7500 343.0000 -113.7500 Du        
    575 ****       221.7500 343.0000 -113.5000 Du        
    576 ****       221.7500 343.0000 -113.2500 Du        
    577 ****       221.7500 343.0000 -113.0000 Du        
    578 ****       221.7500 343.0000 -112.7500 Du        
    579 ****       221.7500 343.0000 -112.5000 Du        
    580 ****       221.7500 343.0000 -112.2500 Du        
    581 ****       221.7500 343.0000 -112.0000 Du        
    582 ****       221.7500 343.0000 -111.7500 Du        
    583 ****       221.7500 343.0000 -111.5000 Du        
    584 ****       221.7500 343.0000 -111.2500 Du        
    585 ****       221.7500 343.0000 -111.0000 Du        
    586 ****       221.7500 343.0000 -110.7500 Du        
    587 ****       221.7500 343.0000 -110.5000 Du        
    588 ****       221.7500 343.0000 -110.2500 Du        
    589 ****       221.7500 343.0000 -110.0000 Du        
    590 ****       221.7500 343.0000 -109.7500 Du        
    591 ****       221.7500 343.0000 -109.5000 Du        
    592 ****       221.7500 343.0000 -109.2500 Du        
    593 ****       221.7500 343.0000 -109.0000 Du        
    594 ****       221.7500 343.0000 -108.7500 Du        
    595 ****       221.7500 343.0000 -108.5000 Du        
    596 ****       221.7500 343.0000 -108.2500 Du        
    597 ****       221.7500 343.0000 -108.0000 Du        
    598 ****       221.7500 343.0000 -98.5000 Du        
    599 ****       221.7500 343.0000 -98.2500 Du        
    600 ****       221.7500 343.2500 -114.5000 Du        
    601 ****       221.7500 343.2500 -114.2500 Du        
    602 ****       221.7500 343.2500 -114.0000 Du        
    603 ****       221.7500 343.2500 -113.7500 Du        
    604 ****       221.7500 343.2500 -113.5000 Du        
    605 ****       221.7500 343.2500 -113.2500 Du        
    606 ****       221.7500 343.2500 -113.0000 Du        
    607 ****       221.7500 343.2500 -112.7500 Du        
    608 ****       221.7500 343.2500 -112.5000 Du        
    609 ****       221.7500 343.2500 -112.2500 Du        
    610 ****       221.7500 343.2500 -112.0000 Du        
    611 ****       221.7500 343.2500 -111.7500 Du        
    612 ****       221.7500 343.2500 -111.5000 Du        
    613 ****       221.7500 343.2500 -111.2500 Du        
    614 ****       221.7500 343.2500 -111.0000 Du        
    615 ****       221.7500 343.2500 -110.7500 Du        
    616 ****       221.7500 343.2500 -110.5000 Du        
    617 ****       221.7500 343.2500 -110.2500 Du        
    618 ****       221.7500 343.2500 -110.0000 Du        
    619 ****       221.7500 343.2500 -109.7500 Du        
    620 ****       221.7500 343.2500 -109.5000 Du        
    621 ****       221.7500 343.2500 -109.2500 Du        
    622 ****       221.7500 343.2500 -109.0000 Du        
    623 ****       221.7500 343.2500 -108.7500 Du        
    624 ****       221.7500 343.2500 -108.5000 Du        
    625 ****       221.7500 343.2500 -108.2500 Du        
    626 ****       221.7500 343.2500 -98.5000 Du        
    627 ****       221.7500 343.2500 -98.2500 Du        
    628 ****       221.7500 343.5000 -114.5000 Du        
    629 ****       221.7500 343.5000 -114.2500 Du        
    630 ****       221.7500 343.5000 -114.0000 Du        
    631 ****       221.7500 343.5000 -113.7500 Du        
    632 ****       221.7500 343.5000 -113.5000 Du        
    633 ****       221.7500 343.5000 -113.2500 Du        
    634 ****       221.7500 343.5000 -113.0000 Du        
    635 ****       221.7500 343.5000 -112.7500 Du        
    636 ****       221.7500 343.5000 -112.5000 Du        
    637 ****       221.7500 343.5000 -112.2500 Du        
    638 ****       221.7500 343.5000 -112.0000 Du        
    639 ****       221.7500 343.5000 -111.7500 Du        
    640 ****       221.7500 343.5000 -111.5000 Du        
    641 ****       221.7500 343.5000 -111.2500 Du        
    642 ****       221.7500 343.5000 -111.0000 Du        
    643 ****       221.7500 343.5000 -110.7500 Du        
    644 ****       221.7500 343.5000 -110.5000 Du        
    645 ****       221.7500 343.5000 -110.2500 Du        
    646 ****       221.7500 343.5000 -110.0000 Du        
    647 ****       221.7500 343.5000 -109.7500 Du        
    648 ****       221.7500 343.5000 -109.5000 Du        
    649 ****       221.7500 343.5000 -109.2500 Du        
    650 ****       221.7500 343.5000 -109.0000 Du        
    651 ****       221.7500 343.5000 -108.7500 Du        
    652 ****       221.7500 343.5000 -108.5000 Du        
    653 ****       221.7500 343.5000 -108.2500 Du        
    654 ****       221.7500 343.5000 -98.5000 Du        
    655 ****       221.7500 343.5000 -98.2500 Du        
    656 ****       221.7500 343.7500 -113.0000 Du        
    657 ****       221.7500 343.7500 -112.7500 Du        
    658 ****       221.7500 343.7500 -112.5000 Du        
    659 ****       221.7500 343.7500 -112.2500 Du        
    660 ****       221.7500 343.7500 -112.0000 Du        
    661 ****       221.7500 343.7500 -111.7500 Du        
    662 ****       221.7500 343.7500 -111.5000 Du        
    663 ****       221.7500 343.7500 -111.2500 Du        
    664 ****       221.7500 343.7500 -111.0000 Du        
    665 ****       221.7500 343.7500 -110.7500 Du        
    666 ****       221.7500 343.7500 -110.5000 Du        
    667 ****       221.7500 343.7500 -110.2500 Du        
    668 ****       221.7500 343.7500 -110.0000 Du        
    669 ****       221.7500 343.7500 -109.7500 Du        
    670 ****       221.7500 343.7500 -109.5000 Du        
    671 ****       221.7500 343.7500 -109.2500 Du        
    672 ****       221.7500 343.7500 -109.0000 Du        
    673 ****       221.7500 343.7500 -108.7500 Du        
    674 ****       221.7500 343.7500 -108.5000 Du        
    675 ****       221.7500 343.7500 -108.2500 Du        
    676 ****       221.7500 343.7500 -98.5000 Du        
    677 ****       221.7500 343.7500 -98.2500 Du        
    678 ****       221.7500 344.0000 -112.2500 Du        
    679 ****       221.7500 344.0000 -112.0000 Du        
    680 ****       221.7500 344.0000 -111.7500 Du        
    681 ****       221.7500 344.0000 -111.5000 Du        
    682 ****       221.7500 344.0000 -111.2500 Du        
    683 ****       221.7500 344.0000 -111.0000 Du        
    684 ****       221.7500 344.0000 -110.7500 Du        
    685 ****       221.7500 344.0000 -110.5000 Du        
    686 ****       221.7500 344.0000 -110.2500 Du        
    687 ****       221.7500 344.0000 -110.0000 Du        
    688 ****       221.7500 344.0000 -109.7500 Du        
    689 ****       221.7500 344.0000 -109.5000 Du        
    690 ****       221.7500 344.0000 -109.2500 Du        
    691 ****       221.7500 344.0000 -109.0000 Du        
    692 ****       221.7500 344.0000 -108.7500 Du        
    693 ****       221.7500 344.0000 -108.5000 Du        
    694 ****       221.7500 344.0000 -108.2500 Du        
    695 ****       221.7500 344.0000 -98.5000 Du        
    696 ****       221.7500 344.0000 -98.2500 Du        
    697 ****       221.7500 344.2500 -111.7500 Du        
    698 ****       221.7500 344.2500 -111.5000 Du        
    699 ****       221.7500 344.2500 -111.2500 Du        
    700 ****       221.7500 344.2500 -111.0000 Du        
    701 ****       221.7500 344.2500 -110.7500 Du        
    702 ****       221.7500 344.2500 -110.5000 Du        
    703 ****       221.7500 344.2500 -110.2500 Du        
    704 ****       221.7500 344.2500 -110.0000 Du        
    705 ****       221.7500 344.2500 -109.7500 Du        
    706 ****       221.7500 344.2500 -109.5000 Du        
    707 ****       221.7500 344.2500 -109.2500 Du        
    708 ****       221.7500 344.2500 -109.0000 Du        
    709 ****       221.7500 344.2500 -108.7500 Du        
    710 ****       221.7500 344.2500 -108.5000 Du        
    711 ****       221.7500 344.2500 -98.7500 Du        
    712 ****       221.7500 344.2500 -98.5000 Du        
    713 ****       221.7500 344.2500 -98.2500 Du        
    714 ****       221.7500 344.5000 -111.2500 Du        
    715 ****       221.7500 344.5000 -111.0000 Du        
    716 ****       221.7500 344.5000 -110.7500 Du        
    717 ****       221.7500 344.5000 -110.5000 Du        
    718 ****       221.7500 344.5000 -110.2500 Du        
    719 ****       221.7500 344.7500 -98.7500 Du        
    720 ****       221.7500 345.0000 -98.2500 Du        
    721 ****       221.7500 346.0000 -101.2500 Du        
    722 ****       221.7500 346.0000 -101.0000 Du        
    723 ****       221.7500 346.0000 -100.7500 Du        
    724 ****       221.7500 346.0000 -100.5000 Du        
    725 ****       221.7500 346.0000 -100.2500 Du        
    726 ****       221.7500 346.2500 -101.2500 Du        
    727 ****       221.7500 346.2500 -101.0000 Du        
    728 ****       221.7500 346.2500 -100.7500 Du        
    729 ****       221.7500 346.2500 -100.5000 Du        
    730 ****       221.7500 346.2500 -100.2500 Du        
    731 ****       221.7500 346.5000 -101.5000 Du        
    732 ****       221.7500 346.5000 -101.2500 Du        
    733 ****       221.7500 346.5000 -101.0000 Du        
    734 ****       221.7500 346.5000 -100.7500 Du        
    735 ****       221.7500 346.5000 -100.5000 Du        
    736 ****       221.7500 346.5000 -100.2500 Du        
    737 ****       221.7500 346.7500 -101.7500 Du        
    738 ****       221.7500 346.7500 -101.5000 Du        
    739 ****       221.7500 346.7500 -101.2500 Du        
    740 ****       221.7500 346.7500 -101.0000 Du        
    741 ****       221.7500 346.7500 -100.7500 Du        
    742 ****       221.7500 346.7500 -100.5000 Du        
    743 ****       221.7500 346.7500 -100.2500 Du        
    744 ****       221.7500 346.7500 -100.0000 Du        
    745 ****       221.7500 347.0000 -101.7500 Du        
    746 ****       221.7500 347.0000 -101.5000 Du        
    747 ****       221.7500 347.0000 -101.2500 Du        
    748 ****       221.7500 347.0000 -101.0000 Du        
    749 ****       221.7500 347.0000 -100.7500 Du        
    750 ****       221.7500 347.0000 -100.5000 Du        
    751 ****       221.7500 347.0000 -100.2500 Du        
    752 ****       221.7500 347.0000 -100.0000 Du        
    753 ****       221.7500 347.2500 -102.0000 Du        
    754 ****       221.7500 347.2500 -101.7500 Du        
    755 ****       221.7500 347.2500 -101.5000 Du        
    756 ****       221.7500 347.2500 -101.2500 Du        
    757 ****       221.7500 347.2500 -101.0000 Du        
    758 ****       221.7500 347.2500 -100.7500 Du        
    759 ****       221.7500 347.2500 -100.5000 Du        
    760 ****       221.7500 347.2500 -100.2500 Du        
    761 ****       221.7500 347.2500 -100.0000 Du        
    762 ****       221.7500 347.5000 -102.0000 Du        
    763 ****       221.7500 347.5000 -101.7500 Du        
    764 ****       221.7500 347.5000 -101.5000 Du        
    765 ****       221.7500 347.5000 -101.2500 Du        
    766 ****       221.7500 347.5000 -101.0000 Du        
    767 ****       221.7500 347.5000 -100.7500 Du        
    768 ****       221.7500 347.5000 -100.5000 Du        
    769 ****       221.7500 347.5000 -100.2500 Du        
    770 ****       221.7500 347.5000 -100.0000 Du        
    771 ****       221.7500 347.7500 -102.0000 Du        
    772 ****       221.7500 347.7500 -101.7500 Du        
    773 ****       221.7500 347.7500 -101.5000 Du        
    774 ****       221.7500 347.7500 -101.2500 Du        
    775 ****       221.7500 347.7500 -101.0000 Du        
    776 ****       221.7500 347.7500 -100.7500 Du        
    777 ****       221.7500 347.7500 -100.5000 Du        
    778 ****       221.7500 347.7500 -100.2500 Du        
    779 ****       221.7500 347.7500 -100.0000 Du        
    780 ****       221.7500 348.0000 -102.2500 Du        
    781 ****       221.7500 348.0000 -102.0000 Du        
    782 ****       221.7500 348.0000 -101.7500 Du        
    783 ****       221.7500 348.0000 -101.5000 Du        
    784 ****       221.7500 348.0000 -101.2500 Du        
    785 ****       221.7500 348.0000 -101.0000 Du        
    786 ****       221.7500 348.0000 -100.7500 Du        
    787 ****       221.7500 348.0000 -100.5000 Du        
    788 ****       221.7500 348.0000 -100.2500 Du        
    789 ****       221.7500 348.0000 -100.0000 Du        
    790 ****       221.7500 348.2500 -102.2500 Du        
    791 ****       221.7500 348.2500 -102.0000 Du        
    792 ****       221.7500 348.2500 -101.7500 Du        
    793 ****       221.7500 348.2500 -101.5000 Du        
    794 ****       221.7500 348.2500 -101.2500 Du        
    795 ****       221.7500 348.2500 -101.0000 Du        
    796 ****       221.7500 348.2500 -100.7500 Du        
    797 ****       221.7500 348.2500 -100.5000 Du        
    798 ****       221.7500 348.2500 -100.2500 Du        
    799 ****       221.7500 348.2500 -100.0000 Du        
    800 ****       221.7500 348.5000 -102.2500 Du        
    801 ****       221.7500 348.5000 -102.0000 Du        
    802 ****       221.7500 348.5000 -101.7500 Du        
    803 ****       221.7500 348.5000 -101.5000 Du        
    804 ****       221.7500 348.5000 -101.2500 Du        
    805 ****       221.7500 348.5000 -101.0000 Du        
    806 ****       221.7500 348.5000 -100.7500 Du        
    807 ****       221.7500 348.5000 -100.5000 Du        
    808 ****       221.7500 348.5000 -100.2500 Du        
    809 ****       221.7500 348.5000 -100.0000 Du        
    810 ****       221.7500 348.5000 -99.7500 Du        
    811 ****       221.7500 348.7500 -101.7500 Du        
    812 ****       221.7500 348.7500 -101.5000 Du        
    813 ****       221.7500 348.7500 -101.2500 Du        
    814 ****       221.7500 348.7500 -101.0000 Du        
    815 ****       221.7500 348.7500 -100.7500 Du        
    816 ****       221.7500 348.7500 -100.5000 Du        
    817 ****       221.7500 348.7500 -100.2500 Du        
    818 ****       221.7500 348.7500 -100.0000 Du        
    819 ****       221.7500 348.7500 -99.7500 Du        
    820 ****       221.7500 349.0000 -100.2500 Du        
    821 ****       221.7500 349.0000 -100.0000 Du        
    822 ****       221.7500 349.0000 -99.7500 Du        
    823 ****       222.0000 342.5000 -112.2500 Du        
    824 ****       222.0000 342.5000 -112.0000 Du        
    825 ****       222.0000 342.5000 -111.7500 Du        
    826 ****       222.0000 342.5000 -110.0000 Du        
    827 ****       222.0000 342.5000 -109.7500 Du        
    828 ****       222.0000 342.5000 -109.5000 Du        
    829 ****       222.0000 342.5000 -109.2500 Du        
    830 ****       222.0000 342.5000 -109.0000 Du        
    831 ****       222.0000 342.5000 -108.7500 Du        
    832 ****       222.0000 342.5000 -99.2500 Du        
    833 ****       222.0000 342.5000 -99.0000 Du        
    834 ****       222.0000 342.5000 -98.5000 Du        
    835 ****       222.0000 342.7500 -113.0000 Du        
    836 ****       222.0000 342.7500 -112.7500 Du        
    837 ****       222.0000 342.7500 -112.5000 Du        
    838 ****       222.0000 342.7500 -112.2500 Du        
    839 ****       222.0000 342.7500 -112.0000 Du        
    840 ****       222.0000 342.7500 -111.7500 Du        
    841 ****       222.0000 342.7500 -111.5000 Du        
    842 ****       222.0000 342.7500 -111.2500 Du        
    843 ****       222.0000 342.7500 -111.0000 Du        
    844 ****       222.0000 342.7500 -110.7500 Du        
    845 ****       222.0000 342.7500 -110.5000 Du        
    846 ****       222.0000 342.7500 -110.2500 Du        
    847 ****       222.0000 342.7500 -110.0000 Du        
    848 ****       222.0000 342.7500 -109.7500 Du        
    849 ****       222.0000 342.7500 -109.5000 Du        
    850 ****       222.0000 342.7500 -109.2500 Du        
    851 ****       222.0000 342.7500 -109.0000 Du        
    852 ****       222.0000 342.7500 -108.7500 Du        
    853 ****       222.0000 342.7500 -108.5000 Du        
    854 ****       222.0000 342.7500 -108.2500 Du        
    855 ****       222.0000 342.7500 -99.2500 Du        
    856 ****       222.0000 342.7500 -99.0000 Du        
    857 ****       222.0000 342.7500 -98.7500 Du        
    858 ****       222.0000 342.7500 -98.5000 Du        
    859 ****       222.0000 342.7500 -98.2500 Du        
    860 ****       222.0000 343.0000 -114.0000 Du        
    861 ****       222.0000 343.0000 -113.7500 Du        
    862 ****       222.0000 343.0000 -113.5000 Du        
    863 ****       222.0000 343.0000 -113.2500 Du        
    864 ****       222.0000 343.0000 -113.0000 Du        
    865 ****       222.0000 343.0000 -112.7500 Du        
    866 ****       222.0000 343.0000 -112.5000 Du        
    867 ****       222.0000 343.0000 -112.2500 Du        
    868 ****       222.0000 343.0000 -112.0000 Du        
    869 ****       222.0000 343.0000 -111.7500 Du        
    870 ****       222.0000 343.0000 -111.5000 Du        
    871 ****       222.0000 343.0000 -111.2500 Du        
    872 ****       222.0000 343.0000 -111.0000 Du        
    873 ****       222.0000 343.0000 -110.7500 Du        
    874 ****       222.0000 343.0000 -110.5000 Du        
    875 ****       222.0000 343.0000 -110.2500 Du        
    876 ****       222.0000 343.0000 -110.0000 Du        
    877 ****       222.0000 343.0000 -109.7500 Du        
    878 ****       222.0000 343.0000 -109.5000 Du        
    879 ****       222.0000 343.0000 -109.2500 Du        
    880 ****       222.0000 343.0000 -109.0000 Du        
    881 ****       222.0000 343.0000 -108.7500 Du        
    882 ****       222.0000 343.0000 -108.5000 Du        
    883 ****       222.0000 343.0000 -108.2500 Du        
    884 ****       222.0000 343.0000 -108.0000 Du        
    885 ****       222.0000 343.0000 -99.7500 Du        
    886 ****       222.0000 343.0000 -99.5000 Du        
    887 ****       222.0000 343.0000 -99.2500 Du        
    888 ****       222.0000 343.0000 -99.0000 Du        
    889 ****       222.0000 343.0000 -98.7500 Du        
    890 ****       222.0000 343.0000 -98.5000 Du        
    891 ****       222.0000 343.0000 -98.2500 Du        
    892 ****       222.0000 343.2500 -114.2500 Du        
    893 ****       222.0000 343.2500 -114.0000 Du        
    894 ****       222.0000 343.2500 -113.7500 Du        
    895 ****       222.0000 343.2500 -113.5000 Du        
    896 ****       222.0000 343.2500 -113.2500 Du        
    897 ****       222.0000 343.2500 -113.0000 Du        
    898 ****       222.0000 343.2500 -112.7500 Du        
    899 ****       222.0000 343.2500 -112.5000 Du        
    900 ****       222.0000 343.2500 -112.2500 Du        
    901 ****       222.0000 343.2500 -112.0000 Du        
    902 ****       222.0000 343.2500 -111.7500 Du        
    903 ****       222.0000 343.2500 -111.5000 Du        
    904 ****       222.0000 343.2500 -111.2500 Du        
    905 ****       222.0000 343.2500 -111.0000 Du        
    906 ****       222.0000 343.2500 -110.7500 Du        
    907 ****       222.0000 343.2500 -110.5000 Du        
    908 ****       222.0000 343.2500 -110.2500 Du        
    909 ****       222.0000 343.2500 -110.0000 Du        
    910 ****       222.0000 343.2500 -109.7500 Du        
    911 ****       222.0000 343.2500 -109.5000 Du        
    912 ****       222.0000 343.2500 -109.2500 Du        
    913 ****       222.0000 343.2500 -109.0000 Du        
    914 ****       222.0000 343.2500 -108.7500 Du        
    915 ****       222.0000 343.2500 -108.5000 Du        
    916 ****       222.0000 343.2500 -108.2500 Du        
    917 ****       222.0000 343.2500 -100.0000 Du        
    918 ****       222.0000 343.2500 -99.7500 Du        
    919 ****       222.0000 343.2500 -99.5000 Du        
    920 ****       222.0000 343.2500 -99.2500 Du        
    921 ****       222.0000 343.2500 -99.0000 Du        
    922 ****       222.0000 343.2500 -98.7500 Du        
    923 ****       222.0000 343.2500 -98.5000 Du        
    924 ****       222.0000 343.2500 -98.2500 Du        
    925 ****       222.0000 343.5000 -114.5000 Du        
    926 ****       222.0000 343.5000 -114.2500 Du        
    927 ****       222.0000 343.5000 -114.0000 Du        
    928 ****       222.0000 343.5000 -113.7500 Du        
    929 ****       222.0000 343.5000 -113.5000 Du        
    930 ****       222.0000 343.5000 -113.2500 Du        
    931 ****       222.0000 343.5000 -113.0000 Du        
    932 ****       222.0000 343.5000 -112.7500 Du        
    933 ****       222.0000 343.5000 -112.5000 Du        
    934 ****       222.0000 343.5000 -112.2500 Du        
    935 ****       222.0000 343.5000 -112.0000 Du        
    936 ****       222.0000 343.5000 -111.7500 Du        
    937 ****       222.0000 343.5000 -111.5000 Du        
    938 ****       222.0000 343.5000 -111.2500 Du        
    939 ****       222.0000 343.5000 -111.0000 Du        
    940 ****       222.0000 343.5000 -110.7500 Du        
    941 ****       222.0000 343.5000 -110.5000 Du        
    942 ****       222.0000 343.5000 -110.2500 Du        
    943 ****       222.0000 343.5000 -110.0000 Du        
    944 ****       222.0000 343.5000 -109.7500 Du        
    945 ****       222.0000 343.5000 -109.5000 Du        
    946 ****       222.0000 343.5000 -109.2500 Du        
    947 ****       222.0000 343.5000 -109.0000 Du        
    948 ****       222.0000 343.5000 -108.7500 Du        
    949 ****       222.0000 343.5000 -108.5000 Du        
    950 ****       222.0000 343.5000 -108.2500 Du        
    951 ****       222.0000 343.5000 -100.5000 Du        
    952 ****       222.0000 343.5000 -100.2500 Du        
    953 ****       222.0000 343.5000 -100.0000 Du        
    954 ****       222.0000 343.5000 -99.7500 Du        
    955 ****       222.0000 343.5000 -99.2500 Du        
    956 ****       222.0000 343.5000 -99.0000 Du        
    957 ****       222.0000 343.5000 -98.7500 Du        
    958 ****       222.0000 343.5000 -98.5000 Du        
    959 ****       222.0000 343.5000 -98.2500 Du        
    960 ****       222.0000 343.7500 -114.5000 Du        
    961 ****       222.0000 343.7500 -114.2500 Du        
    962 ****       222.0000 343.7500 -114.0000 Du        
    963 ****       222.0000 343.7500 -113.7500 Du        
    964 ****       222.0000 343.7500 -113.5000 Du        
    965 ****       222.0000 343.7500 -113.2500 Du        
    966 ****       222.0000 343.7500 -113.0000 Du        
    967 ****       222.0000 343.7500 -112.7500 Du        
    968 ****       222.0000 343.7500 -112.5000 Du        
    969 ****       222.0000 343.7500 -112.2500 Du        
    970 ****       222.0000 343.7500 -112.0000 Du        
    971 ****       222.0000 343.7500 -111.7500 Du        
    972 ****       222.0000 343.7500 -111.5000 Du        
    973 ****       222.0000 343.7500 -111.2500 Du        
    974 ****       222.0000 343.7500 -111.0000 Du        
    975 ****       222.0000 343.7500 -110.7500 Du        
    976 ****       222.0000 343.7500 -110.5000 Du        
    977 ****       222.0000 343.7500 -110.2500 Du        
    978 ****       222.0000 343.7500 -110.0000 Du        
    979 ****       222.0000 343.7500 -109.7500 Du        
    980 ****       222.0000 343.7500 -109.5000 Du        
    981 ****       222.0000 343.7500 -109.2500 Du        
    982 ****       222.0000 343.7500 -109.0000 Du        
    983 ****       222.0000 343.7500 -108.7500 Du        
    984 ****       222.0000 343.7500 -108.5000 Du        
    985 ****       222.0000 343.7500 -108.2500 Du        
    986 ****       222.0000 343.7500 -100.5000 Du        
    987 ****       222.0000 343.7500 -100.2500 Du        
    988 ****       222.0000 343.7500 -100.0000 Du        
    989 ****       222.0000 343.7500 -99.7500 Du        
    990 ****       222.0000 343.7500 -99.5000 Du        
    991 ****       222.0000 343.7500 -99.2500 Du        
    992 ****       222.0000 343.7500 -99.0000 Du        
    993 ****       222.0000 343.7500 -98.7500 Du        
    994 ****       222.0000 343.7500 -98.5000 Du        
    995 ****       222.0000 343.7500 -98.2500 Du        
    996 ****       222.0000 344.0000 -113.0000 Du        
    997 ****       222.0000 344.0000 -112.7500 Du        
    998 ****       222.0000 344.0000 -112.5000 Du        
    999 ****       222.0000 344.0000 -112.2500 Du        
   1000 ****       222.0000 344.0000 -112.0000 Du        
   1001 ****       222.0000 344.0000 -111.7500 Du        
   1002 ****       222.0000 344.0000 -111.5000 Du        
   1003 ****       222.0000 344.0000 -111.2500 Du        
   1004 ****       222.0000 344.0000 -111.0000 Du        
   1005 ****       222.0000 344.0000 -110.7500 Du        
   1006 ****       222.0000 344.0000 -110.5000 Du        
   1007 ****       222.0000 344.0000 -110.2500 Du        
   1008 ****       222.0000 344.0000 -110.0000 Du        
   1009 ****       222.0000 344.0000 -109.7500 Du        
   1010 ****       222.0000 344.0000 -109.5000 Du        
   1011 ****       222.0000 344.0000 -109.2500 Du        
   1012 ****       222.0000 344.0000 -109.0000 Du        
   1013 ****       222.0000 344.0000 -108.7500 Du        
   1014 ****       222.0000 344.0000 -108.5000 Du        
   1015 ****       222.0000 344.0000 -100.7500 Du        
   1016 ****       222.0000 344.0000 -100.5000 Du        
   1017 ****       222.0000 344.0000 -100.2500 Du        
   1018 ****       222.0000 344.0000 -100.0000 Du        
   1019 ****       222.0000 344.0000 -99.7500 Du        
   1020 ****       222.0000 344.0000 -99.2500 Du        
   1021 ****       222.0000 344.0000 -99.0000 Du        
   1022 ****       222.0000 344.0000 -98.7500 Du        
   1023 ****       222.0000 344.0000 -98.5000 Du        
   1024 ****       222.0000 344.0000 -98.2500 Du        
   1025 ****       222.0000 344.2500 -112.2500 Du        
   1026 ****       222.0000 344.2500 -112.0000 Du        
   1027 ****       222.0000 344.2500 -111.7500 Du        
   1028 ****       222.0000 344.2500 -111.5000 Du        
   1029 ****       222.0000 344.2500 -111.2500 Du        
   1030 ****       222.0000 344.2500 -111.0000 Du        
   1031 ****       222.0000 344.2500 -110.7500 Du        
   1032 ****       222.0000 344.2500 -110.5000 Du        
   1033 ****       222.0000 344.2500 -110.2500 Du        
   1034 ****       222.0000 344.2500 -110.0000 Du        
   1035 ****       222.0000 344.2500 -109.7500 Du        
   1036 ****       222.0000 344.2500 -109.5000 Du        
   1037 ****       222.0000 344.2500 -109.2500 Du        
   1038 ****       222.0000 344.2500 -109.0000 Du        
   1039 ****       222.0000 344.2500 -108.7500 Du        
   1040 ****       222.0000 344.2500 -100.5000 Du        
   1041 ****       222.0000 344.2500 -100.2500 Du        
   1042 ****       222.0000 344.2500 -100.0000 Du        
   1043 ****       222.0000 344.2500 -99.7500 Du        
   1044 ****       222.0000 344.2500 -99.2500 Du        
   1045 ****       222.0000 344.2500 -99.0000 Du        
   1046 ****       222.0000 344.2500 -98.7500 Du        
   1047 ****       222.0000 344.2500 -98.5000 Du        
   1048 ****       222.0000 344.2500 -98.2500 Du        
   1049 ****       222.0000 344.5000 -111.7500 Du        
   1050 ****       222.0000 344.5000 -111.5000 Du        
   1051 ****       222.0000 344.5000 -111.2500 Du        
   1052 ****       222.0000 344.5000 -111.0000 Du        
   1053 ****       222.0000 344.5000 -110.7500 Du        
   1054 ****       222.0000 344.5000 -110.5000 Du        
   1055 ****       222.0000 344.5000 -110.2500 Du        
   1056 ****       222.0000 344.5000 -99.7500 Du        
   1057 ****       222.0000 344.5000 -99.5000 Du        
   1058 ****       222.0000 344.5000 -99.2500 Du        
   1059 ****       222.0000 344.5000 -99.0000 Du        
   1060 ****       222.0000 344.5000 -98.7500 Du        
   1061 ****       222.0000 344.7500 -100.0000 Du        
   1062 ****       222.0000 344.7500 -99.7500 Du        
   1063 ****       222.0000 344.7500 -99.5000 Du        
   1064 ****       222.0000 344.7500 -99.2500 Du        
   1065 ****       222.0000 344.7500 -99.0000 Du        
   1066 ****       222.0000 344.7500 -98.7500 Du        
   1067 ****       222.0000 345.0000 -100.2500 Du        
   1068 ****       222.0000 345.0000 -100.0000 Du        
   1069 ****       222.0000 345.0000 -99.7500 Du        
   1070 ****       222.0000 345.0000 -99.5000 Du        
   1071 ****       222.0000 345.0000 -99.2500 Du        
   1072 ****       222.0000 345.0000 -99.0000 Du        
   1073 ****       222.0000 345.0000 -98.7500 Du        
   1074 ****       222.0000 345.0000 -98.2500 Du        
   1075 ****       222.0000 345.2500 -100.7500 Du        
   1076 ****       222.0000 345.2500 -100.0000 Du        
   1077 ****       222.0000 345.2500 -99.7500 Du        
   1078 ****       222.0000 345.2500 -99.2500 Du        
   1079 ****       222.0000 345.2500 -99.0000 Du        
   1080 ****       222.0000 345.2500 -98.7500 Du        
   1081 ****       222.0000 345.5000 -101.0000 Du        
   1082 ****       222.0000 345.5000 -100.7500 Du        
   1083 ****       222.0000 345.5000 -100.5000 Du        
   1084 ****       222.0000 345.5000 -100.2500 Du        
   1085 ****       222.0000 345.5000 -100.0000 Du        
   1086 ****       222.0000 345.5000 -99.7500 Du        
   1087 ****       222.0000 345.7500 -101.2500 Du        
   1088 ****       222.0000 345.7500 -101.0000 Du        
   1089 ****       222.0000 345.7500 -100.7500 Du        
   1090 ****       222.0000 345.7500 -100.5000 Du        
   1091 ****       222.0000 345.7500 -100.2500 Du        
   1092 ****       222.0000 345.7500 -100.0000 Du        
   1093 ****       222.0000 345.7500 -99.7500 Du        
   1094 ****       222.0000 346.0000 -101.2500 Du        
   1095 ****       222.0000 346.0000 -101.0000 Du        
   1096 ****       222.0000 346.0000 -100.7500 Du        
   1097 ****       222.0000 346.0000 -100.5000 Du        
   1098 ****       222.0000 346.0000 -100.2500 Du        
   1099 ****       222.0000 346.0000 -100.0000 Du        
   1100 ****       222.0000 346.0000 -99.7500 Du        
   1101 ****       222.0000 346.2500 -101.2500 Du        
   1102 ****       222.0000 346.2500 -101.0000 Du        
   1103 ****       222.0000 346.2500 -100.7500 Du        
   1104 ****       222.0000 346.2500 -100.5000 Du        
   1105 ****       222.0000 346.2500 -100.2500 Du        
   1106 ****       222.0000 346.2500 -100.0000 Du        
   1107 ****       222.0000 346.2500 -99.7500 Du        
   1108 ****       222.0000 346.5000 -101.5000 Du        
   1109 ****       222.0000 346.5000 -101.2500 Du        
   1110 ****       222.0000 346.5000 -101.0000 Du        
   1111 ****       222.0000 346.5000 -100.7500 Du        
   1112 ****       222.0000 346.5000 -100.5000 Du        
   1113 ****       222.0000 346.5000 -100.2500 Du        
   1114 ****       222.0000 346.5000 -100.0000 Du        
   1115 ****       222.0000 346.7500 -101.5000 Du        
   1116 ****       222.0000 346.7500 -101.2500 Du        
   1117 ****       222.0000 346.7500 -101.0000 Du        
   1118 ****       222.0000 346.7500 -100.7500 Du        
   1119 ****       222.0000 346.7500 -100.5000 Du        
   1120 ****       222.0000 346.7500 -100.2500 Du        
   1121 ****       222.0000 346.7500 -100.0000 Du        
   1122 ****       222.0000 347.0000 -101.7500 Du        
   1123 ****       222.0000 347.0000 -101.5000 Du        
   1124 ****       222.0000 347.0000 -101.2500 Du        
   1125 ****       222.0000 347.0000 -101.0000 Du        
   1126 ****       222.0000 347.0000 -100.7500 Du        
   1127 ****       222.0000 347.0000 -100.5000 Du        
   1128 ****       222.0000 347.0000 -100.2500 Du        
   1129 ****       222.0000 347.0000 -100.0000 Du        
   1130 ****       222.0000 347.2500 -101.7500 Du        
   1131 ****       222.0000 347.2500 -101.5000 Du        
   1132 ****       222.0000 347.2500 -101.2500 Du        
   1133 ****       222.0000 347.2500 -101.0000 Du        
   1134 ****       222.0000 347.2500 -100.7500 Du        
   1135 ****       222.0000 347.2500 -100.5000 Du        
   1136 ****       222.0000 347.2500 -100.2500 Du        
   1137 ****       222.0000 347.2500 -100.0000 Du        
   1138 ****       222.0000 347.5000 -102.0000 Du        
   1139 ****       222.0000 347.5000 -101.7500 Du        
   1140 ****       222.0000 347.5000 -101.5000 Du        
   1141 ****       222.0000 347.5000 -101.2500 Du        
   1142 ****       222.0000 347.5000 -101.0000 Du        
   1143 ****       222.0000 347.5000 -100.7500 Du        
   1144 ****       222.0000 347.5000 -100.5000 Du        
   1145 ****       222.0000 347.5000 -100.2500 Du        
   1146 ****       222.0000 347.7500 -102.0000 Du        
   1147 ****       222.0000 347.7500 -101.7500 Du        
   1148 ****       222.0000 347.7500 -101.5000 Du        
   1149 ****       222.0000 347.7500 -101.2500 Du        
   1150 ****       222.0000 347.7500 -101.0000 Du        
   1151 ****       222.0000 347.7500 -100.7500 Du        
   1152 ****       222.0000 347.7500 -100.5000 Du        
   1153 ****       222.0000 347.7500 -100.2500 Du        
   1154 ****       222.0000 347.7500 -100.0000 Du        
   1155 ****       222.0000 348.0000 -102.0000 Du        
   1156 ****       222.0000 348.0000 -101.7500 Du        
   1157 ****       222.0000 348.0000 -101.5000 Du        
   1158 ****       222.0000 348.0000 -101.2500 Du        
   1159 ****       222.0000 348.0000 -101.0000 Du        
   1160 ****       222.0000 348.0000 -100.7500 Du        
   1161 ****       222.0000 348.0000 -100.5000 Du        
   1162 ****       222.0000 348.0000 -100.2500 Du        
   1163 ****       222.0000 348.0000 -100.0000 Du        
   1164 ****       222.0000 348.2500 -102.0000 Du        
   1165 ****       222.0000 348.2500 -101.7500 Du        
   1166 ****       222.0000 348.2500 -101.5000 Du        
   1167 ****       222.0000 348.2500 -101.2500 Du        
   1168 ****       222.0000 348.2500 -101.0000 Du        
   1169 ****       222.0000 348.2500 -100.7500 Du        
   1170 ****       222.0000 348.2500 -100.5000 Du        
   1171 ****       222.0000 348.2500 -100.2500 Du        
   1172 ****       222.0000 348.2500 -100.0000 Du        
   1173 ****       222.0000 348.5000 -102.0000 Du        
   1174 ****       222.0000 348.5000 -101.7500 Du        
   1175 ****       222.0000 348.5000 -101.5000 Du        
   1176 ****       222.0000 348.5000 -101.2500 Du        
   1177 ****       222.0000 348.5000 -101.0000 Du        
   1178 ****       222.0000 348.5000 -100.7500 Du        
   1179 ****       222.0000 348.5000 -100.5000 Du        
   1180 ****       222.0000 348.5000 -100.2500 Du        
   1181 ****       222.0000 348.5000 -100.0000 Du        
   1182 ****       222.0000 348.7500 -101.5000 Du        
   1183 ****       222.0000 348.7500 -101.2500 Du        
   1184 ****       222.0000 348.7500 -101.0000 Du        
   1185 ****       222.0000 348.7500 -100.7500 Du        
   1186 ****       222.0000 348.7500 -100.5000 Du        
   1187 ****       222.0000 348.7500 -100.2500 Du        
   1188 ****       222.0000 348.7500 -100.0000 Du        
   1189 ****       222.0000 349.0000 -100.2500 Du        
   1190 ****       222.0000 349.0000 -100.0000 Du        
   1191 ****       222.2500 341.7500 -100.0000 Du        
   1192 ****       222.2500 342.0000 -100.2500 Du        
   1193 ****       222.2500 342.0000 -100.0000 Du        
   1194 ****       222.2500 342.0000 -99.7500 Du        
   1195 ****       222.2500 342.2500 -108.2500 Du        
   1196 ****       222.2500 342.2500 -100.2500 Du        
   1197 ****       222.2500 342.2500 -100.0000 Du        
   1198 ****       222.2500 342.2500 -99.7500 Du        
   1199 ****       222.2500 342.2500 -99.5000 Du        
   1200 ****       222.2500 342.2500 -99.2500 Du        
   1201 ****       222.2500 342.2500 -99.0000 Du        
   1202 ****       222.2500 342.5000 -109.2500 Du        
   1203 ****       222.2500 342.5000 -109.0000 Du        
   1204 ****       222.2500 342.5000 -108.7500 Du        
   1205 ****       222.2500 342.5000 -108.5000 Du        
   1206 ****       222.2500 342.5000 -108.2500 Du        
   1207 ****       222.2500 342.5000 -108.0000 Du        
   1208 ****       222.2500 342.5000 -100.5000 Du        
   1209 ****       222.2500 342.5000 -100.2500 Du        
   1210 ****       222.2500 342.5000 -100.0000 Du        
   1211 ****       222.2500 342.5000 -99.7500 Du        
   1212 ****       222.2500 342.5000 -99.5000 Du        
   1213 ****       222.2500 342.5000 -99.2500 Du        
   1214 ****       222.2500 342.5000 -99.0000 Du        
   1215 ****       222.2500 342.5000 -98.7500 Du        
   1216 ****       222.2500 342.5000 -98.5000 Du        
   1217 ****       222.2500 342.7500 -112.5000 Du        
   1218 ****       222.2500 342.7500 -112.2500 Du        
   1219 ****       222.2500 342.7500 -112.0000 Du        
   1220 ****       222.2500 342.7500 -111.7500 Du        
   1221 ****       222.2500 342.7500 -110.5000 Du        
   1222 ****       222.2500 342.7500 -110.2500 Du        
   1223 ****       222.2500 342.7500 -110.0000 Du        
   1224 ****       222.2500 342.7500 -109.7500 Du        
   1225 ****       222.2500 342.7500 -109.5000 Du        
   1226 ****       222.2500 342.7500 -109.2500 Du        
   1227 ****       222.2500 342.7500 -109.0000 Du        
   1228 ****       222.2500 342.7500 -108.7500 Du        
   1229 ****       222.2500 342.7500 -108.5000 Du        
   1230 ****       222.2500 342.7500 -108.2500 Du        
   1231 ****       222.2500 342.7500 -108.0000 Du        
   1232 ****       222.2500 342.7500 -100.5000 Du        
   1233 ****       222.2500 342.7500 -100.2500 Du        
   1234 ****       222.2500 342.7500 -100.0000 Du        
   1235 ****       222.2500 342.7500 -99.7500 Du        
   1236 ****       222.2500 342.7500 -99.5000 Du        
   1237 ****       222.2500 342.7500 -99.2500 Du        
   1238 ****       222.2500 342.7500 -99.0000 Du        
   1239 ****       222.2500 342.7500 -98.7500 Du        
   1240 ****       222.2500 342.7500 -98.5000 Du        
   1241 ****       222.2500 342.7500 -98.2500 Du        
   1242 ****       222.2500 343.0000 -113.7500 Du        
   1243 ****       222.2500 343.0000 -113.5000 Du        
   1244 ****       222.2500 343.0000 -113.2500 Du        
   1245 ****       222.2500 343.0000 -113.0000 Du        
   1246 ****       222.2500 343.0000 -112.7500 Du        
   1247 ****       222.2500 343.0000 -112.5000 Du        
   1248 ****       222.2500 343.0000 -112.2500 Du        
   1249 ****       222.2500 343.0000 -112.0000 Du        
   1250 ****       222.2500 343.0000 -111.7500 Du        
   1251 ****       222.2500 343.0000 -111.5000 Du        
   1252 ****       222.2500 343.0000 -111.2500 Du        
   1253 ****       222.2500 343.0000 -111.0000 Du        
   1254 ****       222.2500 343.0000 -110.7500 Du        
   1255 ****       222.2500 343.0000 -110.5000 Du        
   1256 ****       222.2500 343.0000 -110.2500 Du        
   1257 ****       222.2500 343.0000 -110.0000 Du        
   1258 ****       222.2500 343.0000 -109.7500 Du        
   1259 ****       222.2500 343.0000 -109.5000 Du        
   1260 ****       222.2500 343.0000 -109.2500 Du        
   1261 ****       222.2500 343.0000 -109.0000 Du        
   1262 ****       222.2500 343.0000 -108.7500 Du        
   1263 ****       222.2500 343.0000 -108.5000 Du        
   1264 ****       222.2500 343.0000 -108.2500 Du        
   1265 ****       222.2500 343.0000 -108.0000 Du        
   1266 ****       222.2500 343.0000 -100.5000 Du        
   1267 ****       222.2500 343.0000 -100.2500 Du        
   1268 ****       222.2500 343.0000 -100.0000 Du        
   1269 ****       222.2500 343.0000 -99.7500 Du        
   1270 ****       222.2500 343.0000 -99.5000 Du        
   1271 ****       222.2500 343.0000 -99.2500 Du        
   1272 ****       222.2500 343.0000 -99.0000 Du        
   1273 ****       222.2500 343.0000 -98.7500 Du        
   1274 ****       222.2500 343.0000 -98.5000 Du        
   1275 ****       222.2500 343.0000 -98.2500 Du        
   1276 ****       222.2500 343.2500 -114.2500 Du        
   1277 ****       222.2500 343.2500 -114.0000 Du        
   1278 ****       222.2500 343.2500 -113.7500 Du        
   1279 ****       222.2500 343.2500 -113.5000 Du        
   1280 ****       222.2500 343.2500 -113.2500 Du        
   1281 ****       222.2500 343.2500 -113.0000 Du        
   1282 ****       222.2500 343.2500 -112.7500 Du        
   1283 ****       222.2500 343.2500 -112.5000 Du        
   1284 ****       222.2500 343.2500 -112.2500 Du        
   1285 ****       222.2500 343.2500 -112.0000 Du        
   1286 ****       222.2500 343.2500 -111.7500 Du        
   1287 ****       222.2500 343.2500 -111.5000 Du        
   1288 ****       222.2500 343.2500 -111.2500 Du        
   1289 ****       222.2500 343.2500 -111.0000 Du        
   1290 ****       222.2500 343.2500 -110.7500 Du        
   1291 ****       222.2500 343.2500 -110.5000 Du        
   1292 ****       222.2500 343.2500 -110.2500 Du        
   1293 ****       222.2500 343.2500 -110.0000 Du        
   1294 ****       222.2500 343.2500 -109.7500 Du        
   1295 ****       222.2500 343.2500 -109.5000 Du        
   1296 ****       222.2500 343.2500 -109.2500 Du        
   1297 ****       222.2500 343.2500 -109.0000 Du        
   1298 ****       222.2500 343.2500 -108.7500 Du        
   1299 ****       222.2500 343.2500 -108.5000 Du        
   1300 ****       222.2500 343.2500 -108.2500 Du        
   1301 ****       222.2500 343.2500 -100.5000 Du        
   1302 ****       222.2500 343.2500 -100.2500 Du        
   1303 ****       222.2500 343.2500 -100.0000 Du        
   1304 ****       222.2500 343.2500 -99.7500 Du        
   1305 ****       222.2500 343.2500 -99.5000 Du        
   1306 ****       222.2500 343.2500 -99.2500 Du        
   1307 ****       222.2500 343.2500 -99.0000 Du        
   1308 ****       222.2500 343.2500 -98.7500 Du        
   1309 ****       222.2500 343.2500 -98.5000 Du        
   1310 ****       222.2500 343.2500 -98.2500 Du        
   1311 ****       222.2500 343.5000 -114.2500 Du        
   1312 ****       222.2500 343.5000 -114.0000 Du        
   1313 ****       222.2500 343.5000 -113.7500 Du        
   1314 ****       222.2500 343.5000 -113.5000 Du        
   1315 ****       222.2500 343.5000 -113.2500 Du        
   1316 ****       222.2500 343.5000 -113.0000 Du        
   1317 ****       222.2500 343.5000 -112.7500 Du        
   1318 ****       222.2500 343.5000 -112.5000 Du        
   1319 ****       222.2500 343.5000 -112.2500 Du        
   1320 ****       222.2500 343.5000 -112.0000 Du        
   1321 ****       222.2500 343.5000 -111.7500 Du        
   1322 ****       222.2500 343.5000 -111.5000 Du        
   1323 ****       222.2500 343.5000 -111.2500 Du        
   1324 ****       222.2500 343.5000 -111.0000 Du        
   1325 ****       222.2500 343.5000 -110.7500 Du        
   1326 ****       222.2500 343.5000 -110.5000 Du        
   1327 ****       222.2500 343.5000 -110.2500 Du        
   1328 ****       222.2500 343.5000 -110.0000 Du        
   1329 ****       222.2500 343.5000 -109.7500 Du        
   1330 ****       222.2500 343.5000 -109.5000 Du        
   1331 ****       222.2500 343.5000 -109.2500 Du        
   1332 ****       222.2500 343.5000 -109.0000 Du        
   1333 ****       222.2500 343.5000 -108.7500 Du        
   1334 ****       222.2500 343.5000 -108.5000 Du        
   1335 ****       222.2500 343.5000 -108.2500 Du        
   1336 ****       222.2500 343.5000 -100.7500 Du        
   1337 ****       222.2500 343.5000 -100.5000 Du        
   1338 ****       222.2500 343.5000 -100.2500 Du        
   1339 ****       222.2500 343.5000 -100.0000 Du        
   1340 ****       222.2500 343.5000 -99.7500 Du        
   1341 ****       222.2500 343.5000 -99.5000 Du        
   1342 ****       222.2500 343.5000 -99.2500 Du        
   1343 ****       222.2500 343.5000 -99.0000 Du        
   1344 ****       222.2500 343.5000 -98.7500 Du        
   1345 ****       222.2500 343.5000 -98.5000 Du        
   1346 ****       222.2500 343.5000 -98.2500 Du        
   1347 ****       222.2500 343.7500 -114.5000 Du        
   1348 ****       222.2500 343.7500 -114.2500 Du        
   1349 ****       222.2500 343.7500 -114.0000 Du        
   1350 ****       222.2500 343.7500 -113.7500 Du        
   1351 ****       222.2500 343.7500 -113.5000 Du        
   1352 ****       222.2500 343.7500 -113.2500 Du        
   1353 ****       222.2500 343.7500 -113.0000 Du        
   1354 ****       222.2500 343.7500 -112.7500 Du        
   1355 ****       222.2500 343.7500 -112.5000 Du        
   1356 ****       222.2500 343.7500 -112.2500 Du        
   1357 ****       222.2500 343.7500 -112.0000 Du        
   1358 ****       222.2500 343.7500 -111.7500 Du        
   1359 ****       222.2500 343.7500 -111.5000 Du        
   1360 ****       222.2500 343.7500 -111.2500 Du        
   1361 ****       222.2500 343.7500 -111.0000 Du        
   1362 ****       222.2500 343.7500 -110.7500 Du        
   1363 ****       222.2500 343.7500 -110.5000 Du        
   1364 ****       222.2500 343.7500 -110.2500 Du        
   1365 ****       222.2500 343.7500 -110.0000 Du        
   1366 ****       222.2500 343.7500 -109.7500 Du        
   1367 ****       222.2500 343.7500 -109.5000 Du        
   1368 ****       222.2500 343.7500 -109.2500 Du        
   1369 ****       222.2500 343.7500 -109.0000 Du        
   1370 ****       222.2500 343.7500 -108.7500 Du        
   1371 ****       222.2500 343.7500 -108.5000 Du        
   1372 ****       222.2500 343.7500 -100.7500 Du        
   1373 ****       222.2500 343.7500 -100.5000 Du        
   1374 ****       222.2500 343.7500 -100.2500 Du        
   1375 ****       222.2500 343.7500 -100.0000 Du        
   1376 ****       222.2500 343.7500 -99.7500 Du        
   1377 ****       222.2500 343.7500 -99.5000 Du        
   1378 ****       222.2500 343.7500 -99.2500 Du        
   1379 ****       222.2500 343.7500 -99.0000 Du        
   1380 ****       222.2500 343.7500 -98.7500 Du        
   1381 ****       222.2500 343.7500 -98.5000 Du        
   1382 ****       222.2500 343.7500 -98.2500 Du        
   1383 ****       222.2500 344.0000 -114.5000 Du        
   1384 ****       222.2500 344.0000 -114.2500 Du        
   1385 ****       222.2500 344.0000 -114.0000 Du        
   1386 ****       222.2500 344.0000 -113.7500 Du        
   1387 ****       222.2500 344.0000 -113.5000 Du        
   1388 ****       222.2500 344.0000 -113.2500 Du        
   1389 ****       222.2500 344.0000 -113.0000 Du        
   1390 ****       222.2500 344.0000 -112.7500 Du        
   1391 ****       222.2500 344.0000 -112.5000 Du        
   1392 ****       222.2500 344.0000 -112.2500 Du        
   1393 ****       222.2500 344.0000 -112.0000 Du        
   1394 ****       222.2500 344.0000 -111.7500 Du        
   1395 ****       222.2500 344.0000 -111.5000 Du        
   1396 ****       222.2500 344.0000 -111.2500 Du        
   1397 ****       222.2500 344.0000 -111.0000 Du        
   1398 ****       222.2500 344.0000 -110.7500 Du        
   1399 ****       222.2500 344.0000 -110.5000 Du        
   1400 ****       222.2500 344.0000 -110.2500 Du        
   1401 ****       222.2500 344.0000 -110.0000 Du        
   1402 ****       222.2500 344.0000 -109.7500 Du        
   1403 ****       222.2500 344.0000 -109.5000 Du        
   1404 ****       222.2500 344.0000 -109.2500 Du        
   1405 ****       222.2500 344.0000 -109.0000 Du        
   1406 ****       222.2500 344.0000 -108.7500 Du        
   1407 ****       222.2500 344.0000 -108.5000 Du        
   1408 ****       222.2500 344.0000 -101.0000 Du        
   1409 ****       222.2500 344.0000 -100.7500 Du        
   1410 ****       222.2500 344.0000 -100.5000 Du        
   1411 ****       222.2500 344.0000 -100.2500 Du        
   1412 ****       222.2500 344.0000 -100.0000 Du        
   1413 ****       222.2500 344.0000 -99.7500 Du        
   1414 ****       222.2500 344.0000 -99.5000 Du        
   1415 ****       222.2500 344.0000 -99.2500 Du        
   1416 ****       222.2500 344.0000 -99.0000 Du        
   1417 ****       222.2500 344.0000 -98.7500 Du        
   1418 ****       222.2500 344.0000 -98.5000 Du        
   1419 ****       222.2500 344.2500 -113.0000 Du        
   1420 ****       222.2500 344.2500 -112.7500 Du        
   1421 ****       222.2500 344.2500 -112.5000 Du        
   1422 ****       222.2500 344.2500 -112.2500 Du        
   1423 ****       222.2500 344.2500 -112.0000 Du        
   1424 ****       222.2500 344.2500 -111.7500 Du        
   1425 ****       222.2500 344.2500 -111.5000 Du        
   1426 ****       222.2500 344.2500 -111.2500 Du        
   1427 ****       222.2500 344.2500 -111.0000 Du        
   1428 ****       222.2500 344.2500 -110.7500 Du        
   1429 ****       222.2500 344.2500 -110.5000 Du        
   1430 ****       222.2500 344.2500 -110.2500 Du        
   1431 ****       222.2500 344.2500 -110.0000 Du        
   1432 ****       222.2500 344.2500 -109.7500 Du        
   1433 ****       222.2500 344.2500 -109.5000 Du        
   1434 ****       222.2500 344.2500 -100.7500 Du        
   1435 ****       222.2500 344.2500 -100.5000 Du        
   1436 ****       222.2500 344.2500 -100.2500 Du        
   1437 ****       222.2500 344.2500 -100.0000 Du        
   1438 ****       222.2500 344.2500 -99.7500 Du        
   1439 ****       222.2500 344.2500 -99.5000 Du        
   1440 ****       222.2500 344.2500 -99.2500 Du        
   1441 ****       222.2500 344.2500 -99.0000 Du        
   1442 ****       222.2500 344.2500 -98.7500 Du        
   1443 ****       222.2500 344.2500 -98.5000 Du        
   1444 ****       222.2500 344.5000 -112.2500 Du        
   1445 ****       222.2500 344.5000 -112.0000 Du        
   1446 ****       222.2500 344.5000 -111.7500 Du        
   1447 ****       222.2500 344.5000 -111.5000 Du        
   1448 ****       222.2500 344.5000 -111.2500 Du        
   1449 ****       222.2500 344.5000 -111.0000 Du        
   1450 ****       222.2500 344.5000 -110.7500 Du        
   1451 ****       222.2500 344.5000 -110.5000 Du        
   1452 ****       222.2500 344.5000 -100.5000 Du        
   1453 ****       222.2500 344.5000 -100.2500 Du        
   1454 ****       222.2500 344.5000 -100.0000 Du        
   1455 ****       222.2500 344.5000 -99.7500 Du        
   1456 ****       222.2500 344.5000 -99.5000 Du        
   1457 ****       222.2500 344.5000 -99.2500 Du        
   1458 ****       222.2500 344.5000 -99.0000 Du        
   1459 ****       222.2500 344.5000 -98.7500 Du        
   1460 ****       222.2500 344.7500 -101.0000 Du        
   1461 ****       222.2500 344.7500 -100.7500 Du        
   1462 ****       222.2500 344.7500 -100.5000 Du        
   1463 ****       222.2500 344.7500 -100.2500 Du        
   1464 ****       222.2500 344.7500 -100.0000 Du        
   1465 ****       222.2500 344.7500 -99.7500 Du        
   1466 ****       222.2500 344.7500 -99.5000 Du        
   1467 ****       222.2500 344.7500 -99.2500 Du        
   1468 ****       222.2500 344.7500 -99.0000 Du        
   1469 ****       222.2500 344.7500 -98.7500 Du        
   1470 ****       222.2500 345.0000 -101.0000 Du        
   1471 ****       222.2500 345.0000 -100.7500 Du        
   1472 ****       222.2500 345.0000 -100.5000 Du        
   1473 ****       222.2500 345.0000 -100.2500 Du        
   1474 ****       222.2500 345.0000 -100.0000 Du        
   1475 ****       222.2500 345.0000 -99.7500 Du        
   1476 ****       222.2500 345.0000 -99.5000 Du        
   1477 ****       222.2500 345.0000 -99.2500 Du        
   1478 ****       222.2500 345.0000 -99.0000 Du        
   1479 ****       222.2500 345.0000 -98.7500 Du        
   1480 ****       222.2500 345.2500 -101.0000 Du        
   1481 ****       222.2500 345.2500 -100.7500 Du        
   1482 ****       222.2500 345.2500 -100.5000 Du        
   1483 ****       222.2500 345.2500 -100.2500 Du        
   1484 ****       222.2500 345.2500 -100.0000 Du        
   1485 ****       222.2500 345.2500 -99.7500 Du        
   1486 ****       222.2500 345.2500 -99.5000 Du        
   1487 ****       222.2500 345.2500 -99.2500 Du        
   1488 ****       222.2500 345.2500 -99.0000 Du        
   1489 ****       222.2500 345.5000 -101.2500 Du        
   1490 ****       222.2500 345.5000 -101.0000 Du        
   1491 ****       222.2500 345.5000 -100.7500 Du        
   1492 ****       222.2500 345.5000 -100.5000 Du        
   1493 ****       222.2500 345.5000 -100.2500 Du        
   1494 ****       222.2500 345.5000 -100.0000 Du        
   1495 ****       222.2500 345.5000 -99.7500 Du        
   1496 ****       222.2500 345.5000 -99.5000 Du        
   1497 ****       222.2500 345.7500 -101.2500 Du        
   1498 ****       222.2500 345.7500 -101.0000 Du        
   1499 ****       222.2500 345.7500 -100.7500 Du        
   1500 ****       222.2500 345.7500 -100.5000 Du        
   1501 ****       222.2500 345.7500 -100.2500 Du        
   1502 ****       222.2500 345.7500 -100.0000 Du        
   1503 ****       222.2500 345.7500 -99.7500 Du        
   1504 ****       222.2500 346.0000 -101.2500 Du        
   1505 ****       222.2500 346.0000 -101.0000 Du        
   1506 ****       222.2500 346.0000 -100.7500 Du        
   1507 ****       222.2500 346.0000 -100.5000 Du        
   1508 ****       222.2500 346.0000 -100.2500 Du        
   1509 ****       222.2500 346.0000 -100.0000 Du        
   1510 ****       222.2500 346.0000 -99.7500 Du        
   1511 ****       222.2500 346.2500 -101.2500 Du        
   1512 ****       222.2500 346.2500 -101.0000 Du        
   1513 ****       222.2500 346.2500 -100.7500 Du        
   1514 ****       222.2500 346.2500 -100.5000 Du        
   1515 ****       222.2500 346.2500 -100.2500 Du        
   1516 ****       222.2500 346.2500 -100.0000 Du        
   1517 ****       222.2500 346.2500 -99.7500 Du        
   1518 ****       222.2500 346.5000 -101.5000 Du        
   1519 ****       222.2500 346.5000 -101.2500 Du        
   1520 ****       222.2500 346.5000 -101.0000 Du        
   1521 ****       222.2500 346.5000 -100.7500 Du        
   1522 ****       222.2500 346.5000 -100.5000 Du        
   1523 ****       222.2500 346.5000 -100.2500 Du        
   1524 ****       222.2500 346.5000 -100.0000 Du        
   1525 ****       222.2500 346.7500 -101.5000 Du        
   1526 ****       222.2500 346.7500 -101.2500 Du        
   1527 ****       222.2500 346.7500 -101.0000 Du        
   1528 ****       222.2500 346.7500 -100.7500 Du        
   1529 ****       222.2500 346.7500 -100.5000 Du        
   1530 ****       222.2500 346.7500 -100.2500 Du        
   1531 ****       222.2500 346.7500 -100.0000 Du        
   1532 ****       222.2500 347.0000 -101.7500 Du        
   1533 ****       222.2500 347.0000 -101.5000 Du        
   1534 ****       222.2500 347.0000 -101.2500 Du        
   1535 ****       222.2500 347.0000 -101.0000 Du        
   1536 ****       222.2500 347.0000 -100.7500 Du        
   1537 ****       222.2500 347.0000 -100.5000 Du        
   1538 ****       222.2500 347.0000 -100.2500 Du        
   1539 ****       222.2500 347.2500 -101.7500 Du        
   1540 ****       222.2500 347.2500 -101.5000 Du        
   1541 ****       222.2500 347.2500 -101.2500 Du        
   1542 ****       222.2500 347.2500 -101.0000 Du        
   1543 ****       222.2500 347.2500 -100.7500 Du        
   1544 ****       222.2500 347.2500 -100.5000 Du        
   1545 ****       222.2500 347.2500 -100.2500 Du        
   1546 ****       222.2500 347.5000 -101.7500 Du        
   1547 ****       222.2500 347.5000 -101.5000 Du        
   1548 ****       222.2500 347.5000 -101.2500 Du        
   1549 ****       222.2500 347.5000 -101.0000 Du        
   1550 ****       222.2500 347.5000 -100.7500 Du        
   1551 ****       222.2500 347.5000 -100.5000 Du        
   1552 ****       222.2500 347.5000 -100.2500 Du        
   1553 ****       222.2500 347.7500 -101.7500 Du        
   1554 ****       222.2500 347.7500 -101.5000 Du        
   1555 ****       222.2500 347.7500 -101.2500 Du        
   1556 ****       222.2500 347.7500 -101.0000 Du        
   1557 ****       222.2500 347.7500 -100.7500 Du        
   1558 ****       222.2500 347.7500 -100.5000 Du        
   1559 ****       222.2500 347.7500 -100.2500 Du        
   1560 ****       222.2500 348.0000 -102.0000 Du        
   1561 ****       222.2500 348.0000 -101.7500 Du        
   1562 ****       222.2500 348.0000 -101.5000 Du        
   1563 ****       222.2500 348.0000 -101.2500 Du        
   1564 ****       222.2500 348.0000 -101.0000 Du        
   1565 ****       222.2500 348.0000 -100.7500 Du        
   1566 ****       222.2500 348.0000 -100.5000 Du        
   1567 ****       222.2500 348.0000 -100.2500 Du        
   1568 ****       222.2500 348.2500 -102.0000 Du        
   1569 ****       222.2500 348.2500 -101.7500 Du        
   1570 ****       222.2500 348.2500 -101.5000 Du        
   1571 ****       222.2500 348.2500 -101.2500 Du        
   1572 ****       222.2500 348.2500 -101.0000 Du        
   1573 ****       222.2500 348.2500 -100.7500 Du        
   1574 ****       222.2500 348.2500 -100.5000 Du        
   1575 ****       222.2500 348.2500 -100.2500 Du        
   1576 ****       222.2500 348.5000 -101.7500 Du        
   1577 ****       222.2500 348.5000 -101.5000 Du        
   1578 ****       222.2500 348.5000 -101.2500 Du        
   1579 ****       222.2500 348.5000 -101.0000 Du        
   1580 ****       222.2500 348.5000 -100.7500 Du        
   1581 ****       222.2500 348.5000 -100.5000 Du        
   1582 ****       222.2500 348.5000 -100.2500 Du        
   1583 ****       222.2500 348.7500 -101.2500 Du        
   1584 ****       222.2500 348.7500 -101.0000 Du        
   1585 ****       222.2500 348.7500 -100.7500 Du        
   1586 ****       222.2500 348.7500 -100.5000 Du        
   1587 ****       222.2500 348.7500 -100.2500 Du        
   1588 ****       222.5000 341.5000 -100.5000 Du        
   1589 ****       222.5000 341.5000 -100.2500 Du        
   1590 ****       222.5000 341.5000 -100.0000 Du        
   1591 ****       222.5000 341.7500 -100.7500 Du        
   1592 ****       222.5000 341.7500 -100.5000 Du        
   1593 ****       222.5000 341.7500 -100.2500 Du        
   1594 ****       222.5000 341.7500 -100.0000 Du        
   1595 ****       222.5000 341.7500 -99.7500 Du        
   1596 ****       222.5000 341.7500 -99.5000 Du        
   1597 ****       222.5000 342.0000 -108.0000 Du        
   1598 ****       222.5000 342.0000 -107.7500 Du        
   1599 ****       222.5000 342.0000 -107.5000 Du        
   1600 ****       222.5000 342.0000 -100.7500 Du        
   1601 ****       222.5000 342.0000 -100.5000 Du        
   1602 ****       222.5000 342.0000 -100.2500 Du        
   1603 ****       222.5000 342.0000 -100.0000 Du        
   1604 ****       222.5000 342.0000 -99.7500 Du        
   1605 ****       222.5000 342.0000 -99.5000 Du        
   1606 ****       222.5000 342.0000 -99.2500 Du        
   1607 ****       222.5000 342.2500 -108.2500 Du        
   1608 ****       222.5000 342.2500 -108.0000 Du        
   1609 ****       222.5000 342.2500 -107.7500 Du        
   1610 ****       222.5000 342.2500 -100.7500 Du        
   1611 ****       222.5000 342.2500 -100.5000 Du        
   1612 ****       222.5000 342.2500 -100.2500 Du        
   1613 ****       222.5000 342.2500 -100.0000 Du        
   1614 ****       222.5000 342.2500 -99.7500 Du        
   1615 ****       222.5000 342.2500 -99.5000 Du        
   1616 ****       222.5000 342.2500 -99.2500 Du        
   1617 ****       222.5000 342.2500 -99.0000 Du        
   1618 ****       222.5000 342.2500 -98.7500 Du        
   1619 ****       222.5000 342.5000 -108.7500 Du        
   1620 ****       222.5000 342.5000 -108.5000 Du        
   1621 ****       222.5000 342.5000 -108.2500 Du        
   1622 ****       222.5000 342.5000 -108.0000 Du        
   1623 ****       222.5000 342.5000 -107.7500 Du        
   1624 ****       222.5000 342.5000 -100.7500 Du        
   1625 ****       222.5000 342.5000 -100.5000 Du        
   1626 ****       222.5000 342.5000 -100.2500 Du        
   1627 ****       222.5000 342.5000 -100.0000 Du        
   1628 ****       222.5000 342.5000 -99.7500 Du        
   1629 ****       222.5000 342.5000 -99.5000 Du        
   1630 ****       222.5000 342.5000 -99.2500 Du        
   1631 ****       222.5000 342.5000 -99.0000 Du        
   1632 ****       222.5000 342.5000 -98.7500 Du        
   1633 ****       222.5000 342.5000 -98.5000 Du        
   1634 ****       222.5000 342.7500 -109.5000 Du        
   1635 ****       222.5000 342.7500 -109.2500 Du        
   1636 ****       222.5000 342.7500 -109.0000 Du        
   1637 ****       222.5000 342.7500 -108.7500 Du        
   1638 ****       222.5000 342.7500 -108.5000 Du        
   1639 ****       222.5000 342.7500 -108.2500 Du        
   1640 ****       222.5000 342.7500 -108.0000 Du        
   1641 ****       222.5000 342.7500 -100.7500 Du        
   1642 ****       222.5000 342.7500 -100.5000 Du        
   1643 ****       222.5000 342.7500 -100.2500 Du        
   1644 ****       222.5000 342.7500 -100.0000 Du        
   1645 ****       222.5000 342.7500 -99.7500 Du        
   1646 ****       222.5000 342.7500 -99.5000 Du        
   1647 ****       222.5000 342.7500 -99.2500 Du        
   1648 ****       222.5000 342.7500 -99.0000 Du        
   1649 ****       222.5000 342.7500 -98.7500 Du        
   1650 ****       222.5000 342.7500 -98.5000 Du        
   1651 ****       222.5000 342.7500 -98.2500 Du        
   1652 ****       222.5000 343.0000 -113.2500 Du        
   1653 ****       222.5000 343.0000 -113.0000 Du        
   1654 ****       222.5000 343.0000 -112.7500 Du        
   1655 ****       222.5000 343.0000 -112.5000 Du        
   1656 ****       222.5000 343.0000 -110.7500 Du        
   1657 ****       222.5000 343.0000 -110.5000 Du        
   1658 ****       222.5000 343.0000 -110.2500 Du        
   1659 ****       222.5000 343.0000 -110.0000 Du        
   1660 ****       222.5000 343.0000 -109.7500 Du        
   1661 ****       222.5000 343.0000 -109.5000 Du        
   1662 ****       222.5000 343.0000 -109.2500 Du        
   1663 ****       222.5000 343.0000 -109.0000 Du        
   1664 ****       222.5000 343.0000 -108.7500 Du        
   1665 ****       222.5000 343.0000 -108.5000 Du        
   1666 ****       222.5000 343.0000 -108.2500 Du        
   1667 ****       222.5000 343.0000 -108.0000 Du        
   1668 ****       222.5000 343.0000 -100.7500 Du        
   1669 ****       222.5000 343.0000 -100.5000 Du        
   1670 ****       222.5000 343.0000 -100.2500 Du        
   1671 ****       222.5000 343.0000 -100.0000 Du        
   1672 ****       222.5000 343.0000 -99.7500 Du        
   1673 ****       222.5000 343.0000 -99.5000 Du        
   1674 ****       222.5000 343.0000 -99.2500 Du        
   1675 ****       222.5000 343.0000 -99.0000 Du        
   1676 ****       222.5000 343.0000 -98.7500 Du        
   1677 ****       222.5000 343.0000 -98.5000 Du        
   1678 ****       222.5000 343.0000 -98.2500 Du        
   1679 ****       222.5000 343.2500 -114.0000 Du        
   1680 ****       222.5000 343.2500 -113.7500 Du        
   1681 ****       222.5000 343.2500 -113.5000 Du        
   1682 ****       222.5000 343.2500 -113.2500 Du        
   1683 ****       222.5000 343.2500 -113.0000 Du        
   1684 ****       222.5000 343.2500 -112.7500 Du        
   1685 ****       222.5000 343.2500 -112.5000 Du        
   1686 ****       222.5000 343.2500 -112.2500 Du        
   1687 ****       222.5000 343.2500 -112.0000 Du        
   1688 ****       222.5000 343.2500 -111.7500 Du        
   1689 ****       222.5000 343.2500 -111.5000 Du        
   1690 ****       222.5000 343.2500 -111.2500 Du        
   1691 ****       222.5000 343.2500 -111.0000 Du        
   1692 ****       222.5000 343.2500 -110.7500 Du        
   1693 ****       222.5000 343.2500 -110.5000 Du        
   1694 ****       222.5000 343.2500 -110.2500 Du        
   1695 ****       222.5000 343.2500 -110.0000 Du        
   1696 ****       222.5000 343.2500 -109.7500 Du        
   1697 ****       222.5000 343.2500 -109.5000 Du        
   1698 ****       222.5000 343.2500 -109.2500 Du        
   1699 ****       222.5000 343.2500 -109.0000 Du        
   1700 ****       222.5000 343.2500 -108.7500 Du        
   1701 ****       222.5000 343.2500 -108.5000 Du        
   1702 ****       222.5000 343.2500 -108.2500 Du        
   1703 ****       222.5000 343.2500 -100.7500 Du        
   1704 ****       222.5000 343.2500 -100.5000 Du        
   1705 ****       222.5000 343.2500 -100.2500 Du        
   1706 ****       222.5000 343.2500 -100.0000 Du        
   1707 ****       222.5000 343.2500 -99.7500 Du        
   1708 ****       222.5000 343.2500 -99.5000 Du        
   1709 ****       222.5000 343.2500 -99.2500 Du        
   1710 ****       222.5000 343.2500 -99.0000 Du        
   1711 ****       222.5000 343.2500 -98.7500 Du        
   1712 ****       222.5000 343.2500 -98.5000 Du        
   1713 ****       222.5000 343.2500 -98.2500 Du        
   1714 ****       222.5000 343.5000 -114.2500 Du        
   1715 ****       222.5000 343.5000 -114.0000 Du        
   1716 ****       222.5000 343.5000 -113.7500 Du        
   1717 ****       222.5000 343.5000 -113.5000 Du        
   1718 ****       222.5000 343.5000 -113.2500 Du        
   1719 ****       222.5000 343.5000 -113.0000 Du        
   1720 ****       222.5000 343.5000 -112.7500 Du        
   1721 ****       222.5000 343.5000 -112.5000 Du        
   1722 ****       222.5000 343.5000 -112.2500 Du        
   1723 ****       222.5000 343.5000 -112.0000 Du        
   1724 ****       222.5000 343.5000 -111.7500 Du        
   1725 ****       222.5000 343.5000 -111.5000 Du        
   1726 ****       222.5000 343.5000 -111.2500 Du        
   1727 ****       222.5000 343.5000 -111.0000 Du        
   1728 ****       222.5000 343.5000 -110.7500 Du        
   1729 ****       222.5000 343.5000 -110.5000 Du        
   1730 ****       222.5000 343.5000 -110.2500 Du        
   1731 ****       222.5000 343.5000 -110.0000 Du        
   1732 ****       222.5000 343.5000 -109.7500 Du        
   1733 ****       222.5000 343.5000 -109.5000 Du        
   1734 ****       222.5000 343.5000 -109.2500 Du        
   1735 ****       222.5000 343.5000 -109.0000 Du        
   1736 ****       222.5000 343.5000 -108.7500 Du        
   1737 ****       222.5000 343.5000 -108.5000 Du        
   1738 ****       222.5000 343.5000 -100.7500 Du        
   1739 ****       222.5000 343.5000 -100.5000 Du        
   1740 ****       222.5000 343.5000 -100.2500 Du        
   1741 ****       222.5000 343.5000 -100.0000 Du        
   1742 ****       222.5000 343.5000 -99.7500 Du        
   1743 ****       222.5000 343.5000 -99.5000 Du        
   1744 ****       222.5000 343.5000 -99.2500 Du        
   1745 ****       222.5000 343.5000 -99.0000 Du        
   1746 ****       222.5000 343.5000 -98.7500 Du        
   1747 ****       222.5000 343.5000 -98.5000 Du        
   1748 ****       222.5000 343.5000 -98.2500 Du        
   1749 ****       222.5000 343.7500 -114.5000 Du        
   1750 ****       222.5000 343.7500 -114.2500 Du        
   1751 ****       222.5000 343.7500 -114.0000 Du        
   1752 ****       222.5000 343.7500 -113.7500 Du        
   1753 ****       222.5000 343.7500 -113.5000 Du        
   1754 ****       222.5000 343.7500 -113.2500 Du        
   1755 ****       222.5000 343.7500 -113.0000 Du        
   1756 ****       222.5000 343.7500 -112.7500 Du        
   1757 ****       222.5000 343.7500 -112.5000 Du        
   1758 ****       222.5000 343.7500 -112.2500 Du        
   1759 ****       222.5000 343.7500 -112.0000 Du        
   1760 ****       222.5000 343.7500 -111.7500 Du        
   1761 ****       222.5000 343.7500 -111.5000 Du        
   1762 ****       222.5000 343.7500 -111.2500 Du        
   1763 ****       222.5000 343.7500 -111.0000 Du        
   1764 ****       222.5000 343.7500 -110.7500 Du        
   1765 ****       222.5000 343.7500 -110.5000 Du        
   1766 ****       222.5000 343.7500 -110.2500 Du        
   1767 ****       222.5000 343.7500 -110.0000 Du        
   1768 ****       222.5000 343.7500 -109.7500 Du        
   1769 ****       222.5000 343.7500 -109.5000 Du        
   1770 ****       222.5000 343.7500 -109.2500 Du        
   1771 ****       222.5000 343.7500 -109.0000 Du        
   1772 ****       222.5000 343.7500 -108.7500 Du        
   1773 ****       222.5000 343.7500 -100.7500 Du        
   1774 ****       222.5000 343.7500 -100.5000 Du        
   1775 ****       222.5000 343.7500 -100.2500 Du        
   1776 ****       222.5000 343.7500 -100.0000 Du        
   1777 ****       222.5000 343.7500 -99.7500 Du        
   1778 ****       222.5000 343.7500 -99.5000 Du        
   1779 ****       222.5000 343.7500 -99.2500 Du        
   1780 ****       222.5000 343.7500 -99.0000 Du        
   1781 ****       222.5000 343.7500 -98.7500 Du        
   1782 ****       222.5000 343.7500 -98.5000 Du        
   1783 ****       222.5000 344.0000 -114.5000 Du        
   1784 ****       222.5000 344.0000 -114.2500 Du        
   1785 ****       222.5000 344.0000 -114.0000 Du        
   1786 ****       222.5000 344.0000 -113.7500 Du        
   1787 ****       222.5000 344.0000 -113.5000 Du        
   1788 ****       222.5000 344.0000 -113.2500 Du        
   1789 ****       222.5000 344.0000 -113.0000 Du        
   1790 ****       222.5000 344.0000 -112.7500 Du        
   1791 ****       222.5000 344.0000 -112.5000 Du        
   1792 ****       222.5000 344.0000 -112.2500 Du        
   1793 ****       222.5000 344.0000 -112.0000 Du        
   1794 ****       222.5000 344.0000 -111.7500 Du        
   1795 ****       222.5000 344.0000 -111.5000 Du        
   1796 ****       222.5000 344.0000 -111.2500 Du        
   1797 ****       222.5000 344.0000 -111.0000 Du        
   1798 ****       222.5000 344.0000 -110.7500 Du        
   1799 ****       222.5000 344.0000 -110.5000 Du        
   1800 ****       222.5000 344.0000 -110.2500 Du        
   1801 ****       222.5000 344.0000 -110.0000 Du        
   1802 ****       222.5000 344.0000 -109.7500 Du        
   1803 ****       222.5000 344.0000 -109.5000 Du        
   1804 ****       222.5000 344.0000 -100.7500 Du        
   1805 ****       222.5000 344.0000 -100.5000 Du        
   1806 ****       222.5000 344.0000 -100.2500 Du        
   1807 ****       222.5000 344.0000 -100.0000 Du        
   1808 ****       222.5000 344.0000 -99.7500 Du        
   1809 ****       222.5000 344.0000 -99.5000 Du        
   1810 ****       222.5000 344.0000 -99.2500 Du        
   1811 ****       222.5000 344.0000 -99.0000 Du        
   1812 ****       222.5000 344.0000 -98.7500 Du        
   1813 ****       222.5000 344.0000 -98.5000 Du        
   1814 ****       222.5000 344.2500 -114.5000 Du        
   1815 ****       222.5000 344.2500 -114.2500 Du        
   1816 ****       222.5000 344.2500 -114.0000 Du        
   1817 ****       222.5000 344.2500 -113.7500 Du        
   1818 ****       222.5000 344.2500 -113.5000 Du        
   1819 ****       222.5000 344.2500 -113.2500 Du        
   1820 ****       222.5000 344.2500 -113.0000 Du        
   1821 ****       222.5000 344.2500 -112.7500 Du        
   1822 ****       222.5000 344.2500 -112.5000 Du        
   1823 ****       222.5000 344.2500 -112.2500 Du        
   1824 ****       222.5000 344.2500 -112.0000 Du        
   1825 ****       222.5000 344.2500 -111.7500 Du        
   1826 ****       222.5000 344.2500 -111.5000 Du        
   1827 ****       222.5000 344.2500 -111.2500 Du        
   1828 ****       222.5000 344.2500 -111.0000 Du        
   1829 ****       222.5000 344.2500 -110.7500 Du        
   1830 ****       222.5000 344.2500 -110.5000 Du        
   1831 ****       222.5000 344.2500 -110.2500 Du        
   1832 ****       222.5000 344.2500 -101.0000 Du        
   1833 ****       222.5000 344.2500 -100.7500 Du        
   1834 ****       222.5000 344.2500 -100.5000 Du        
   1835 ****       222.5000 344.2500 -100.2500 Du        
   1836 ****       222.5000 344.2500 -100.0000 Du        
   1837 ****       222.5000 344.2500 -99.7500 Du        
   1838 ****       222.5000 344.2500 -99.5000 Du        
   1839 ****       222.5000 344.2500 -99.2500 Du        
   1840 ****       222.5000 344.2500 -99.0000 Du        
   1841 ****       222.5000 344.2500 -98.7500 Du        
   1842 ****       222.5000 344.2500 -98.5000 Du        
   1843 ****       222.5000 344.5000 -114.5000 Du        
   1844 ****       222.5000 344.5000 -113.0000 Du        
   1845 ****       222.5000 344.5000 -112.7500 Du        
   1846 ****       222.5000 344.5000 -112.5000 Du        
   1847 ****       222.5000 344.5000 -112.2500 Du        
   1848 ****       222.5000 344.5000 -112.0000 Du        
   1849 ****       222.5000 344.5000 -111.7500 Du        
   1850 ****       222.5000 344.5000 -111.5000 Du        
   1851 ****       222.5000 344.5000 -111.2500 Du        
   1852 ****       222.5000 344.5000 -111.0000 Du        
   1853 ****       222.5000 344.5000 -110.7500 Du        
   1854 ****       222.5000 344.5000 -101.0000 Du        
   1855 ****       222.5000 344.5000 -100.7500 Du        
   1856 ****       222.5000 344.5000 -100.5000 Du        
   1857 ****       222.5000 344.5000 -100.2500 Du        
   1858 ****       222.5000 344.5000 -100.0000 Du        
   1859 ****       222.5000 344.5000 -99.7500 Du        
   1860 ****       222.5000 344.5000 -99.5000 Du        
   1861 ****       222.5000 344.5000 -99.2500 Du        
   1862 ****       222.5000 344.5000 -99.0000 Du        
   1863 ****       222.5000 344.5000 -98.7500 Du        
   1864 ****       222.5000 344.7500 -112.5000 Du        
   1865 ****       222.5000 344.7500 -112.2500 Du        
   1866 ****       222.5000 344.7500 -112.0000 Du        
   1867 ****       222.5000 344.7500 -111.7500 Du        
   1868 ****       222.5000 344.7500 -111.5000 Du        
   1869 ****       222.5000 344.7500 -101.0000 Du        
   1870 ****       222.5000 344.7500 -100.7500 Du        
   1871 ****       222.5000 344.7500 -100.5000 Du        
   1872 ****       222.5000 344.7500 -100.2500 Du        
   1873 ****       222.5000 344.7500 -100.0000 Du        
   1874 ****       222.5000 344.7500 -99.7500 Du        
   1875 ****       222.5000 344.7500 -99.5000 Du        
   1876 ****       222.5000 344.7500 -99.2500 Du        
   1877 ****       222.5000 344.7500 -99.0000 Du        
   1878 ****       222.5000 344.7500 -98.7500 Du        
   1879 ****       222.5000 345.0000 -101.0000 Du        
   1880 ****       222.5000 345.0000 -100.7500 Du        
   1881 ****       222.5000 345.0000 -100.5000 Du        
   1882 ****       222.5000 345.0000 -100.2500 Du        
   1883 ****       222.5000 345.0000 -100.0000 Du        
   1884 ****       222.5000 345.0000 -99.7500 Du        
   1885 ****       222.5000 345.0000 -99.5000 Du        
   1886 ****       222.5000 345.0000 -99.2500 Du        
   1887 ****       222.5000 345.0000 -99.0000 Du        
   1888 ****       222.5000 345.2500 -101.0000 Du        
   1889 ****       222.5000 345.2500 -100.7500 Du        
   1890 ****       222.5000 345.2500 -100.5000 Du        
   1891 ****       222.5000 345.2500 -100.2500 Du        
   1892 ****       222.5000 345.2500 -100.0000 Du        
   1893 ****       222.5000 345.2500 -99.7500 Du        
   1894 ****       222.5000 345.2500 -99.5000 Du        
   1895 ****       222.5000 345.2500 -99.2500 Du        
   1896 ****       222.5000 345.5000 -101.2500 Du        
   1897 ****       222.5000 345.5000 -101.0000 Du        
   1898 ****       222.5000 345.5000 -100.7500 Du        
   1899 ****       222.5000 345.5000 -100.5000 Du        
   1900 ****       222.5000 345.5000 -100.2500 Du        
   1901 ****       222.5000 345.5000 -100.0000 Du        
   1902 ****       222.5000 345.5000 -99.7500 Du        
   1903 ****       222.5000 345.5000 -99.5000 Du        
   1904 ****       222.5000 345.7500 -101.2500 Du        
   1905 ****       222.5000 345.7500 -101.0000 Du        
   1906 ****       222.5000 345.7500 -100.7500 Du        
   1907 ****       222.5000 345.7500 -100.5000 Du        
   1908 ****       222.5000 345.7500 -100.2500 Du        
   1909 ****       222.5000 345.7500 -100.0000 Du        
   1910 ****       222.5000 345.7500 -99.7500 Du        
   1911 ****       222.5000 346.0000 -101.2500 Du        
   1912 ****       222.5000 346.0000 -101.0000 Du        
   1913 ****       222.5000 346.0000 -100.7500 Du        
   1914 ****       222.5000 346.0000 -100.5000 Du        
   1915 ****       222.5000 346.0000 -100.2500 Du        
   1916 ****       222.5000 346.0000 -100.0000 Du        
   1917 ****       222.5000 346.0000 -99.7500 Du        
   1918 ****       222.5000 346.2500 -101.2500 Du        
   1919 ****       222.5000 346.2500 -101.0000 Du        
   1920 ****       222.5000 346.2500 -100.7500 Du        
   1921 ****       222.5000 346.2500 -100.5000 Du        
   1922 ****       222.5000 346.2500 -100.2500 Du        
   1923 ****       222.5000 346.2500 -100.0000 Du        
   1924 ****       222.5000 346.5000 -101.5000 Du        
   1925 ****       222.5000 346.5000 -101.2500 Du        
   1926 ****       222.5000 346.5000 -101.0000 Du        
   1927 ****       222.5000 346.5000 -100.7500 Du        
   1928 ****       222.5000 346.5000 -100.5000 Du        
   1929 ****       222.5000 346.5000 -100.2500 Du        
   1930 ****       222.5000 346.7500 -101.5000 Du        
   1931 ****       222.5000 346.7500 -101.2500 Du        
   1932 ****       222.5000 346.7500 -101.0000 Du        
   1933 ****       222.5000 346.7500 -100.7500 Du        
   1934 ****       222.5000 346.7500 -100.5000 Du        
   1935 ****       222.5000 346.7500 -100.2500 Du        
   1936 ****       222.5000 347.0000 -101.5000 Du        
   1937 ****       222.5000 347.0000 -101.2500 Du        
   1938 ****       222.5000 347.0000 -101.0000 Du        
   1939 ****       222.5000 347.0000 -100.7500 Du        
   1940 ****       222.5000 347.0000 -100.5000 Du        
   1941 ****       222.5000 347.0000 -100.2500 Du        
   1942 ****       222.5000 347.2500 -101.5000 Du        
   1943 ****       222.5000 347.2500 -101.2500 Du        
   1944 ****       222.5000 347.2500 -101.0000 Du        
   1945 ****       222.5000 347.2500 -100.7500 Du        
   1946 ****       222.5000 347.2500 -100.5000 Du        
   1947 ****       222.5000 347.5000 -101.7500 Du        
   1948 ****       222.5000 347.5000 -101.5000 Du        
   1949 ****       222.5000 347.5000 -101.2500 Du        
   1950 ****       222.5000 347.5000 -101.0000 Du        
   1951 ****       222.5000 347.5000 -100.7500 Du        
   1952 ****       222.5000 347.5000 -100.5000 Du        
   1953 ****       222.5000 347.7500 -101.7500 Du        
   1954 ****       222.5000 347.7500 -101.5000 Du        
   1955 ****       222.5000 347.7500 -101.2500 Du        
   1956 ****       222.5000 347.7500 -101.0000 Du        
   1957 ****       222.5000 347.7500 -100.7500 Du        
   1958 ****       222.5000 347.7500 -100.5000 Du        
   1959 ****       222.5000 348.0000 -101.7500 Du        
   1960 ****       222.5000 348.0000 -101.5000 Du        
   1961 ****       222.5000 348.0000 -101.2500 Du        
   1962 ****       222.5000 348.0000 -101.0000 Du        
   1963 ****       222.5000 348.0000 -100.7500 Du        
   1964 ****       222.5000 348.0000 -100.5000 Du        
   1965 ****       222.5000 348.0000 -100.2500 Du        
   1966 ****       222.5000 348.2500 -101.7500 Du        
   1967 ****       222.5000 348.2500 -101.5000 Du        
   1968 ****       222.5000 348.2500 -101.2500 Du        
   1969 ****       222.5000 348.2500 -101.0000 Du        
   1970 ****       222.5000 348.2500 -100.7500 Du        
   1971 ****       222.5000 348.2500 -100.5000 Du        
   1972 ****       222.5000 348.2500 -100.2500 Du        
   1973 ****       222.5000 348.5000 -101.7500 Du        
   1974 ****       222.5000 348.5000 -101.5000 Du        
   1975 ****       222.5000 348.5000 -101.2500 Du        
   1976 ****       222.5000 348.5000 -101.0000 Du        
   1977 ****       222.5000 348.5000 -100.7500 Du        
   1978 ****       222.5000 348.5000 -100.5000 Du        
   1979 ****       222.5000 348.5000 -100.2500 Du        
   1980 ****       222.5000 348.7500 -101.0000 Du        
   1981 ****       222.5000 348.7500 -100.7500 Du        
   1982 ****       222.5000 348.7500 -100.5000 Du        
   1983 ****       222.5000 348.7500 -100.2500 Du        
   1984 ****       222.7500 341.2500 -107.0000 Du        
   1985 ****       222.7500 341.2500 -106.7500 Du        
   1986 ****       222.7500 341.5000 -107.7500 Du        
   1987 ****       222.7500 341.5000 -107.5000 Du        
   1988 ****       222.7500 341.5000 -107.2500 Du        
   1989 ****       222.7500 341.5000 -107.0000 Du        
   1990 ****       222.7500 341.5000 -106.7500 Du        
   1991 ****       222.7500 341.5000 -100.7500 Du        
   1992 ****       222.7500 341.5000 -100.5000 Du        
   1993 ****       222.7500 341.5000 -100.2500 Du        
   1994 ****       222.7500 341.5000 -100.0000 Du        
   1995 ****       222.7500 341.7500 -108.0000 Du        
   1996 ****       222.7500 341.7500 -107.7500 Du        
   1997 ****       222.7500 341.7500 -107.5000 Du        
   1998 ****       222.7500 341.7500 -107.2500 Du        
   1999 ****       222.7500 341.7500 -107.0000 Du        
   2000 ****       222.7500 341.7500 -106.7500 Du        
   2001 ****       222.7500 341.7500 -100.7500 Du        
   2002 ****       222.7500 341.7500 -100.5000 Du        
   2003 ****       222.7500 341.7500 -100.2500 Du        
   2004 ****       222.7500 341.7500 -100.0000 Du        
   2005 ****       222.7500 341.7500 -99.7500 Du        
   2006 ****       222.7500 342.0000 -108.0000 Du        
   2007 ****       222.7500 342.0000 -107.7500 Du        
   2008 ****       222.7500 342.0000 -107.5000 Du        
   2009 ****       222.7500 342.0000 -107.2500 Du        
   2010 ****       222.7500 342.0000 -107.0000 Du        
   2011 ****       222.7500 342.0000 -100.7500 Du        
   2012 ****       222.7500 342.0000 -100.5000 Du        
   2013 ****       222.7500 342.0000 -100.2500 Du        
   2014 ****       222.7500 342.0000 -100.0000 Du        
   2015 ****       222.7500 342.0000 -99.7500 Du        
   2016 ****       222.7500 342.0000 -99.5000 Du        
   2017 ****       222.7500 342.0000 -99.2500 Du        
   2018 ****       222.7500 342.2500 -108.2500 Du        
   2019 ****       222.7500 342.2500 -108.0000 Du        
   2020 ****       222.7500 342.2500 -107.7500 Du        
   2021 ****       222.7500 342.2500 -107.5000 Du        
   2022 ****       222.7500 342.2500 -107.2500 Du        
   2023 ****       222.7500 342.2500 -100.7500 Du        
   2024 ****       222.7500 342.2500 -100.5000 Du        
   2025 ****       222.7500 342.2500 -100.2500 Du        
   2026 ****       222.7500 342.2500 -100.0000 Du        
   2027 ****       222.7500 342.2500 -99.7500 Du        
   2028 ****       222.7500 342.2500 -99.5000 Du        
   2029 ****       222.7500 342.2500 -99.2500 Du        
   2030 ****       222.7500 342.2500 -99.0000 Du        
   2031 ****       222.7500 342.5000 -108.5000 Du        
   2032 ****       222.7500 342.5000 -108.2500 Du        
   2033 ****       222.7500 342.5000 -108.0000 Du        
   2034 ****       222.7500 342.5000 -107.7500 Du        
   2035 ****       222.7500 342.5000 -100.7500 Du        
   2036 ****       222.7500 342.5000 -100.5000 Du        
   2037 ****       222.7500 342.5000 -100.2500 Du        
   2038 ****       222.7500 342.5000 -100.0000 Du        
   2039 ****       222.7500 342.5000 -99.7500 Du        
   2040 ****       222.7500 342.5000 -99.5000 Du        
   2041 ****       222.7500 342.5000 -99.2500 Du        
   2042 ****       222.7500 342.5000 -99.0000 Du        
   2043 ****       222.7500 342.5000 -98.7500 Du        
   2044 ****       222.7500 342.7500 -108.5000 Du        
   2045 ****       222.7500 342.7500 -108.2500 Du        
   2046 ****       222.7500 342.7500 -108.0000 Du        
   2047 ****       222.7500 342.7500 -100.7500 Du        
   2048 ****       222.7500 342.7500 -100.5000 Du        
   2049 ****       222.7500 342.7500 -100.2500 Du        
   2050 ****       222.7500 342.7500 -100.0000 Du        
   2051 ****       222.7500 342.7500 -99.7500 Du        
   2052 ****       222.7500 342.7500 -99.5000 Du        
   2053 ****       222.7500 342.7500 -99.2500 Du        
   2054 ****       222.7500 342.7500 -99.0000 Du        
   2055 ****       222.7500 342.7500 -98.7500 Du        
   2056 ****       222.7500 342.7500 -98.5000 Du        
   2057 ****       222.7500 343.0000 -108.7500 Du        
   2058 ****       222.7500 343.0000 -108.5000 Du        
   2059 ****       222.7500 343.0000 -108.2500 Du        
   2060 ****       222.7500 343.0000 -100.5000 Du        
   2061 ****       222.7500 343.0000 -100.2500 Du        
   2062 ****       222.7500 343.0000 -100.0000 Du        
   2063 ****       222.7500 343.0000 -99.7500 Du        
   2064 ****       222.7500 343.0000 -99.5000 Du        
   2065 ****       222.7500 343.0000 -99.2500 Du        
   2066 ****       222.7500 343.0000 -99.0000 Du        
   2067 ****       222.7500 343.0000 -98.7500 Du        
   2068 ****       222.7500 343.0000 -98.5000 Du        
   2069 ****       222.7500 343.0000 -98.2500 Du        
   2070 ****       222.7500 343.2500 -113.7500 Du        
   2071 ****       222.7500 343.2500 -113.5000 Du        
   2072 ****       222.7500 343.2500 -113.2500 Du        
   2073 ****       222.7500 343.2500 -113.0000 Du        
   2074 ****       222.7500 343.2500 -112.7500 Du        
   2075 ****       222.7500 343.2500 -100.5000 Du        
   2076 ****       222.7500 343.2500 -100.2500 Du        
   2077 ****       222.7500 343.2500 -100.0000 Du        
   2078 ****       222.7500 343.2500 -99.7500 Du        
   2079 ****       222.7500 343.2500 -99.5000 Du        
   2080 ****       222.7500 343.2500 -99.2500 Du        
   2081 ****       222.7500 343.2500 -99.0000 Du        
   2082 ****       222.7500 343.2500 -98.7500 Du        
   2083 ****       222.7500 343.2500 -98.5000 Du        
   2084 ****       222.7500 343.2500 -98.2500 Du        
   2085 ****       222.7500 343.5000 -114.2500 Du        
   2086 ****       222.7500 343.5000 -114.0000 Du        
   2087 ****       222.7500 343.5000 -113.7500 Du        
   2088 ****       222.7500 343.5000 -113.5000 Du        
   2089 ****       222.7500 343.5000 -113.2500 Du        
   2090 ****       222.7500 343.5000 -113.0000 Du        
   2091 ****       222.7500 343.5000 -112.7500 Du        
   2092 ****       222.7500 343.5000 -112.5000 Du        
   2093 ****       222.7500 343.5000 -112.2500 Du        
   2094 ****       222.7500 343.5000 -112.0000 Du        
   2095 ****       222.7500 343.5000 -111.7500 Du        
   2096 ****       222.7500 343.5000 -111.2500 Du        
   2097 ****       222.7500 343.5000 -111.0000 Du        
   2098 ****       222.7500 343.5000 -110.7500 Du        
   2099 ****       222.7500 343.5000 -110.5000 Du        
   2100 ****       222.7500 343.5000 -110.2500 Du        
   2101 ****       222.7500 343.5000 -110.0000 Du        
   2102 ****       222.7500 343.5000 -100.5000 Du        
   2103 ****       222.7500 343.5000 -100.2500 Du        
   2104 ****       222.7500 343.5000 -100.0000 Du        
   2105 ****       222.7500 343.5000 -99.7500 Du        
   2106 ****       222.7500 343.5000 -99.5000 Du        
   2107 ****       222.7500 343.5000 -99.2500 Du        
   2108 ****       222.7500 343.5000 -99.0000 Du        
   2109 ****       222.7500 343.5000 -98.7500 Du        
   2110 ****       222.7500 343.5000 -98.5000 Du        
   2111 ****       222.7500 343.7500 -114.2500 Du        
   2112 ****       222.7500 343.7500 -114.0000 Du        
   2113 ****       222.7500 343.7500 -113.7500 Du        
   2114 ****       222.7500 343.7500 -113.5000 Du        
   2115 ****       222.7500 343.7500 -113.2500 Du        
   2116 ****       222.7500 343.7500 -113.0000 Du        
   2117 ****       222.7500 343.7500 -112.7500 Du        
   2118 ****       222.7500 343.7500 -112.5000 Du        
   2119 ****       222.7500 343.7500 -112.2500 Du        
   2120 ****       222.7500 343.7500 -112.0000 Du        
   2121 ****       222.7500 343.7500 -111.7500 Du        
   2122 ****       222.7500 343.7500 -111.5000 Du        
   2123 ****       222.7500 343.7500 -111.2500 Du        
   2124 ****       222.7500 343.7500 -111.0000 Du        
   2125 ****       222.7500 343.7500 -110.7500 Du        
   2126 ****       222.7500 343.7500 -110.5000 Du        
   2127 ****       222.7500 343.7500 -110.2500 Du        
   2128 ****       222.7500 343.7500 -110.0000 Du        
   2129 ****       222.7500 343.7500 -100.7500 Du        
   2130 ****       222.7500 343.7500 -100.5000 Du        
   2131 ****       222.7500 343.7500 -100.2500 Du        
   2132 ****       222.7500 343.7500 -100.0000 Du        
   2133 ****       222.7500 343.7500 -99.7500 Du        
   2134 ****       222.7500 343.7500 -99.5000 Du        
   2135 ****       222.7500 343.7500 -99.2500 Du        
   2136 ****       222.7500 343.7500 -99.0000 Du        
   2137 ****       222.7500 343.7500 -98.7500 Du        
   2138 ****       222.7500 343.7500 -98.5000 Du        
   2139 ****       222.7500 344.0000 -114.2500 Du        
   2140 ****       222.7500 344.0000 -114.0000 Du        
   2141 ****       222.7500 344.0000 -113.7500 Du        
   2142 ****       222.7500 344.0000 -113.5000 Du        
   2143 ****       222.7500 344.0000 -113.2500 Du        
   2144 ****       222.7500 344.0000 -113.0000 Du        
   2145 ****       222.7500 344.0000 -112.7500 Du        
   2146 ****       222.7500 344.0000 -112.5000 Du        
   2147 ****       222.7500 344.0000 -112.2500 Du        
   2148 ****       222.7500 344.0000 -112.0000 Du        
   2149 ****       222.7500 344.0000 -111.7500 Du        
   2150 ****       222.7500 344.0000 -111.5000 Du        
   2151 ****       222.7500 344.0000 -111.2500 Du        
   2152 ****       222.7500 344.0000 -111.0000 Du        
   2153 ****       222.7500 344.0000 -110.7500 Du        
   2154 ****       222.7500 344.0000 -110.5000 Du        
   2155 ****       222.7500 344.0000 -110.2500 Du        
   2156 ****       222.7500 344.0000 -100.7500 Du        
   2157 ****       222.7500 344.0000 -100.5000 Du        
   2158 ****       222.7500 344.0000 -100.2500 Du        
   2159 ****       222.7500 344.0000 -100.0000 Du        
   2160 ****       222.7500 344.0000 -99.7500 Du        
   2161 ****       222.7500 344.0000 -99.5000 Du        
   2162 ****       222.7500 344.0000 -99.2500 Du        
   2163 ****       222.7500 344.0000 -99.0000 Du        
   2164 ****       222.7500 344.0000 -98.7500 Du        
   2165 ****       222.7500 344.0000 -98.5000 Du        
   2166 ****       222.7500 344.2500 -114.5000 Du        
   2167 ****       222.7500 344.2500 -114.2500 Du        
   2168 ****       222.7500 344.2500 -114.0000 Du        
   2169 ****       222.7500 344.2500 -113.7500 Du        
   2170 ****       222.7500 344.2500 -113.5000 Du        
   2171 ****       222.7500 344.2500 -113.2500 Du        
   2172 ****       222.7500 344.2500 -113.0000 Du        
   2173 ****       222.7500 344.2500 -112.7500 Du        
   2174 ****       222.7500 344.2500 -112.5000 Du        
   2175 ****       222.7500 344.2500 -112.2500 Du        
   2176 ****       222.7500 344.2500 -112.0000 Du        
   2177 ****       222.7500 344.2500 -111.7500 Du        
   2178 ****       222.7500 344.2500 -111.5000 Du        
   2179 ****       222.7500 344.2500 -111.2500 Du        
   2180 ****       222.7500 344.2500 -111.0000 Du        
   2181 ****       222.7500 344.2500 -110.7500 Du        
   2182 ****       222.7500 344.2500 -100.7500 Du        
   2183 ****       222.7500 344.2500 -100.5000 Du        
   2184 ****       222.7500 344.2500 -100.2500 Du        
   2185 ****       222.7500 344.2500 -100.0000 Du        
   2186 ****       222.7500 344.2500 -99.7500 Du        
   2187 ****       222.7500 344.2500 -99.5000 Du        
   2188 ****       222.7500 344.2500 -99.2500 Du        
   2189 ****       222.7500 344.2500 -99.0000 Du        
   2190 ****       222.7500 344.2500 -98.7500 Du        
   2191 ****       222.7500 344.5000 -114.5000 Du        
   2192 ****       222.7500 344.5000 -114.2500 Du        
   2193 ****       222.7500 344.5000 -114.0000 Du        
   2194 ****       222.7500 344.5000 -113.7500 Du        
   2195 ****       222.7500 344.5000 -113.5000 Du        
   2196 ****       222.7500 344.5000 -113.2500 Du        
   2197 ****       222.7500 344.5000 -113.0000 Du        
   2198 ****       222.7500 344.5000 -112.7500 Du        
   2199 ****       222.7500 344.5000 -112.5000 Du        
   2200 ****       222.7500 344.5000 -112.2500 Du        
   2201 ****       222.7500 344.5000 -112.0000 Du        
   2202 ****       222.7500 344.5000 -111.7500 Du        
   2203 ****       222.7500 344.5000 -111.5000 Du        
   2204 ****       222.7500 344.5000 -111.2500 Du        
   2205 ****       222.7500 344.5000 -111.0000 Du        
   2206 ****       222.7500 344.5000 -100.7500 Du        
   2207 ****       222.7500 344.5000 -100.5000 Du        
   2208 ****       222.7500 344.5000 -100.2500 Du        
   2209 ****       222.7500 344.5000 -100.0000 Du        
   2210 ****       222.7500 344.5000 -99.7500 Du        
   2211 ****       222.7500 344.5000 -99.5000 Du        
   2212 ****       222.7500 344.5000 -99.2500 Du        
   2213 ****       222.7500 344.5000 -99.0000 Du        
   2214 ****       222.7500 344.7500 -114.5000 Du        
   2215 ****       222.7500 344.7500 -114.2500 Du        
   2216 ****       222.7500 344.7500 -114.0000 Du        
   2217 ****       222.7500 344.7500 -113.7500 Du        
   2218 ****       222.7500 344.7500 -113.5000 Du        
   2219 ****       222.7500 344.7500 -113.2500 Du        
   2220 ****       222.7500 344.7500 -113.0000 Du        
   2221 ****       222.7500 344.7500 -112.7500 Du        
   2222 ****       222.7500 344.7500 -112.5000 Du        
   2223 ****       222.7500 344.7500 -112.2500 Du        
   2224 ****       222.7500 344.7500 -112.0000 Du        
   2225 ****       222.7500 344.7500 -111.7500 Du        
   2226 ****       222.7500 344.7500 -111.5000 Du        
   2227 ****       222.7500 344.7500 -101.0000 Du        
   2228 ****       222.7500 344.7500 -100.7500 Du        
   2229 ****       222.7500 344.7500 -100.5000 Du        
   2230 ****       222.7500 344.7500 -100.2500 Du        
   2231 ****       222.7500 344.7500 -100.0000 Du        
   2232 ****       222.7500 344.7500 -99.7500 Du        
   2233 ****       222.7500 344.7500 -99.5000 Du        
   2234 ****       222.7500 344.7500 -99.2500 Du        
   2235 ****       222.7500 345.0000 -101.0000 Du        
   2236 ****       222.7500 345.0000 -100.7500 Du        
   2237 ****       222.7500 345.0000 -100.5000 Du        
   2238 ****       222.7500 345.0000 -100.2500 Du        
   2239 ****       222.7500 345.0000 -100.0000 Du        
   2240 ****       222.7500 345.0000 -99.7500 Du        
   2241 ****       222.7500 345.0000 -99.5000 Du        
   2242 ****       222.7500 345.2500 -101.0000 Du        
   2243 ****       222.7500 345.2500 -100.7500 Du        
   2244 ****       222.7500 345.2500 -100.5000 Du        
   2245 ****       222.7500 345.2500 -100.2500 Du        
   2246 ****       222.7500 345.2500 -100.0000 Du        
   2247 ****       222.7500 345.2500 -99.7500 Du        
   2248 ****       222.7500 345.5000 -101.0000 Du        
   2249 ****       222.7500 345.5000 -100.7500 Du        
   2250 ****       222.7500 345.5000 -100.5000 Du        
   2251 ****       222.7500 345.5000 -100.2500 Du        
   2252 ****       222.7500 345.5000 -100.0000 Du        
   2253 ****       222.7500 345.5000 -99.7500 Du        
   2254 ****       222.7500 345.7500 -101.2500 Du        
   2255 ****       222.7500 345.7500 -101.0000 Du        
   2256 ****       222.7500 345.7500 -100.7500 Du        
   2257 ****       222.7500 345.7500 -100.5000 Du        
   2258 ****       222.7500 345.7500 -100.2500 Du        
   2259 ****       222.7500 345.7500 -100.0000 Du        
   2260 ****       222.7500 346.0000 -101.2500 Du        
   2261 ****       222.7500 346.0000 -101.0000 Du        
   2262 ****       222.7500 346.0000 -100.7500 Du        
   2263 ****       222.7500 346.0000 -100.5000 Du        
   2264 ****       222.7500 346.0000 -100.2500 Du        
   2265 ****       222.7500 346.0000 -100.0000 Du        
   2266 ****       222.7500 346.2500 -101.2500 Du        
   2267 ****       222.7500 346.2500 -101.0000 Du        
   2268 ****       222.7500 346.2500 -100.7500 Du        
   2269 ****       222.7500 346.2500 -100.5000 Du        
   2270 ****       222.7500 346.2500 -100.2500 Du        
   2271 ****       222.7500 346.5000 -101.2500 Du        
   2272 ****       222.7500 346.5000 -101.0000 Du        
   2273 ****       222.7500 346.5000 -100.7500 Du        
   2274 ****       222.7500 346.5000 -100.5000 Du        
   2275 ****       222.7500 346.5000 -100.2500 Du        
   2276 ****       222.7500 346.7500 -101.5000 Du        
   2277 ****       222.7500 346.7500 -101.2500 Du        
   2278 ****       222.7500 346.7500 -101.0000 Du        
   2279 ****       222.7500 346.7500 -100.7500 Du        
   2280 ****       222.7500 346.7500 -100.5000 Du        
   2281 ****       222.7500 347.0000 -101.5000 Du        
   2282 ****       222.7500 347.0000 -101.2500 Du        
   2283 ****       222.7500 347.0000 -101.0000 Du        
   2284 ****       222.7500 347.0000 -100.7500 Du        
   2285 ****       222.7500 347.0000 -100.5000 Du        
   2286 ****       222.7500 347.2500 -101.5000 Du        
   2287 ****       222.7500 347.2500 -101.2500 Du        
   2288 ****       222.7500 347.2500 -101.0000 Du        
   2289 ****       222.7500 347.2500 -100.7500 Du        
   2290 ****       222.7500 347.2500 -100.5000 Du        
   2291 ****       222.7500 347.5000 -101.5000 Du        
   2292 ****       222.7500 347.5000 -101.2500 Du        
   2293 ****       222.7500 347.5000 -101.0000 Du        
   2294 ****       222.7500 347.5000 -100.7500 Du        
   2295 ****       222.7500 347.5000 -100.5000 Du        
   2296 ****       222.7500 347.7500 -101.5000 Du        
   2297 ****       222.7500 347.7500 -101.2500 Du        
   2298 ****       222.7500 347.7500 -101.0000 Du        
   2299 ****       222.7500 347.7500 -100.7500 Du        
   2300 ****       222.7500 347.7500 -100.5000 Du        
   2301 ****       222.7500 348.0000 -101.7500 Du        
   2302 ****       222.7500 348.0000 -101.5000 Du        
   2303 ****       222.7500 348.0000 -101.2500 Du        
   2304 ****       222.7500 348.0000 -101.0000 Du        
   2305 ****       222.7500 348.0000 -100.7500 Du        
   2306 ****       222.7500 348.0000 -100.5000 Du        
   2307 ****       222.7500 348.2500 -101.7500 Du        
   2308 ****       222.7500 348.2500 -101.5000 Du        
   2309 ****       222.7500 348.2500 -101.2500 Du        
   2310 ****       222.7500 348.2500 -101.0000 Du        
   2311 ****       222.7500 348.2500 -100.7500 Du        
   2312 ****       222.7500 348.2500 -100.5000 Du        
   2313 ****       222.7500 348.5000 -101.5000 Du        
   2314 ****       222.7500 348.5000 -101.2500 Du        
   2315 ****       222.7500 348.5000 -101.0000 Du        
   2316 ****       222.7500 348.5000 -100.7500 Du        
   2317 ****       222.7500 348.5000 -100.5000 Du        
   2318 ****       222.7500 348.7500 -100.7500 Du        
   2319 ****       223.0000 340.7500 -107.2500 Du        
   2320 ****       223.0000 340.7500 -107.0000 Du        
   2321 ****       223.0000 340.7500 -106.7500 Du        
   2322 ****       223.0000 341.0000 -107.5000 Du        
   2323 ****       223.0000 341.0000 -107.2500 Du        
   2324 ****       223.0000 341.0000 -107.0000 Du        
   2325 ****       223.0000 341.0000 -106.7500 Du        
   2326 ****       223.0000 341.2500 -107.7500 Du        
   2327 ****       223.0000 341.2500 -107.5000 Du        
   2328 ****       223.0000 341.2500 -107.2500 Du        
   2329 ****       223.0000 341.2500 -107.0000 Du        
   2330 ****       223.0000 341.2500 -106.7500 Du        
   2331 ****       223.0000 341.2500 -106.5000 Du        
   2332 ****       223.0000 341.2500 -106.2500 Du        
   2333 ****       223.0000 341.2500 -106.0000 Du        
   2334 ****       223.0000 341.5000 -107.7500 Du        
   2335 ****       223.0000 341.5000 -107.5000 Du        
   2336 ****       223.0000 341.5000 -107.2500 Du        
   2337 ****       223.0000 341.5000 -107.0000 Du        
   2338 ****       223.0000 341.5000 -106.7500 Du        
   2339 ****       223.0000 341.5000 -106.5000 Du        
   2340 ****       223.0000 341.5000 -106.2500 Du        
   2341 ****       223.0000 341.5000 -100.5000 Du        
   2342 ****       223.0000 341.5000 -100.2500 Du        
   2343 ****       223.0000 341.7500 -107.7500 Du        
   2344 ****       223.0000 341.7500 -107.5000 Du        
   2345 ****       223.0000 341.7500 -107.2500 Du        
   2346 ****       223.0000 341.7500 -107.0000 Du        
   2347 ****       223.0000 341.7500 -106.7500 Du        
   2348 ****       223.0000 341.7500 -106.5000 Du        
   2349 ****       223.0000 341.7500 -100.5000 Du        
   2350 ****       223.0000 341.7500 -100.2500 Du        
   2351 ****       223.0000 341.7500 -100.0000 Du        
   2352 ****       223.0000 342.0000 -108.0000 Du        
   2353 ****       223.0000 342.0000 -107.7500 Du        
   2354 ****       223.0000 342.0000 -107.5000 Du        
   2355 ****       223.0000 342.0000 -107.2500 Du        
   2356 ****       223.0000 342.0000 -107.0000 Du        
   2357 ****       223.0000 342.0000 -106.7500 Du        
   2358 ****       223.0000 342.0000 -100.5000 Du        
   2359 ****       223.0000 342.0000 -100.2500 Du        
   2360 ****       223.0000 342.0000 -100.0000 Du        
   2361 ****       223.0000 342.0000 -99.7500 Du        
   2362 ****       223.0000 342.0000 -99.5000 Du        
   2363 ****       223.0000 342.2500 -108.0000 Du        
   2364 ****       223.0000 342.2500 -107.7500 Du        
   2365 ****       223.0000 342.2500 -107.5000 Du        
   2366 ****       223.0000 342.2500 -107.2500 Du        
   2367 ****       223.0000 342.2500 -100.5000 Du        
   2368 ****       223.0000 342.2500 -100.2500 Du        
   2369 ****       223.0000 342.2500 -100.0000 Du        
   2370 ****       223.0000 342.2500 -99.7500 Du        
   2371 ****       223.0000 342.2500 -99.5000 Du        
   2372 ****       223.0000 342.2500 -99.2500 Du        
   2373 ****       223.0000 342.2500 -99.0000 Du        
   2374 ****       223.0000 342.5000 -108.0000 Du        
   2375 ****       223.0000 342.5000 -107.7500 Du        
   2376 ****       223.0000 342.5000 -107.5000 Du        
   2377 ****       223.0000 342.5000 -100.5000 Du        
   2378 ****       223.0000 342.5000 -100.2500 Du        
   2379 ****       223.0000 342.5000 -100.0000 Du        
   2380 ****       223.0000 342.5000 -99.7500 Du        
   2381 ****       223.0000 342.5000 -99.5000 Du        
   2382 ****       223.0000 342.5000 -99.2500 Du        
   2383 ****       223.0000 342.5000 -99.0000 Du        
   2384 ****       223.0000 342.5000 -98.7500 Du        
   2385 ****       223.0000 342.7500 -100.5000 Du        
   2386 ****       223.0000 342.7500 -100.2500 Du        
   2387 ****       223.0000 342.7500 -100.0000 Du        
   2388 ****       223.0000 342.7500 -99.7500 Du        
   2389 ****       223.0000 342.7500 -99.5000 Du        
   2390 ****       223.0000 342.7500 -99.2500 Du        
   2391 ****       223.0000 342.7500 -99.0000 Du        
   2392 ****       223.0000 342.7500 -98.7500 Du        
   2393 ****       223.0000 342.7500 -98.5000 Du        
   2394 ****       223.0000 343.0000 -100.5000 Du        
   2395 ****       223.0000 343.0000 -100.2500 Du        
   2396 ****       223.0000 343.0000 -100.0000 Du        
   2397 ****       223.0000 343.0000 -99.7500 Du        
   2398 ****       223.0000 343.0000 -99.5000 Du        
   2399 ****       223.0000 343.0000 -99.2500 Du        
   2400 ****       223.0000 343.0000 -99.0000 Du        
   2401 ****       223.0000 343.0000 -98.7500 Du        
   2402 ****       223.0000 343.0000 -98.5000 Du        
   2403 ****       223.0000 343.2500 -100.5000 Du        
   2404 ****       223.0000 343.2500 -100.2500 Du        
   2405 ****       223.0000 343.2500 -100.0000 Du        
   2406 ****       223.0000 343.2500 -99.7500 Du        
   2407 ****       223.0000 343.2500 -99.5000 Du        
   2408 ****       223.0000 343.2500 -99.2500 Du        
   2409 ****       223.0000 343.2500 -99.0000 Du        
   2410 ****       223.0000 343.2500 -98.7500 Du        
   2411 ****       223.0000 343.2500 -98.5000 Du        
   2412 ****       223.0000 343.5000 -114.0000 Du        
   2413 ****       223.0000 343.5000 -113.7500 Du        
   2414 ****       223.0000 343.5000 -113.5000 Du        
   2415 ****       223.0000 343.5000 -113.2500 Du        
   2416 ****       223.0000 343.5000 -113.0000 Du        
   2417 ****       223.0000 343.5000 -112.7500 Du        
   2418 ****       223.0000 343.5000 -100.5000 Du        
   2419 ****       223.0000 343.5000 -100.2500 Du        
   2420 ****       223.0000 343.5000 -100.0000 Du        
   2421 ****       223.0000 343.5000 -99.7500 Du        
   2422 ****       223.0000 343.5000 -99.5000 Du        
   2423 ****       223.0000 343.5000 -99.2500 Du        
   2424 ****       223.0000 343.5000 -99.0000 Du        
   2425 ****       223.0000 343.5000 -98.7500 Du        
   2426 ****       223.0000 343.5000 -98.5000 Du        
   2427 ****       223.0000 343.7500 -114.2500 Du        
   2428 ****       223.0000 343.7500 -114.0000 Du        
   2429 ****       223.0000 343.7500 -113.7500 Du        
   2430 ****       223.0000 343.7500 -113.5000 Du        
   2431 ****       223.0000 343.7500 -113.2500 Du        
   2432 ****       223.0000 343.7500 -113.0000 Du        
   2433 ****       223.0000 343.7500 -112.7500 Du        
   2434 ****       223.0000 343.7500 -112.5000 Du        
   2435 ****       223.0000 343.7500 -112.2500 Du        
   2436 ****       223.0000 343.7500 -100.5000 Du        
   2437 ****       223.0000 343.7500 -100.2500 Du        
   2438 ****       223.0000 343.7500 -100.0000 Du        
   2439 ****       223.0000 343.7500 -99.7500 Du        
   2440 ****       223.0000 343.7500 -99.5000 Du        
   2441 ****       223.0000 343.7500 -99.2500 Du        
   2442 ****       223.0000 343.7500 -99.0000 Du        
   2443 ****       223.0000 343.7500 -98.7500 Du        
   2444 ****       223.0000 344.0000 -114.2500 Du        
   2445 ****       223.0000 344.0000 -114.0000 Du        
   2446 ****       223.0000 344.0000 -113.7500 Du        
   2447 ****       223.0000 344.0000 -113.5000 Du        
   2448 ****       223.0000 344.0000 -113.2500 Du        
   2449 ****       223.0000 344.0000 -113.0000 Du        
   2450 ****       223.0000 344.0000 -112.7500 Du        
   2451 ****       223.0000 344.0000 -112.5000 Du        
   2452 ****       223.0000 344.0000 -112.2500 Du        
   2453 ****       223.0000 344.0000 -112.0000 Du        
   2454 ****       223.0000 344.0000 -111.7500 Du        
   2455 ****       223.0000 344.0000 -111.5000 Du        
   2456 ****       223.0000 344.0000 -111.2500 Du        
   2457 ****       223.0000 344.0000 -111.0000 Du        
   2458 ****       223.0000 344.0000 -100.5000 Du        
   2459 ****       223.0000 344.0000 -100.2500 Du        
   2460 ****       223.0000 344.0000 -100.0000 Du        
   2461 ****       223.0000 344.0000 -99.7500 Du        
   2462 ****       223.0000 344.0000 -99.5000 Du        
   2463 ****       223.0000 344.0000 -99.2500 Du        
   2464 ****       223.0000 344.0000 -99.0000 Du        
   2465 ****       223.0000 344.0000 -98.7500 Du        
   2466 ****       223.0000 344.2500 -114.2500 Du        
   2467 ****       223.0000 344.2500 -114.0000 Du        
   2468 ****       223.0000 344.2500 -113.7500 Du        
   2469 ****       223.0000 344.2500 -113.5000 Du        
   2470 ****       223.0000 344.2500 -113.2500 Du        
   2471 ****       223.0000 344.2500 -113.0000 Du        
   2472 ****       223.0000 344.2500 -112.7500 Du        
   2473 ****       223.0000 344.2500 -112.5000 Du        
   2474 ****       223.0000 344.2500 -112.2500 Du        
   2475 ****       223.0000 344.2500 -112.0000 Du        
   2476 ****       223.0000 344.2500 -111.7500 Du        
   2477 ****       223.0000 344.2500 -111.5000 Du        
   2478 ****       223.0000 344.2500 -111.2500 Du        
   2479 ****       223.0000 344.2500 -111.0000 Du        
   2480 ****       223.0000 344.2500 -100.5000 Du        
   2481 ****       223.0000 344.2500 -100.2500 Du        
   2482 ****       223.0000 344.2500 -100.0000 Du        
   2483 ****       223.0000 344.2500 -99.7500 Du        
   2484 ****       223.0000 344.2500 -99.5000 Du        
   2485 ****       223.0000 344.2500 -99.2500 Du        
   2486 ****       223.0000 344.2500 -99.0000 Du        
   2487 ****       223.0000 344.5000 -114.2500 Du        
   2488 ****       223.0000 344.5000 -114.0000 Du        
   2489 ****       223.0000 344.5000 -113.7500 Du        
   2490 ****       223.0000 344.5000 -113.5000 Du        
   2491 ****       223.0000 344.5000 -113.2500 Du        
   2492 ****       223.0000 344.5000 -113.0000 Du        
   2493 ****       223.0000 344.5000 -112.7500 Du        
   2494 ****       223.0000 344.5000 -112.5000 Du        
   2495 ****       223.0000 344.5000 -112.2500 Du        
   2496 ****       223.0000 344.5000 -112.0000 Du        
   2497 ****       223.0000 344.5000 -111.7500 Du        
   2498 ****       223.0000 344.5000 -111.5000 Du        
   2499 ****       223.0000 344.5000 -111.2500 Du        
   2500 ****       223.0000 344.5000 -100.5000 Du        
   2501 ****       223.0000 344.5000 -100.2500 Du        
   2502 ****       223.0000 344.5000 -100.0000 Du        
   2503 ****       223.0000 344.5000 -99.7500 Du        
   2504 ****       223.0000 344.5000 -99.5000 Du        
   2505 ****       223.0000 344.5000 -99.2500 Du        
   2506 ****       223.0000 344.7500 -114.2500 Du        
   2507 ****       223.0000 344.7500 -114.0000 Du        
   2508 ****       223.0000 344.7500 -113.7500 Du        
   2509 ****       223.0000 344.7500 -113.5000 Du        
   2510 ****       223.0000 344.7500 -113.2500 Du        
   2511 ****       223.0000 344.7500 -113.0000 Du        
   2512 ****       223.0000 344.7500 -112.7500 Du        
   2513 ****       223.0000 344.7500 -112.5000 Du        
   2514 ****       223.0000 344.7500 -112.2500 Du        
   2515 ****       223.0000 344.7500 -112.0000 Du        
   2516 ****       223.0000 344.7500 -111.7500 Du        
   2517 ****       223.0000 344.7500 -100.7500 Du        
   2518 ****       223.0000 344.7500 -100.5000 Du        
   2519 ****       223.0000 344.7500 -100.2500 Du        
   2520 ****       223.0000 344.7500 -100.0000 Du        
   2521 ****       223.0000 344.7500 -99.7500 Du        
   2522 ****       223.0000 345.0000 -114.5000 Du        
   2523 ****       223.0000 345.0000 -114.2500 Du        
   2524 ****       223.0000 345.0000 -114.0000 Du        
   2525 ****       223.0000 345.0000 -113.7500 Du        
   2526 ****       223.0000 345.0000 -113.5000 Du        
   2527 ****       223.0000 345.0000 -113.2500 Du        
   2528 ****       223.0000 345.0000 -113.0000 Du        
   2529 ****       223.0000 345.0000 -112.7500 Du        
   2530 ****       223.0000 345.0000 -112.5000 Du        
   2531 ****       223.0000 345.0000 -112.2500 Du        
   2532 ****       223.0000 345.0000 -100.7500 Du        
   2533 ****       223.0000 345.0000 -100.5000 Du        
   2534 ****       223.0000 345.0000 -100.2500 Du        
   2535 ****       223.0000 345.0000 -100.0000 Du        
   2536 ****       223.0000 345.0000 -99.7500 Du        
   2537 ****       223.0000 345.2500 -114.5000 Du        
   2538 ****       223.0000 345.2500 -114.2500 Du        
   2539 ****       223.0000 345.2500 -114.0000 Du        
   2540 ****       223.0000 345.2500 -113.7500 Du        
   2541 ****       223.0000 345.2500 -113.5000 Du        
   2542 ****       223.0000 345.2500 -113.2500 Du        
   2543 ****       223.0000 345.2500 -113.0000 Du        
   2544 ****       223.0000 345.2500 -100.7500 Du        
   2545 ****       223.0000 345.2500 -100.5000 Du        
   2546 ****       223.0000 345.2500 -100.2500 Du        
   2547 ****       223.0000 345.2500 -100.0000 Du        
   2548 ****       223.0000 345.5000 -114.5000 Du        
   2549 ****       223.0000 345.5000 -114.2500 Du        
   2550 ****       223.0000 345.5000 -114.0000 Du        
   2551 ****       223.0000 345.5000 -101.0000 Du        
   2552 ****       223.0000 345.5000 -100.7500 Du        
   2553 ****       223.0000 345.5000 -100.5000 Du        
   2554 ****       223.0000 345.5000 -100.2500 Du        
   2555 ****       223.0000 345.7500 -114.7500 Du        
   2556 ****       223.0000 345.7500 -114.5000 Du        
   2557 ****       223.0000 345.7500 -101.0000 Du        
   2558 ****       223.0000 345.7500 -100.7500 Du        
   2559 ****       223.0000 345.7500 -100.5000 Du        
   2560 ****       223.0000 345.7500 -100.2500 Du        
   2561 ****       223.0000 346.0000 -114.7500 Du        
   2562 ****       223.0000 346.0000 -101.0000 Du        
   2563 ****       223.0000 346.0000 -100.7500 Du        
   2564 ****       223.0000 346.0000 -100.5000 Du        
   2565 ****       223.0000 346.0000 -100.2500 Du        
   2566 ****       223.0000 346.2500 -115.0000 Du        
   2567 ****       223.0000 346.2500 -114.7500 Du        
   2568 ****       223.0000 346.2500 -101.2500 Du        
   2569 ****       223.0000 346.2500 -101.0000 Du        
   2570 ****       223.0000 346.2500 -100.7500 Du        
   2571 ****       223.0000 346.2500 -100.5000 Du        
   2572 ****       223.0000 346.5000 -115.0000 Du        
   2573 ****       223.0000 346.5000 -101.2500 Du        
   2574 ****       223.0000 346.5000 -101.0000 Du        
   2575 ****       223.0000 346.5000 -100.7500 Du        
   2576 ****       223.0000 346.5000 -100.5000 Du        
   2577 ****       223.0000 346.7500 -115.0000 Du        
   2578 ****       223.0000 346.7500 -101.2500 Du        
   2579 ****       223.0000 346.7500 -101.0000 Du        
   2580 ****       223.0000 346.7500 -100.7500 Du        
   2581 ****       223.0000 346.7500 -100.5000 Du        
   2582 ****       223.0000 347.0000 -115.0000 Du        
   2583 ****       223.0000 347.0000 -114.7500 Du        
   2584 ****       223.0000 347.0000 -101.2500 Du        
   2585 ****       223.0000 347.0000 -101.0000 Du        
   2586 ****       223.0000 347.0000 -100.7500 Du        
   2587 ****       223.0000 347.2500 -115.0000 Du        
   2588 ****       223.0000 347.2500 -101.5000 Du        
   2589 ****       223.0000 347.2500 -101.2500 Du        
   2590 ****       223.0000 347.2500 -101.0000 Du        
   2591 ****       223.0000 347.2500 -100.7500 Du        
   2592 ****       223.0000 347.5000 -115.0000 Du        
   2593 ****       223.0000 347.5000 -114.7500 Du        
   2594 ****       223.0000 347.5000 -101.5000 Du        
   2595 ****       223.0000 347.5000 -101.2500 Du        
   2596 ****       223.0000 347.5000 -101.0000 Du        
   2597 ****       223.0000 347.5000 -100.7500 Du        
   2598 ****       223.0000 347.7500 -101.5000 Du        
   2599 ****       223.0000 347.7500 -101.2500 Du        
   2600 ****       223.0000 347.7500 -101.0000 Du        
   2601 ****       223.0000 347.7500 -100.7500 Du        
   2602 ****       223.0000 348.0000 -101.5000 Du        
   2603 ****       223.0000 348.0000 -101.2500 Du        
   2604 ****       223.0000 348.0000 -101.0000 Du        
   2605 ****       223.0000 348.0000 -100.7500 Du        
   2606 ****       223.0000 348.0000 -100.5000 Du        
   2607 ****       223.0000 348.2500 -101.5000 Du        
   2608 ****       223.0000 348.2500 -101.2500 Du        
   2609 ****       223.0000 348.2500 -101.0000 Du        
   2610 ****       223.0000 348.2500 -100.7500 Du        
   2611 ****       223.0000 348.5000 -101.2500 Du        
   2612 ****       223.0000 348.5000 -101.0000 Du        
   2613 ****       223.0000 348.5000 -100.7500 Du        
   2614 ****       223.2500 340.5000 -107.2500 Du        
   2615 ****       223.2500 340.5000 -107.0000 Du        
   2616 ****       223.2500 340.5000 -106.7500 Du        
   2617 ****       223.2500 340.7500 -107.2500 Du        
   2618 ****       223.2500 340.7500 -107.0000 Du        
   2619 ****       223.2500 340.7500 -106.7500 Du        
   2620 ****       223.2500 340.7500 -106.5000 Du        
   2621 ****       223.2500 340.7500 -106.2500 Du        
   2622 ****       223.2500 340.7500 -106.0000 Du        
   2623 ****       223.2500 341.0000 -107.5000 Du        
   2624 ****       223.2500 341.0000 -107.2500 Du        
   2625 ****       223.2500 341.0000 -107.0000 Du        
   2626 ****       223.2500 341.0000 -106.7500 Du        
   2627 ****       223.2500 341.0000 -106.5000 Du        
   2628 ****       223.2500 341.0000 -106.2500 Du        
   2629 ****       223.2500 341.0000 -106.0000 Du        
   2630 ****       223.2500 341.0000 -105.7500 Du        
   2631 ****       223.2500 341.2500 -107.7500 Du        
   2632 ****       223.2500 341.2500 -107.5000 Du        
   2633 ****       223.2500 341.2500 -107.2500 Du        
   2634 ****       223.2500 341.2500 -107.0000 Du        
   2635 ****       223.2500 341.2500 -106.7500 Du        
   2636 ****       223.2500 341.2500 -106.5000 Du        
   2637 ****       223.2500 341.2500 -106.2500 Du        
   2638 ****       223.2500 341.2500 -106.0000 Du        
   2639 ****       223.2500 341.2500 -105.7500 Du        
   2640 ****       223.2500 341.5000 -107.5000 Du        
   2641 ****       223.2500 341.5000 -107.2500 Du        
   2642 ****       223.2500 341.5000 -107.0000 Du        
   2643 ****       223.2500 341.5000 -106.7500 Du        
   2644 ****       223.2500 341.5000 -106.5000 Du        
   2645 ****       223.2500 341.5000 -106.2500 Du        
   2646 ****       223.2500 341.5000 -106.0000 Du        
   2647 ****       223.2500 341.5000 -105.7500 Du        
   2648 ****       223.2500 341.7500 -107.7500 Du        
   2649 ****       223.2500 341.7500 -107.5000 Du        
   2650 ****       223.2500 341.7500 -107.2500 Du        
   2651 ****       223.2500 341.7500 -107.0000 Du        
   2652 ****       223.2500 341.7500 -106.7500 Du        
   2653 ****       223.2500 341.7500 -106.5000 Du        
   2654 ****       223.2500 341.7500 -106.2500 Du        
   2655 ****       223.2500 342.0000 -107.7500 Du        
   2656 ****       223.2500 342.0000 -107.5000 Du        
   2657 ****       223.2500 342.0000 -107.2500 Du        
   2658 ****       223.2500 342.0000 -107.0000 Du        
   2659 ****       223.2500 342.0000 -106.7500 Du        
   2660 ****       223.2500 342.0000 -100.2500 Du        
   2661 ****       223.2500 342.0000 -100.0000 Du        
   2662 ****       223.2500 342.0000 -99.7500 Du        
   2663 ****       223.2500 342.2500 -107.7500 Du        
   2664 ****       223.2500 342.2500 -107.5000 Du        
   2665 ****       223.2500 342.2500 -107.2500 Du        
   2666 ****       223.2500 342.2500 -107.0000 Du        
   2667 ****       223.2500 342.2500 -100.2500 Du        
   2668 ****       223.2500 342.2500 -100.0000 Du        
   2669 ****       223.2500 342.2500 -99.7500 Du        
   2670 ****       223.2500 342.2500 -99.5000 Du        
   2671 ****       223.2500 342.2500 -99.2500 Du        
   2672 ****       223.2500 342.5000 -100.2500 Du        
   2673 ****       223.2500 342.5000 -100.0000 Du        
   2674 ****       223.2500 342.5000 -99.7500 Du        
   2675 ****       223.2500 342.5000 -99.5000 Du        
   2676 ****       223.2500 342.5000 -99.2500 Du        
   2677 ****       223.2500 342.5000 -99.0000 Du        
   2678 ****       223.2500 342.7500 -100.2500 Du        
   2679 ****       223.2500 342.7500 -100.0000 Du        
   2680 ****       223.2500 342.7500 -99.7500 Du        
   2681 ****       223.2500 342.7500 -99.5000 Du        
   2682 ****       223.2500 342.7500 -99.2500 Du        
   2683 ****       223.2500 342.7500 -99.0000 Du        
   2684 ****       223.2500 342.7500 -98.7500 Du        
   2685 ****       223.2500 343.0000 -100.2500 Du        
   2686 ****       223.2500 343.0000 -100.0000 Du        
   2687 ****       223.2500 343.0000 -99.7500 Du        
   2688 ****       223.2500 343.0000 -99.5000 Du        
   2689 ****       223.2500 343.0000 -99.2500 Du        
   2690 ****       223.2500 343.0000 -99.0000 Du        
   2691 ****       223.2500 343.0000 -98.7500 Du        
   2692 ****       223.2500 343.0000 -98.5000 Du        
   2693 ****       223.2500 343.2500 -100.2500 Du        
   2694 ****       223.2500 343.2500 -100.0000 Du        
   2695 ****       223.2500 343.2500 -99.7500 Du        
   2696 ****       223.2500 343.2500 -99.5000 Du        
   2697 ****       223.2500 343.2500 -99.2500 Du        
   2698 ****       223.2500 343.2500 -99.0000 Du        
   2699 ****       223.2500 343.2500 -98.7500 Du        
   2700 ****       223.2500 343.2500 -98.5000 Du        
   2701 ****       223.2500 343.5000 -113.7500 Du        
   2702 ****       223.2500 343.5000 -113.5000 Du        
   2703 ****       223.2500 343.5000 -100.2500 Du        
   2704 ****       223.2500 343.5000 -100.0000 Du        
   2705 ****       223.2500 343.5000 -99.7500 Du        
   2706 ****       223.2500 343.5000 -99.5000 Du        
   2707 ****       223.2500 343.5000 -99.2500 Du        
   2708 ****       223.2500 343.5000 -99.0000 Du        
   2709 ****       223.2500 343.5000 -98.7500 Du        
   2710 ****       223.2500 343.7500 -114.0000 Du        
   2711 ****       223.2500 343.7500 -113.7500 Du        
   2712 ****       223.2500 343.7500 -113.5000 Du        
   2713 ****       223.2500 343.7500 -113.2500 Du        
   2714 ****       223.2500 343.7500 -113.0000 Du        
   2715 ****       223.2500 343.7500 -100.2500 Du        
   2716 ****       223.2500 343.7500 -100.0000 Du        
   2717 ****       223.2500 343.7500 -99.7500 Du        
   2718 ****       223.2500 343.7500 -99.5000 Du        
   2719 ****       223.2500 343.7500 -99.2500 Du        
   2720 ****       223.2500 343.7500 -99.0000 Du        
   2721 ****       223.2500 343.7500 -98.7500 Du        
   2722 ****       223.2500 344.0000 -114.0000 Du        
   2723 ****       223.2500 344.0000 -113.7500 Du        
   2724 ****       223.2500 344.0000 -113.5000 Du        
   2725 ****       223.2500 344.0000 -113.2500 Du        
   2726 ****       223.2500 344.0000 -113.0000 Du        
   2727 ****       223.2500 344.0000 -112.7500 Du        
   2728 ****       223.2500 344.0000 -112.5000 Du        
   2729 ****       223.2500 344.0000 -100.2500 Du        
   2730 ****       223.2500 344.0000 -100.0000 Du        
   2731 ****       223.2500 344.0000 -99.7500 Du        
   2732 ****       223.2500 344.0000 -99.5000 Du        
   2733 ****       223.2500 344.0000 -99.2500 Du        
   2734 ****       223.2500 344.0000 -99.0000 Du        
   2735 ****       223.2500 344.2500 -114.0000 Du        
   2736 ****       223.2500 344.2500 -113.7500 Du        
   2737 ****       223.2500 344.2500 -113.5000 Du        
   2738 ****       223.2500 344.2500 -113.2500 Du        
   2739 ****       223.2500 344.2500 -113.0000 Du        
   2740 ****       223.2500 344.2500 -112.7500 Du        
   2741 ****       223.2500 344.2500 -112.5000 Du        
   2742 ****       223.2500 344.2500 -112.2500 Du        
   2743 ****       223.2500 344.2500 -112.0000 Du        
   2744 ****       223.2500 344.2500 -100.2500 Du        
   2745 ****       223.2500 344.2500 -100.0000 Du        
   2746 ****       223.2500 344.2500 -99.7500 Du        
   2747 ****       223.2500 344.2500 -99.5000 Du        
   2748 ****       223.2500 344.5000 -114.2500 Du        
   2749 ****       223.2500 344.5000 -114.0000 Du        
   2750 ****       223.2500 344.5000 -113.7500 Du        
   2751 ****       223.2500 344.5000 -113.5000 Du        
   2752 ****       223.2500 344.5000 -113.2500 Du        
   2753 ****       223.2500 344.5000 -113.0000 Du        
   2754 ****       223.2500 344.5000 -112.7500 Du        
   2755 ****       223.2500 344.5000 -112.5000 Du        
   2756 ****       223.2500 344.5000 -112.2500 Du        
   2757 ****       223.2500 344.5000 -112.0000 Du        
   2758 ****       223.2500 344.5000 -111.7500 Du        
   2759 ****       223.2500 344.5000 -100.2500 Du        
   2760 ****       223.2500 344.5000 -100.0000 Du        
   2761 ****       223.2500 344.5000 -99.7500 Du        
   2762 ****       223.2500 344.7500 -114.2500 Du        
   2763 ****       223.2500 344.7500 -114.0000 Du        
   2764 ****       223.2500 344.7500 -113.7500 Du        
   2765 ****       223.2500 344.7500 -113.5000 Du        
   2766 ****       223.2500 344.7500 -113.2500 Du        
   2767 ****       223.2500 344.7500 -113.0000 Du        
   2768 ****       223.2500 344.7500 -112.7500 Du        
   2769 ****       223.2500 344.7500 -112.5000 Du        
   2770 ****       223.2500 344.7500 -112.2500 Du        
   2771 ****       223.2500 344.7500 -112.0000 Du        
   2772 ****       223.2500 344.7500 -111.7500 Du        
   2773 ****       223.2500 344.7500 -100.2500 Du        
   2774 ****       223.2500 344.7500 -100.0000 Du        
   2775 ****       223.2500 345.0000 -114.2500 Du        
   2776 ****       223.2500 345.0000 -114.0000 Du        
   2777 ****       223.2500 345.0000 -113.7500 Du        
   2778 ****       223.2500 345.0000 -113.5000 Du        
   2779 ****       223.2500 345.0000 -113.2500 Du        
   2780 ****       223.2500 345.0000 -113.0000 Du        
   2781 ****       223.2500 345.0000 -112.7500 Du        
   2782 ****       223.2500 345.0000 -112.5000 Du        
   2783 ****       223.2500 345.0000 -112.2500 Du        
   2784 ****       223.2500 345.0000 -100.5000 Du        
   2785 ****       223.2500 345.0000 -100.2500 Du        
   2786 ****       223.2500 345.2500 -114.5000 Du        
   2787 ****       223.2500 345.2500 -114.2500 Du        
   2788 ****       223.2500 345.2500 -114.0000 Du        
   2789 ****       223.2500 345.2500 -113.7500 Du        
   2790 ****       223.2500 345.2500 -113.5000 Du        
   2791 ****       223.2500 345.2500 -113.2500 Du        
   2792 ****       223.2500 345.2500 -113.0000 Du        
   2793 ****       223.2500 345.2500 -112.7500 Du        
   2794 ****       223.2500 345.5000 -114.5000 Du        
   2795 ****       223.2500 345.5000 -114.2500 Du        
   2796 ****       223.2500 345.5000 -114.0000 Du        
   2797 ****       223.2500 345.5000 -113.7500 Du        
   2798 ****       223.2500 345.5000 -113.5000 Du        
   2799 ****       223.2500 345.5000 -113.2500 Du        
   2800 ****       223.2500 345.7500 -114.5000 Du        
   2801 ****       223.2500 345.7500 -114.2500 Du        
   2802 ****       223.2500 345.7500 -114.0000 Du        
   2803 ****       223.2500 345.7500 -113.7500 Du        
   2804 ****       223.2500 346.0000 -114.7500 Du        
   2805 ****       223.2500 346.0000 -114.5000 Du        
   2806 ****       223.2500 346.0000 -114.2500 Du        
   2807 ****       223.2500 346.0000 -114.0000 Du        
   2808 ****       223.2500 346.2500 -114.7500 Du        
   2809 ****       223.2500 346.2500 -114.5000 Du        
   2810 ****       223.2500 346.2500 -114.2500 Du        
   2811 ****       223.2500 346.5000 -114.7500 Du        
   2812 ****       223.2500 346.5000 -114.5000 Du        
   2813 ****       223.2500 346.7500 -114.7500 Du        
   2814 ****       223.2500 346.7500 -114.5000 Du        
   2815 ****       223.2500 346.7500 -101.0000 Du        
   2816 ****       223.2500 347.0000 -115.0000 Du        
   2817 ****       223.2500 347.0000 -114.7500 Du        
   2818 ****       223.2500 347.0000 -114.5000 Du        
   2819 ****       223.2500 347.0000 -101.2500 Du        
   2820 ****       223.2500 347.0000 -101.0000 Du        
   2821 ****       223.2500 347.2500 -115.0000 Du        
   2822 ****       223.2500 347.2500 -114.7500 Du        
   2823 ****       223.2500 347.2500 -101.2500 Du        
   2824 ****       223.2500 347.2500 -101.0000 Du        
   2825 ****       223.2500 347.5000 -115.0000 Du        
   2826 ****       223.2500 347.5000 -114.7500 Du        
   2827 ****       223.2500 347.5000 -101.2500 Du        
   2828 ****       223.2500 347.5000 -101.0000 Du        
   2829 ****       223.2500 347.5000 -100.7500 Du        
   2830 ****       223.2500 347.7500 -101.5000 Du        
   2831 ****       223.2500 347.7500 -101.2500 Du        
   2832 ****       223.2500 347.7500 -101.0000 Du        
   2833 ****       223.2500 347.7500 -100.7500 Du        
   2834 ****       223.2500 348.0000 -101.5000 Du        
   2835 ****       223.2500 348.0000 -101.2500 Du        
   2836 ****       223.2500 348.0000 -101.0000 Du        
   2837 ****       223.2500 348.0000 -100.7500 Du        
   2838 ****       223.2500 348.2500 -101.2500 Du        
   2839 ****       223.2500 348.2500 -101.0000 Du        
   2840 ****       223.2500 348.2500 -100.7500 Du        
   2841 ****       223.5000 340.0000 -107.0000 Du        
   2842 ****       223.5000 340.0000 -106.7500 Du        
   2843 ****       223.5000 340.0000 -106.5000 Du        
   2844 ****       223.5000 340.2500 -107.2500 Du        
   2845 ****       223.5000 340.2500 -107.0000 Du        
   2846 ****       223.5000 340.2500 -106.7500 Du        
   2847 ****       223.5000 340.2500 -106.5000 Du        
   2848 ****       223.5000 340.2500 -106.2500 Du        
   2849 ****       223.5000 340.2500 -106.0000 Du        
   2850 ****       223.5000 340.5000 -107.2500 Du        
   2851 ****       223.5000 340.5000 -107.0000 Du        
   2852 ****       223.5000 340.5000 -106.7500 Du        
   2853 ****       223.5000 340.5000 -106.5000 Du        
   2854 ****       223.5000 340.5000 -106.2500 Du        
   2855 ****       223.5000 340.5000 -106.0000 Du        
   2856 ****       223.5000 340.7500 -107.5000 Du        
   2857 ****       223.5000 340.7500 -107.2500 Du        
   2858 ****       223.5000 340.7500 -107.0000 Du        
   2859 ****       223.5000 340.7500 -106.7500 Du        
   2860 ****       223.5000 340.7500 -106.5000 Du        
   2861 ****       223.5000 340.7500 -106.2500 Du        
   2862 ****       223.5000 340.7500 -106.0000 Du        
   2863 ****       223.5000 340.7500 -105.7500 Du        
   2864 ****       223.5000 341.0000 -107.5000 Du        
   2865 ****       223.5000 341.0000 -107.2500 Du        
   2866 ****       223.5000 341.0000 -107.0000 Du        
   2867 ****       223.5000 341.0000 -106.7500 Du        
   2868 ****       223.5000 341.0000 -106.5000 Du        
   2869 ****       223.5000 341.0000 -106.2500 Du        
   2870 ****       223.5000 341.0000 -106.0000 Du        
   2871 ****       223.5000 341.0000 -105.7500 Du        
   2872 ****       223.5000 341.2500 -107.5000 Du        
   2873 ****       223.5000 341.2500 -107.2500 Du        
   2874 ****       223.5000 341.2500 -107.0000 Du        
   2875 ****       223.5000 341.2500 -106.7500 Du        
   2876 ****       223.5000 341.2500 -106.5000 Du        
   2877 ****       223.5000 341.2500 -106.2500 Du        
   2878 ****       223.5000 341.2500 -106.0000 Du        
   2879 ****       223.5000 341.2500 -105.7500 Du        
   2880 ****       223.5000 341.5000 -107.5000 Du        
   2881 ****       223.5000 341.5000 -107.2500 Du        
   2882 ****       223.5000 341.5000 -107.0000 Du        
   2883 ****       223.5000 341.5000 -106.7500 Du        
   2884 ****       223.5000 341.5000 -106.5000 Du        
   2885 ****       223.5000 341.5000 -106.2500 Du        
   2886 ****       223.5000 341.5000 -106.0000 Du        
   2887 ****       223.5000 341.5000 -105.7500 Du        
   2888 ****       223.5000 341.7500 -107.7500 Du        
   2889 ****       223.5000 341.7500 -107.5000 Du        
   2890 ****       223.5000 341.7500 -107.2500 Du        
   2891 ****       223.5000 341.7500 -107.0000 Du        
   2892 ****       223.5000 341.7500 -106.7500 Du        
   2893 ****       223.5000 341.7500 -106.5000 Du        
   2894 ****       223.5000 341.7500 -106.2500 Du        
   2895 ****       223.5000 341.7500 -106.0000 Du        
   2896 ****       223.5000 342.0000 -107.5000 Du        
   2897 ****       223.5000 342.0000 -107.2500 Du        
   2898 ****       223.5000 342.0000 -107.0000 Du        
   2899 ****       223.5000 342.0000 -106.7500 Du        
   2900 ****       223.5000 342.0000 -106.5000 Du        
   2901 ****       223.5000 342.0000 -106.2500 Du        
   2902 ****       223.5000 342.2500 -107.5000 Du        
   2903 ****       223.5000 342.2500 -107.2500 Du        
   2904 ****       223.5000 342.2500 -107.0000 Du        
   2905 ****       223.5000 342.2500 -106.7500 Du        
   2906 ****       223.5000 342.2500 -100.0000 Du        
   2907 ****       223.5000 342.2500 -99.7500 Du        
   2908 ****       223.5000 342.5000 -100.0000 Du        
   2909 ****       223.5000 342.5000 -99.7500 Du        
   2910 ****       223.5000 342.5000 -99.5000 Du        
   2911 ****       223.5000 342.5000 -99.2500 Du        
   2912 ****       223.5000 342.7500 -100.2500 Du        
   2913 ****       223.5000 342.7500 -100.0000 Du        
   2914 ****       223.5000 342.7500 -99.7500 Du        
   2915 ****       223.5000 342.7500 -99.5000 Du        
   2916 ****       223.5000 342.7500 -99.2500 Du        
   2917 ****       223.5000 342.7500 -99.0000 Du        
   2918 ****       223.5000 343.0000 -100.2500 Du        
   2919 ****       223.5000 343.0000 -100.0000 Du        
   2920 ****       223.5000 343.0000 -99.7500 Du        
   2921 ****       223.5000 343.0000 -99.5000 Du        
   2922 ****       223.5000 343.0000 -99.2500 Du        
   2923 ****       223.5000 343.0000 -99.0000 Du        
   2924 ****       223.5000 343.0000 -98.7500 Du        
   2925 ****       223.5000 343.2500 -100.2500 Du        
   2926 ****       223.5000 343.2500 -100.0000 Du        
   2927 ****       223.5000 343.2500 -99.7500 Du        
   2928 ****       223.5000 343.2500 -99.5000 Du        
   2929 ****       223.5000 343.2500 -99.2500 Du        
   2930 ****       223.5000 343.2500 -99.0000 Du        
   2931 ****       223.5000 343.2500 -98.7500 Du        
   2932 ****       223.5000 343.5000 -100.2500 Du        
   2933 ****       223.5000 343.5000 -100.0000 Du        
   2934 ****       223.5000 343.5000 -99.7500 Du        
   2935 ****       223.5000 343.5000 -99.5000 Du        
   2936 ****       223.5000 343.5000 -99.2500 Du        
   2937 ****       223.5000 343.5000 -99.0000 Du        
   2938 ****       223.5000 343.5000 -98.7500 Du        
   2939 ****       223.5000 343.7500 -114.0000 Du        
   2940 ****       223.5000 343.7500 -113.7500 Du        
   2941 ****       223.5000 343.7500 -113.5000 Du        
   2942 ****       223.5000 343.7500 -113.2500 Du        
   2943 ****       223.5000 343.7500 -100.0000 Du        
   2944 ****       223.5000 343.7500 -99.7500 Du        
   2945 ****       223.5000 343.7500 -99.5000 Du        
   2946 ****       223.5000 343.7500 -99.2500 Du        
   2947 ****       223.5000 343.7500 -99.0000 Du        
   2948 ****       223.5000 344.0000 -114.0000 Du        
   2949 ****       223.5000 344.0000 -113.7500 Du        
   2950 ****       223.5000 344.0000 -113.5000 Du        
   2951 ****       223.5000 344.0000 -113.2500 Du        
   2952 ****       223.5000 344.0000 -113.0000 Du        
   2953 ****       223.5000 344.0000 -100.0000 Du        
   2954 ****       223.5000 344.0000 -99.7500 Du        
   2955 ****       223.5000 344.0000 -99.5000 Du        
   2956 ****       223.5000 344.2500 -114.0000 Du        
   2957 ****       223.5000 344.2500 -113.7500 Du        
   2958 ****       223.5000 344.2500 -113.5000 Du        
   2959 ****       223.5000 344.2500 -113.2500 Du        
   2960 ****       223.5000 344.2500 -113.0000 Du        
   2961 ****       223.5000 344.2500 -112.7500 Du        
   2962 ****       223.5000 344.2500 -112.5000 Du        
   2963 ****       223.5000 344.2500 -100.0000 Du        
   2964 ****       223.5000 344.2500 -99.7500 Du        
   2965 ****       223.5000 344.5000 -114.0000 Du        
   2966 ****       223.5000 344.5000 -113.7500 Du        
   2967 ****       223.5000 344.5000 -113.5000 Du        
   2968 ****       223.5000 344.5000 -113.2500 Du        
   2969 ****       223.5000 344.5000 -113.0000 Du        
   2970 ****       223.5000 344.5000 -112.7500 Du        
   2971 ****       223.5000 344.5000 -112.5000 Du        
   2972 ****       223.5000 344.5000 -112.2500 Du        
   2973 ****       223.5000 344.5000 -112.0000 Du        
   2974 ****       223.5000 344.7500 -114.0000 Du        
   2975 ****       223.5000 344.7500 -113.7500 Du        
   2976 ****       223.5000 344.7500 -113.5000 Du        
   2977 ****       223.5000 344.7500 -113.2500 Du        
   2978 ****       223.5000 344.7500 -113.0000 Du        
   2979 ****       223.5000 344.7500 -112.7500 Du        
   2980 ****       223.5000 344.7500 -112.5000 Du        
   2981 ****       223.5000 344.7500 -112.2500 Du        
   2982 ****       223.5000 344.7500 -112.0000 Du        
   2983 ****       223.5000 345.0000 -114.2500 Du        
   2984 ****       223.5000 345.0000 -114.0000 Du        
   2985 ****       223.5000 345.0000 -113.7500 Du        
   2986 ****       223.5000 345.0000 -113.5000 Du        
   2987 ****       223.5000 345.0000 -113.2500 Du        
   2988 ****       223.5000 345.0000 -113.0000 Du        
   2989 ****       223.5000 345.0000 -112.7500 Du        
   2990 ****       223.5000 345.0000 -112.5000 Du        
   2991 ****       223.5000 345.0000 -112.2500 Du        
   2992 ****       223.5000 345.2500 -114.2500 Du        
   2993 ****       223.5000 345.2500 -114.0000 Du        
   2994 ****       223.5000 345.2500 -113.7500 Du        
   2995 ****       223.5000 345.2500 -113.5000 Du        
   2996 ****       223.5000 345.2500 -113.2500 Du        
   2997 ****       223.5000 345.2500 -113.0000 Du        
   2998 ****       223.5000 345.2500 -112.7500 Du        
   2999 ****       223.5000 345.2500 -112.5000 Du        
   3000 ****       223.5000 345.5000 -114.2500 Du        
   3001 ****       223.5000 345.5000 -114.0000 Du        
   3002 ****       223.5000 345.5000 -113.7500 Du        
   3003 ****       223.5000 345.5000 -113.5000 Du        
   3004 ****       223.5000 345.5000 -113.2500 Du        
   3005 ****       223.5000 345.5000 -113.0000 Du        
   3006 ****       223.5000 345.7500 -114.5000 Du        
   3007 ****       223.5000 345.7500 -114.2500 Du        
   3008 ****       223.5000 345.7500 -114.0000 Du        
   3009 ****       223.5000 345.7500 -113.7500 Du        
   3010 ****       223.5000 345.7500 -113.5000 Du        
   3011 ****       223.5000 345.7500 -113.2500 Du        
   3012 ****       223.5000 346.0000 -114.5000 Du        
   3013 ****       223.5000 346.0000 -114.2500 Du        
   3014 ****       223.5000 346.0000 -114.0000 Du        
   3015 ****       223.5000 346.0000 -113.7500 Du        
   3016 ****       223.5000 346.2500 -114.5000 Du        
   3017 ****       223.5000 346.2500 -114.2500 Du        
   3018 ****       223.5000 346.2500 -114.0000 Du        
   3019 ****       223.5000 346.5000 -114.5000 Du        
   3020 ****       223.5000 346.5000 -114.2500 Du        
   3021 ****       223.5000 347.7500 -101.2500 Du        
   3022 ****       223.5000 347.7500 -101.0000 Du        
   3023 ****       223.5000 348.0000 -101.2500 Du        
   3024 ****       223.5000 348.0000 -101.0000 Du        
   3025 ****       223.7500 339.7500 -107.0000 Du        
   3026 ****       223.7500 339.7500 -106.7500 Du        
   3027 ****       223.7500 339.7500 -106.5000 Du        
   3028 ****       223.7500 340.0000 -107.2500 Du        
   3029 ****       223.7500 340.0000 -107.0000 Du        
   3030 ****       223.7500 340.0000 -106.7500 Du        
   3031 ****       223.7500 340.0000 -106.5000 Du        
   3032 ****       223.7500 340.0000 -106.2500 Du        
   3033 ****       223.7500 340.2500 -107.2500 Du        
   3034 ****       223.7500 340.2500 -107.0000 Du        
   3035 ****       223.7500 340.2500 -106.7500 Du        
   3036 ****       223.7500 340.2500 -106.5000 Du        
   3037 ****       223.7500 340.2500 -106.2500 Du        
   3038 ****       223.7500 340.2500 -106.0000 Du        
   3039 ****       223.7500 340.5000 -107.2500 Du        
   3040 ****       223.7500 340.5000 -107.0000 Du        
   3041 ****       223.7500 340.5000 -106.7500 Du        
   3042 ****       223.7500 340.5000 -106.5000 Du        
   3043 ****       223.7500 340.5000 -106.2500 Du        
   3044 ****       223.7500 340.5000 -106.0000 Du        
   3045 ****       223.7500 340.5000 -105.7500 Du        
   3046 ****       223.7500 340.7500 -107.5000 Du        
   3047 ****       223.7500 340.7500 -107.2500 Du        
   3048 ****       223.7500 340.7500 -107.0000 Du        
   3049 ****       223.7500 340.7500 -106.7500 Du        
   3050 ****       223.7500 340.7500 -106.5000 Du        
   3051 ****       223.7500 340.7500 -106.2500 Du        
   3052 ****       223.7500 340.7500 -106.0000 Du        
   3053 ****       223.7500 340.7500 -105.7500 Du        
   3054 ****       223.7500 341.0000 -107.5000 Du        
   3055 ****       223.7500 341.0000 -107.2500 Du        
   3056 ****       223.7500 341.0000 -107.0000 Du        
   3057 ****       223.7500 341.0000 -106.7500 Du        
   3058 ****       223.7500 341.0000 -106.5000 Du        
   3059 ****       223.7500 341.0000 -106.2500 Du        
   3060 ****       223.7500 341.0000 -106.0000 Du        
   3061 ****       223.7500 341.0000 -105.7500 Du        
   3062 ****       223.7500 341.2500 -107.5000 Du        
   3063 ****       223.7500 341.2500 -107.2500 Du        
   3064 ****       223.7500 341.2500 -107.0000 Du        
   3065 ****       223.7500 341.2500 -106.7500 Du        
   3066 ****       223.7500 341.2500 -106.5000 Du        
   3067 ****       223.7500 341.2500 -106.2500 Du        
   3068 ****       223.7500 341.2500 -106.0000 Du        
   3069 ****       223.7500 341.2500 -105.7500 Du        
   3070 ****       223.7500 341.5000 -107.5000 Du        
   3071 ****       223.7500 341.5000 -107.2500 Du        
   3072 ****       223.7500 341.5000 -107.0000 Du        
   3073 ****       223.7500 341.5000 -106.7500 Du        
   3074 ****       223.7500 341.5000 -106.5000 Du        
   3075 ****       223.7500 341.5000 -106.2500 Du        
   3076 ****       223.7500 341.5000 -106.0000 Du        
   3077 ****       223.7500 341.5000 -105.7500 Du        
   3078 ****       223.7500 341.7500 -107.5000 Du        
   3079 ****       223.7500 341.7500 -107.2500 Du        
   3080 ****       223.7500 341.7500 -107.0000 Du        
   3081 ****       223.7500 341.7500 -106.7500 Du        
   3082 ****       223.7500 341.7500 -106.5000 Du        
   3083 ****       223.7500 341.7500 -106.2500 Du        
   3084 ****       223.7500 341.7500 -106.0000 Du        
   3085 ****       223.7500 341.7500 -105.7500 Du        
   3086 ****       223.7500 342.0000 -107.2500 Du        
   3087 ****       223.7500 342.0000 -107.0000 Du        
   3088 ****       223.7500 342.0000 -106.7500 Du        
   3089 ****       223.7500 342.0000 -106.5000 Du        
   3090 ****       223.7500 342.0000 -106.2500 Du        
   3091 ****       223.7500 342.0000 -106.0000 Du        
   3092 ****       223.7500 342.2500 -107.2500 Du        
   3093 ****       223.7500 342.2500 -107.0000 Du        
   3094 ****       223.7500 342.2500 -106.7500 Du        
   3095 ****       223.7500 342.2500 -106.5000 Du        
   3096 ****       223.7500 342.7500 -99.7500 Du        
   3097 ****       223.7500 342.7500 -99.5000 Du        
   3098 ****       223.7500 342.7500 -99.2500 Du        
   3099 ****       223.7500 343.0000 -100.0000 Du        
   3100 ****       223.7500 343.0000 -99.7500 Du        
   3101 ****       223.7500 343.0000 -99.5000 Du        
   3102 ****       223.7500 343.0000 -99.2500 Du        
   3103 ****       223.7500 343.0000 -99.0000 Du        
   3104 ****       223.7500 343.2500 -100.0000 Du        
   3105 ****       223.7500 343.2500 -99.7500 Du        
   3106 ****       223.7500 343.2500 -99.5000 Du        
   3107 ****       223.7500 343.2500 -99.2500 Du        
   3108 ****       223.7500 343.2500 -99.0000 Du        
   3109 ****       223.7500 343.5000 -100.0000 Du        
   3110 ****       223.7500 343.5000 -99.7500 Du        
   3111 ****       223.7500 343.5000 -99.5000 Du        
   3112 ****       223.7500 343.5000 -99.2500 Du        
   3113 ****       223.7500 343.5000 -99.0000 Du        
   3114 ****       223.7500 343.7500 -113.7500 Du        
   3115 ****       223.7500 343.7500 -99.7500 Du        
   3116 ****       223.7500 343.7500 -99.5000 Du        
   3117 ****       223.7500 344.0000 -113.7500 Du        
   3118 ****       223.7500 344.0000 -113.5000 Du        
   3119 ****       223.7500 344.0000 -113.2500 Du        
   3120 ****       223.7500 344.2500 -114.0000 Du        
   3121 ****       223.7500 344.2500 -113.7500 Du        
   3122 ****       223.7500 344.2500 -113.5000 Du        
   3123 ****       223.7500 344.2500 -113.2500 Du        
   3124 ****       223.7500 344.2500 -113.0000 Du        
   3125 ****       223.7500 344.2500 -112.7500 Du        
   3126 ****       223.7500 344.5000 -114.0000 Du        
   3127 ****       223.7500 344.5000 -113.7500 Du        
   3128 ****       223.7500 344.5000 -113.5000 Du        
   3129 ****       223.7500 344.5000 -113.2500 Du        
   3130 ****       223.7500 344.5000 -113.0000 Du        
   3131 ****       223.7500 344.5000 -112.7500 Du        
   3132 ****       223.7500 344.5000 -112.5000 Du        
   3133 ****       223.7500 344.7500 -114.0000 Du        
   3134 ****       223.7500 344.7500 -113.7500 Du        
   3135 ****       223.7500 344.7500 -113.5000 Du        
   3136 ****       223.7500 344.7500 -113.2500 Du        
   3137 ****       223.7500 344.7500 -113.0000 Du        
   3138 ****       223.7500 344.7500 -112.7500 Du        
   3139 ****       223.7500 344.7500 -112.5000 Du        
   3140 ****       223.7500 344.7500 -112.2500 Du        
   3141 ****       223.7500 345.0000 -114.0000 Du        
   3142 ****       223.7500 345.0000 -113.7500 Du        
   3143 ****       223.7500 345.0000 -113.5000 Du        
   3144 ****       223.7500 345.0000 -113.2500 Du        
   3145 ****       223.7500 345.0000 -113.0000 Du        
   3146 ****       223.7500 345.0000 -112.7500 Du        
   3147 ****       223.7500 345.0000 -112.5000 Du        
   3148 ****       223.7500 345.2500 -114.0000 Du        
   3149 ****       223.7500 345.2500 -113.7500 Du        
   3150 ****       223.7500 345.2500 -113.5000 Du        
   3151 ****       223.7500 345.2500 -113.2500 Du        
   3152 ****       223.7500 345.2500 -113.0000 Du        
   3153 ****       223.7500 345.2500 -112.7500 Du        
   3154 ****       223.7500 345.5000 -114.2500 Du        
   3155 ****       223.7500 345.5000 -114.0000 Du        
   3156 ****       223.7500 345.5000 -113.7500 Du        
   3157 ****       223.7500 345.5000 -113.5000 Du        
   3158 ****       223.7500 345.5000 -113.2500 Du        
   3159 ****       223.7500 345.5000 -113.0000 Du        
   3160 ****       223.7500 345.7500 -114.2500 Du        
   3161 ****       223.7500 345.7500 -114.0000 Du        
   3162 ****       223.7500 345.7500 -113.7500 Du        
   3163 ****       223.7500 345.7500 -113.5000 Du        
   3164 ****       223.7500 345.7500 -113.2500 Du        
   3165 ****       223.7500 346.0000 -114.0000 Du        
   3166 ****       223.7500 346.0000 -113.7500 Du        
   3167 ****       224.0000 339.5000 -107.0000 Du        
   3168 ****       224.0000 339.7500 -107.2500 Du        
   3169 ****       224.0000 339.7500 -107.0000 Du        
   3170 ****       224.0000 339.7500 -106.7500 Du        
   3171 ****       224.0000 339.7500 -106.5000 Du        
   3172 ****       224.0000 339.7500 -106.2500 Du        
   3173 ****       224.0000 340.0000 -107.2500 Du        
   3174 ****       224.0000 340.0000 -107.0000 Du        
   3175 ****       224.0000 340.0000 -106.7500 Du        
   3176 ****       224.0000 340.0000 -106.5000 Du        
   3177 ****       224.0000 340.0000 -106.2500 Du        
   3178 ****       224.0000 340.0000 -106.0000 Du        
   3179 ****       224.0000 340.2500 -107.2500 Du        
   3180 ****       224.0000 340.2500 -107.0000 Du        
   3181 ****       224.0000 340.2500 -106.7500 Du        
   3182 ****       224.0000 340.2500 -106.5000 Du        
   3183 ****       224.0000 340.2500 -106.2500 Du        
   3184 ****       224.0000 340.2500 -106.0000 Du        
   3185 ****       224.0000 340.5000 -107.2500 Du        
   3186 ****       224.0000 340.5000 -107.0000 Du        
   3187 ****       224.0000 340.5000 -106.7500 Du        
   3188 ****       224.0000 340.5000 -106.5000 Du        
   3189 ****       224.0000 340.5000 -106.2500 Du        
   3190 ****       224.0000 340.5000 -106.0000 Du        
   3191 ****       224.0000 340.5000 -105.7500 Du        
   3192 ****       224.0000 340.7500 -107.2500 Du        
   3193 ****       224.0000 340.7500 -107.0000 Du        
   3194 ****       224.0000 340.7500 -106.7500 Du        
   3195 ****       224.0000 340.7500 -106.5000 Du        
   3196 ****       224.0000 340.7500 -106.2500 Du        
   3197 ****       224.0000 340.7500 -106.0000 Du        
   3198 ****       224.0000 340.7500 -105.7500 Du        
   3199 ****       224.0000 341.0000 -107.2500 Du        
   3200 ****       224.0000 341.0000 -107.0000 Du        
   3201 ****       224.0000 341.0000 -106.7500 Du        
   3202 ****       224.0000 341.0000 -106.5000 Du        
   3203 ****       224.0000 341.0000 -106.2500 Du        
   3204 ****       224.0000 341.0000 -106.0000 Du        
   3205 ****       224.0000 341.0000 -105.7500 Du        
   3206 ****       224.0000 341.2500 -107.2500 Du        
   3207 ****       224.0000 341.2500 -107.0000 Du        
   3208 ****       224.0000 341.2500 -106.7500 Du        
   3209 ****       224.0000 341.2500 -106.5000 Du        
   3210 ****       224.0000 341.2500 -106.2500 Du        
   3211 ****       224.0000 341.2500 -106.0000 Du        
   3212 ****       224.0000 341.2500 -105.7500 Du        
   3213 ****       224.0000 341.5000 -107.2500 Du        
   3214 ****       224.0000 341.5000 -107.0000 Du        
   3215 ****       224.0000 341.5000 -106.7500 Du        
   3216 ****       224.0000 341.5000 -106.5000 Du        
   3217 ****       224.0000 341.5000 -106.2500 Du        
   3218 ****       224.0000 341.5000 -106.0000 Du        
   3219 ****       224.0000 341.5000 -105.7500 Du        
   3220 ****       224.0000 341.7500 -107.2500 Du        
   3221 ****       224.0000 341.7500 -107.0000 Du        
   3222 ****       224.0000 341.7500 -106.7500 Du        
   3223 ****       224.0000 341.7500 -106.5000 Du        
   3224 ****       224.0000 341.7500 -106.2500 Du        
   3225 ****       224.0000 341.7500 -106.0000 Du        
   3226 ****       224.0000 341.7500 -105.7500 Du        
   3227 ****       224.0000 342.0000 -107.2500 Du        
   3228 ****       224.0000 342.0000 -107.0000 Du        
   3229 ****       224.0000 342.0000 -106.7500 Du        
   3230 ****       224.0000 342.0000 -106.5000 Du        
   3231 ****       224.0000 342.0000 -106.2500 Du        
   3232 ****       224.0000 342.0000 -106.0000 Du        
   3233 ****       224.0000 342.2500 -107.0000 Du        
   3234 ****       224.0000 342.2500 -106.7500 Du        
   3235 ****       224.0000 342.2500 -106.5000 Du        
   3236 ****       224.0000 342.2500 -106.2500 Du        
   3237 ****       224.0000 344.0000 -113.7500 Du        
   3238 ****       224.0000 344.0000 -113.5000 Du        
   3239 ****       224.0000 344.2500 -113.7500 Du        
   3240 ****       224.0000 344.2500 -113.5000 Du        
   3241 ****       224.0000 344.2500 -113.2500 Du        
   3242 ****       224.0000 344.5000 -113.7500 Du        
   3243 ****       224.0000 344.5000 -113.5000 Du        
   3244 ****       224.0000 344.5000 -113.2500 Du        
   3245 ****       224.0000 344.5000 -113.0000 Du        
   3246 ****       224.0000 344.5000 -112.7500 Du        
   3247 ****       224.0000 344.7500 -114.0000 Du        
   3248 ****       224.0000 344.7500 -113.7500 Du        
   3249 ****       224.0000 344.7500 -113.5000 Du        
   3250 ****       224.0000 344.7500 -113.2500 Du        
   3251 ****       224.0000 344.7500 -113.0000 Du        
   3252 ****       224.0000 344.7500 -112.7500 Du        
   3253 ****       224.0000 345.0000 -114.0000 Du        
   3254 ****       224.0000 345.0000 -113.7500 Du        
   3255 ****       224.0000 345.0000 -113.5000 Du        
   3256 ****       224.0000 345.0000 -113.2500 Du        
   3257 ****       224.0000 345.0000 -113.0000 Du        
   3258 ****       224.0000 345.0000 -112.7500 Du        
   3259 ****       224.0000 345.2500 -114.0000 Du        
   3260 ****       224.0000 345.2500 -113.7500 Du        
   3261 ****       224.0000 345.2500 -113.5000 Du        
   3262 ****       224.0000 345.2500 -113.2500 Du        
   3263 ****       224.0000 345.2500 -113.0000 Du        
   3264 ****       224.0000 345.5000 -114.0000 Du        
   3265 ****       224.0000 345.5000 -113.7500 Du        
   3266 ****       224.0000 345.5000 -113.5000 Du        
   3267 ****       224.0000 345.5000 -113.2500 Du        
   3268 ****       224.0000 345.7500 -113.7500 Du        
   3269 ****       224.2500 339.5000 -107.2500 Du        
   3270 ****       224.2500 339.5000 -107.0000 Du        
   3271 ****       224.2500 339.5000 -106.7500 Du        
   3272 ****       224.2500 339.5000 -106.5000 Du        
   3273 ****       224.2500 339.5000 -106.2500 Du        
   3274 ****       224.2500 339.7500 -107.2500 Du        
   3275 ****       224.2500 339.7500 -107.0000 Du        
   3276 ****       224.2500 339.7500 -106.7500 Du        
   3277 ****       224.2500 339.7500 -106.5000 Du        
   3278 ****       224.2500 339.7500 -106.2500 Du        
   3279 ****       224.2500 339.7500 -106.0000 Du        
   3280 ****       224.2500 340.0000 -107.2500 Du        
   3281 ****       224.2500 340.0000 -107.0000 Du        
   3282 ****       224.2500 340.0000 -106.7500 Du        
   3283 ****       224.2500 340.0000 -106.5000 Du        
   3284 ****       224.2500 340.0000 -106.2500 Du        
   3285 ****       224.2500 340.0000 -106.0000 Du        
   3286 ****       224.2500 340.2500 -107.2500 Du        
   3287 ****       224.2500 340.2500 -107.0000 Du        
   3288 ****       224.2500 340.2500 -106.7500 Du        
   3289 ****       224.2500 340.2500 -106.5000 Du        
   3290 ****       224.2500 340.2500 -106.2500 Du        
   3291 ****       224.2500 340.2500 -106.0000 Du        
   3292 ****       224.2500 340.5000 -107.2500 Du        
   3293 ****       224.2500 340.5000 -107.0000 Du        
   3294 ****       224.2500 340.5000 -106.7500 Du        
   3295 ****       224.2500 340.5000 -106.5000 Du        
   3296 ****       224.2500 340.5000 -106.2500 Du        
   3297 ****       224.2500 340.5000 -106.0000 Du        
   3298 ****       224.2500 340.5000 -105.7500 Du        
   3299 ****       224.2500 340.7500 -107.2500 Du        
   3300 ****       224.2500 340.7500 -107.0000 Du        
   3301 ****       224.2500 340.7500 -106.7500 Du        
   3302 ****       224.2500 340.7500 -106.5000 Du        
   3303 ****       224.2500 340.7500 -106.2500 Du        
   3304 ****       224.2500 340.7500 -106.0000 Du        
   3305 ****       224.2500 340.7500 -105.7500 Du        
   3306 ****       224.2500 341.0000 -107.2500 Du        
   3307 ****       224.2500 341.0000 -107.0000 Du        
   3308 ****       224.2500 341.0000 -106.7500 Du        
   3309 ****       224.2500 341.0000 -106.5000 Du        
   3310 ****       224.2500 341.0000 -106.2500 Du        
   3311 ****       224.2500 341.0000 -106.0000 Du        
   3312 ****       224.2500 341.0000 -105.7500 Du        
   3313 ****       224.2500 341.2500 -107.0000 Du        
   3314 ****       224.2500 341.2500 -106.7500 Du        
   3315 ****       224.2500 341.2500 -106.5000 Du        
   3316 ****       224.2500 341.2500 -106.2500 Du        
   3317 ****       224.2500 341.2500 -106.0000 Du        
   3318 ****       224.2500 341.2500 -105.7500 Du        
   3319 ****       224.2500 341.5000 -107.0000 Du        
   3320 ****       224.2500 341.5000 -106.7500 Du        
   3321 ****       224.2500 341.5000 -106.5000 Du        
   3322 ****       224.2500 341.5000 -106.2500 Du        
   3323 ****       224.2500 341.5000 -106.0000 Du        
   3324 ****       224.2500 341.5000 -105.7500 Du        
   3325 ****       224.2500 341.7500 -107.0000 Du        
   3326 ****       224.2500 341.7500 -106.7500 Du        
   3327 ****       224.2500 341.7500 -106.5000 Du        
   3328 ****       224.2500 341.7500 -106.2500 Du        
   3329 ****       224.2500 341.7500 -106.0000 Du        
   3330 ****       224.2500 341.7500 -105.7500 Du        
   3331 ****       224.2500 342.0000 -107.0000 Du        
   3332 ****       224.2500 342.0000 -106.7500 Du        
   3333 ****       224.2500 342.0000 -106.5000 Du        
   3334 ****       224.2500 342.0000 -106.2500 Du        
   3335 ****       224.2500 342.0000 -106.0000 Du        
   3336 ****       224.2500 342.2500 -106.7500 Du        
   3337 ****       224.2500 342.2500 -106.5000 Du        
   3338 ****       224.2500 342.2500 -106.2500 Du        
   3339 ****       224.2500 344.2500 -113.5000 Du        
   3340 ****       224.2500 344.5000 -113.7500 Du        
   3341 ****       224.2500 344.5000 -113.5000 Du        
   3342 ****       224.2500 344.5000 -113.2500 Du        
   3343 ****       224.2500 344.7500 -113.7500 Du        
   3344 ****       224.2500 344.7500 -113.5000 Du        
   3345 ****       224.2500 344.7500 -113.2500 Du        
   3346 ****       224.2500 345.0000 -113.7500 Du        
   3347 ****       224.2500 345.0000 -113.5000 Du        
   3348 ****       224.2500 345.0000 -113.2500 Du        
   3349 ****       224.5000 339.2500 -107.0000 Du        
   3350 ****       224.5000 339.2500 -106.7500 Du        
   3351 ****       224.5000 339.2500 -106.5000 Du        
   3352 ****       224.5000 339.5000 -107.2500 Du        
   3353 ****       224.5000 339.5000 -107.0000 Du        
   3354 ****       224.5000 339.5000 -106.7500 Du        
   3355 ****       224.5000 339.5000 -106.5000 Du        
   3356 ****       224.5000 339.5000 -106.2500 Du        
   3357 ****       224.5000 339.7500 -107.2500 Du        
   3358 ****       224.5000 339.7500 -107.0000 Du        
   3359 ****       224.5000 339.7500 -106.7500 Du        
   3360 ****       224.5000 339.7500 -106.5000 Du        
   3361 ****       224.5000 339.7500 -106.2500 Du        
   3362 ****       224.5000 339.7500 -106.0000 Du        
   3363 ****       224.5000 340.0000 -107.2500 Du        
   3364 ****       224.5000 340.0000 -107.0000 Du        
   3365 ****       224.5000 340.0000 -106.7500 Du        
   3366 ****       224.5000 340.0000 -106.5000 Du        
   3367 ****       224.5000 340.0000 -106.2500 Du        
   3368 ****       224.5000 340.0000 -106.0000 Du        
   3369 ****       224.5000 340.2500 -107.0000 Du        
   3370 ****       224.5000 340.2500 -106.7500 Du        
   3371 ****       224.5000 340.2500 -106.5000 Du        
   3372 ****       224.5000 340.2500 -106.2500 Du        
   3373 ****       224.5000 340.2500 -106.0000 Du        
   3374 ****       224.5000 340.5000 -107.0000 Du        
   3375 ****       224.5000 340.5000 -106.7500 Du        
   3376 ****       224.5000 340.5000 -106.5000 Du        
   3377 ****       224.5000 340.5000 -106.2500 Du        
   3378 ****       224.5000 340.5000 -106.0000 Du        
   3379 ****       224.5000 340.7500 -106.7500 Du        
   3380 ****       224.5000 340.7500 -106.5000 Du        
   3381 ****       224.5000 340.7500 -106.2500 Du        
   3382 ****       224.5000 340.7500 -106.0000 Du        
   3383 ****       224.5000 340.7500 -105.7500 Du        
   3384 ****       224.5000 341.0000 -106.7500 Du        
   3385 ****       224.5000 341.0000 -106.5000 Du        
   3386 ****       224.5000 341.0000 -106.2500 Du        
   3387 ****       224.5000 341.0000 -106.0000 Du        
   3388 ****       224.5000 341.0000 -105.7500 Du        
   3389 ****       224.5000 341.2500 -106.7500 Du        
   3390 ****       224.5000 341.2500 -106.5000 Du        
   3391 ****       224.5000 341.2500 -106.2500 Du        
   3392 ****       224.5000 341.2500 -106.0000 Du        
   3393 ****       224.5000 341.2500 -105.7500 Du        
   3394 ****       224.5000 341.5000 -106.7500 Du        
   3395 ****       224.5000 341.5000 -106.5000 Du        
   3396 ****       224.5000 341.5000 -106.2500 Du        
   3397 ****       224.5000 341.5000 -106.0000 Du        
   3398 ****       224.5000 341.7500 -106.7500 Du        
   3399 ****       224.5000 341.7500 -106.5000 Du        
   3400 ****       224.5000 341.7500 -106.2500 Du        
   3401 ****       224.5000 341.7500 -106.0000 Du        
   3402 ****       224.5000 342.0000 -106.7500 Du        
   3403 ****       224.5000 342.0000 -106.5000 Du        
   3404 ****       224.5000 342.0000 -106.2500 Du        
   3405 ****       224.5000 342.0000 -106.0000 Du        
   3406 ****       224.5000 342.2500 -106.5000 Du        
   3407 ****       224.5000 342.2500 -106.2500 Du        
   3408 ****       224.7500 338.7500 -106.7500 Du        
   3409 ****       224.7500 339.0000 -107.0000 Du        
   3410 ****       224.7500 339.0000 -106.7500 Du        
   3411 ****       224.7500 339.0000 -106.5000 Du        
   3412 ****       224.7500 339.2500 -107.2500 Du        
   3413 ****       224.7500 339.2500 -107.0000 Du        
   3414 ****       224.7500 339.2500 -106.7500 Du        
   3415 ****       224.7500 339.2500 -106.5000 Du        
   3416 ****       224.7500 339.2500 -106.2500 Du        
   3417 ****       224.7500 339.5000 -107.2500 Du        
   3418 ****       224.7500 339.5000 -107.0000 Du        
   3419 ****       224.7500 339.5000 -106.7500 Du        
   3420 ****       224.7500 339.5000 -106.5000 Du        
   3421 ****       224.7500 339.5000 -106.2500 Du        
   3422 ****       224.7500 339.7500 -107.2500 Du        
   3423 ****       224.7500 339.7500 -107.0000 Du        
   3424 ****       224.7500 339.7500 -106.7500 Du        
   3425 ****       224.7500 339.7500 -106.5000 Du        
   3426 ****       224.7500 339.7500 -106.2500 Du        
   3427 ****       224.7500 339.7500 -106.0000 Du        
   3428 ****       224.7500 340.0000 -107.0000 Du        
   3429 ****       224.7500 340.0000 -106.7500 Du        
   3430 ****       224.7500 340.0000 -106.5000 Du        
   3431 ****       224.7500 340.0000 -106.2500 Du        
   3432 ****       224.7500 340.0000 -106.0000 Du        
   3433 ****       224.7500 340.2500 -106.7500 Du        
   3434 ****       224.7500 340.2500 -106.5000 Du        
   3435 ****       224.7500 340.2500 -106.2500 Du        
   3436 ****       224.7500 340.2500 -106.0000 Du        
   3437 ****       224.7500 340.5000 -106.7500 Du        
   3438 ****       224.7500 340.5000 -106.5000 Du        
   3439 ****       224.7500 340.5000 -106.2500 Du        
   3440 ****       224.7500 340.5000 -106.0000 Du        
   3441 ****       224.7500 340.7500 -106.5000 Du        
   3442 ****       224.7500 340.7500 -106.2500 Du        
   3443 ****       224.7500 340.7500 -106.0000 Du        
   3444 ****       224.7500 341.0000 -106.5000 Du        
   3445 ****       224.7500 341.0000 -106.2500 Du        
   3446 ****       224.7500 341.0000 -106.0000 Du        
   3447 ****       224.7500 341.2500 -106.2500 Du        
   3448 ****       224.7500 341.2500 -106.0000 Du        
   3449 ****       224.7500 341.5000 -106.2500 Du        
   3450 ****       224.7500 341.5000 -106.0000 Du        
   3451 ****       224.7500 341.7500 -106.2500 Du        
   3452 ****       224.7500 341.7500 -106.0000 Du        
   3453 ****       224.7500 342.0000 -106.2500 Du        
   3454 ****       225.0000 338.5000 -106.7500 Du        
   3455 ****       225.0000 338.7500 -107.0000 Du        
   3456 ****       225.0000 338.7500 -106.7500 Du        
   3457 ****       225.0000 339.0000 -107.2500 Du        
   3458 ****       225.0000 339.0000 -107.0000 Du        
   3459 ****       225.0000 339.0000 -106.7500 Du        
   3460 ****       225.0000 339.0000 -106.5000 Du        
   3461 ****       225.0000 339.0000 -106.2500 Du        
   3462 ****       225.0000 339.2500 -107.2500 Du        
   3463 ****       225.0000 339.2500 -107.0000 Du        
   3464 ****       225.0000 339.2500 -106.7500 Du        
   3465 ****       225.0000 339.2500 -106.5000 Du        
   3466 ****       225.0000 339.2500 -106.2500 Du        
   3467 ****       225.0000 339.5000 -107.2500 Du        
   3468 ****       225.0000 339.5000 -107.0000 Du        
   3469 ****       225.0000 339.5000 -106.7500 Du        
   3470 ****       225.0000 339.5000 -106.5000 Du        
   3471 ****       225.0000 339.5000 -106.2500 Du        
   3472 ****       225.0000 339.5000 -106.0000 Du        
   3473 ****       225.0000 339.7500 -107.0000 Du        
   3474 ****       225.0000 339.7500 -106.7500 Du        
   3475 ****       225.0000 339.7500 -106.5000 Du        
   3476 ****       225.0000 339.7500 -106.2500 Du        
   3477 ****       225.0000 339.7500 -106.0000 Du        
   3478 ****       225.0000 340.0000 -106.7500 Du        
   3479 ****       225.0000 340.0000 -106.5000 Du        
   3480 ****       225.0000 340.0000 -106.2500 Du        
   3481 ****       225.0000 340.0000 -106.0000 Du        
   3482 ****       225.0000 340.2500 -106.5000 Du        
   3483 ****       225.0000 340.2500 -106.2500 Du        
   3484 ****       225.0000 340.5000 -106.2500 Du        
   3485 ****       225.2500 338.5000 -106.7500 Du        
   3486 ****       225.2500 338.7500 -107.2500 Du        
   3487 ****       225.2500 338.7500 -107.0000 Du        
   3488 ****       225.2500 338.7500 -106.7500 Du        
   3489 ****       225.2500 338.7500 -106.5000 Du        
   3490 ****       225.2500 339.0000 -107.2500 Du        
   3491 ****       225.2500 339.0000 -107.0000 Du        
   3492 ****       225.2500 339.0000 -106.7500 Du        
   3493 ****       225.2500 339.0000 -106.5000 Du        
   3494 ****       225.2500 339.0000 -106.2500 Du        
   3495 ****       225.2500 339.2500 -107.0000 Du        
   3496 ****       225.2500 339.2500 -106.7500 Du        
   3497 ****       225.2500 339.2500 -106.5000 Du        
   3498 ****       225.2500 339.2500 -106.2500 Du        
   3499 ****       225.2500 339.5000 -107.0000 Du        
   3500 ****       225.2500 339.5000 -106.7500 Du        
   3501 ****       225.2500 339.5000 -106.5000 Du        
   3502 ****       225.2500 339.5000 -106.2500 Du        
   3503 ****       225.2500 339.7500 -106.7500 Du        
   3504 ****       225.2500 339.7500 -106.5000 Du        
   3505 ****       225.2500 339.7500 -106.2500 Du        
   3506 ****       225.5000 338.2500 -107.0000 Du        
   3507 ****       225.5000 338.2500 -106.7500 Du        
   3508 ****       225.5000 338.5000 -107.2500 Du        
   3509 ****       225.5000 338.5000 -107.0000 Du        
   3510 ****       225.5000 338.5000 -106.7500 Du        
   3511 ****       225.5000 338.5000 -106.5000 Du        
   3512 ****       225.5000 338.5000 -106.2500 Du        
   3513 ****       225.5000 338.7500 -107.2500 Du        
   3514 ****       225.5000 338.7500 -107.0000 Du        
   3515 ****       225.5000 338.7500 -106.7500 Du        
   3516 ****       225.5000 338.7500 -106.5000 Du        
   3517 ****       225.5000 338.7500 -106.2500 Du        
   3518 ****       225.5000 339.0000 -107.2500 Du        
   3519 ****       225.5000 339.0000 -107.0000 Du        
   3520 ****       225.5000 339.0000 -106.7500 Du        
   3521 ****       225.5000 339.0000 -106.5000 Du        
   3522 ****       225.5000 339.0000 -106.2500 Du        
   3523 ****       225.5000 339.2500 -107.0000 Du        
   3524 ****       225.5000 339.2500 -106.7500 Du        
   3525 ****       225.5000 339.2500 -106.5000 Du        
   3526 ****       225.5000 339.2500 -106.2500 Du        
   3527 ****       225.5000 339.5000 -106.7500 Du        
   3528 ****       225.5000 339.5000 -106.5000 Du        
   3529 ****       225.5000 339.5000 -106.2500 Du        
   3530 ****       225.7500 338.2500 -107.0000 Du        
   3531 ****       225.7500 338.2500 -106.7500 Du        
   3532 ****       225.7500 338.5000 -107.0000 Du        
   3533 ****       225.7500 338.5000 -106.7500 Du        
   3534 ****       225.7500 338.5000 -106.5000 Du        
   3535 ****       225.7500 338.5000 -106.2500 Du        
   3536 ****       225.7500 338.7500 -107.0000 Du        
   3537 ****       225.7500 338.7500 -106.7500 Du        
   3538 ****       225.7500 338.7500 -106.5000 Du        
   3539 ****       225.7500 338.7500 -106.2500 Du        
   3540 ****       225.7500 339.0000 -107.0000 Du        
   3541 ****       225.7500 339.0000 -106.7500 Du        
   3542 ****       225.7500 339.0000 -106.5000 Du        
   3543 ****       227.5000 336.7500 -104.5000 Du        
   3544 ****       227.5000 337.0000 -105.0000 Du        
   3545 ****       227.5000 337.2500 -105.2500 Du        
   3546 ****       227.5000 337.2500 -105.0000 Du        
   3547 ****       227.7500 336.5000 -106.0000 Du        
   3548 ****       227.7500 336.5000 -105.7500 Du        
   3549 ****       227.7500 336.5000 -105.0000 Du        
   3550 ****       227.7500 336.5000 -104.7500 Du        
   3551 ****       227.7500 336.5000 -104.5000 Du        
   3552 ****       227.7500 336.5000 -104.2500 Du        
   3553 ****       227.7500 336.5000 -104.0000 Du        
   3554 ****       227.7500 336.7500 -106.0000 Du        
   3555 ****       227.7500 336.7500 -105.7500 Du        
   3556 ****       227.7500 336.7500 -105.2500 Du        
   3557 ****       227.7500 336.7500 -105.0000 Du        
   3558 ****       227.7500 336.7500 -104.7500 Du        
   3559 ****       227.7500 336.7500 -104.5000 Du        
   3560 ****       227.7500 336.7500 -104.2500 Du        
   3561 ****       227.7500 336.7500 -104.0000 Du        
   3562 ****       227.7500 337.0000 -105.7500 Du        
   3563 ****       227.7500 337.0000 -105.2500 Du        
   3564 ****       227.7500 337.0000 -105.0000 Du        
   3565 ****       227.7500 337.0000 -104.7500 Du        
   3566 ****       227.7500 337.0000 -104.5000 Du        
   3567 ****       227.7500 337.0000 -104.2500 Du        
   3568 ****       227.7500 337.2500 -105.2500 Du        
   3569 ****       227.7500 337.2500 -105.0000 Du        
   3570 ****       227.7500 337.2500 -104.7500 Du        
   3571 ****       227.7500 337.5000 -105.2500 Du        
   3572 ****       227.7500 337.5000 -105.0000 Du        
   3573 ****       228.0000 336.2500 -105.0000 Du        
   3574 ****       228.0000 336.2500 -104.7500 Du        
   3575 ****       228.0000 336.2500 -104.5000 Du        
   3576 ****       228.0000 336.2500 -104.2500 Du        
   3577 ****       228.0000 336.2500 -104.0000 Du        
   3578 ****       228.0000 336.5000 -106.2500 Du        
   3579 ****       228.0000 336.5000 -106.0000 Du        
   3580 ****       228.0000 336.5000 -105.7500 Du        
   3581 ****       228.0000 336.5000 -105.2500 Du        
   3582 ****       228.0000 336.5000 -105.0000 Du        
   3583 ****       228.0000 336.5000 -104.7500 Du        
   3584 ****       228.0000 336.5000 -104.5000 Du        
   3585 ****       228.0000 336.5000 -104.2500 Du        
   3586 ****       228.0000 336.5000 -104.0000 Du        
   3587 ****       228.0000 336.5000 -103.7500 Du        
   3588 ****       228.0000 336.7500 -106.0000 Du        
   3589 ****       228.0000 336.7500 -105.7500 Du        
   3590 ****       228.0000 336.7500 -105.5000 Du        
   3591 ****       228.0000 336.7500 -105.2500 Du        
   3592 ****       228.0000 336.7500 -105.0000 Du        
   3593 ****       228.0000 336.7500 -104.7500 Du        
   3594 ****       228.0000 336.7500 -104.5000 Du        
   3595 ****       228.0000 336.7500 -104.2500 Du        
   3596 ****       228.0000 336.7500 -104.0000 Du        
   3597 ****       228.0000 336.7500 -103.7500 Du        
   3598 ****       228.0000 337.0000 -105.7500 Du        
   3599 ****       228.0000 337.0000 -105.5000 Du        
   3600 ****       228.0000 337.0000 -105.2500 Du        
   3601 ****       228.0000 337.0000 -105.0000 Du        
   3602 ****       228.0000 337.0000 -104.7500 Du        
   3603 ****       228.0000 337.0000 -104.5000 Du        
   3604 ****       228.0000 337.0000 -104.2500 Du        
   3605 ****       228.0000 337.0000 -104.0000 Du        
   3606 ****       228.0000 337.0000 -103.7500 Du        
   3607 ****       228.0000 337.2500 -105.2500 Du        
   3608 ****       228.0000 337.2500 -105.0000 Du        
   3609 ****       228.0000 337.2500 -104.7500 Du        
   3610 ****       228.0000 337.2500 -104.5000 Du        
   3611 ****       228.0000 337.2500 -104.2500 Du        
   3612 ****       228.0000 337.5000 -105.2500 Du        
   3613 ****       228.0000 337.5000 -105.0000 Du        
   3614 ****       228.0000 337.5000 -104.7500 Du        
   3615 ****       228.0000 337.5000 -104.5000 Du        
   3616 ****       228.0000 337.7500 -105.2500 Du        
   3617 ****       228.0000 337.7500 -105.0000 Du        
   3618 ****       228.0000 337.7500 -104.7500 Du        
   3619 ****       228.0000 338.0000 -105.0000 Du        
   3620 ****       228.2500 336.2500 -105.0000 Du        
   3621 ****       228.2500 336.2500 -104.7500 Du        
   3622 ****       228.2500 336.2500 -104.5000 Du        
   3623 ****       228.2500 336.2500 -104.2500 Du        
   3624 ****       228.2500 336.2500 -104.0000 Du        
   3625 ****       228.2500 336.5000 -106.0000 Du        
   3626 ****       228.2500 336.5000 -105.7500 Du        
   3627 ****       228.2500 336.5000 -105.2500 Du        
   3628 ****       228.2500 336.5000 -105.0000 Du        
   3629 ****       228.2500 336.5000 -104.7500 Du        
   3630 ****       228.2500 336.5000 -104.5000 Du        
   3631 ****       228.2500 336.5000 -104.2500 Du        
   3632 ****       228.2500 336.5000 -104.0000 Du        
   3633 ****       228.2500 336.5000 -103.7500 Du        
   3634 ****       228.2500 336.7500 -106.0000 Du        
   3635 ****       228.2500 336.7500 -105.7500 Du        
   3636 ****       228.2500 336.7500 -105.5000 Du        
   3637 ****       228.2500 336.7500 -105.2500 Du        
   3638 ****       228.2500 336.7500 -105.0000 Du        
   3639 ****       228.2500 336.7500 -104.7500 Du        
   3640 ****       228.2500 336.7500 -104.5000 Du        
   3641 ****       228.2500 336.7500 -104.2500 Du        
   3642 ****       228.2500 336.7500 -104.0000 Du        
   3643 ****       228.2500 336.7500 -103.7500 Du        
   3644 ****       228.2500 336.7500 -103.5000 Du        
   3645 ****       228.2500 337.0000 -105.7500 Du        
   3646 ****       228.2500 337.0000 -105.5000 Du        
   3647 ****       228.2500 337.0000 -105.2500 Du        
   3648 ****       228.2500 337.0000 -105.0000 Du        
   3649 ****       228.2500 337.0000 -104.7500 Du        
   3650 ****       228.2500 337.0000 -104.5000 Du        
   3651 ****       228.2500 337.0000 -104.2500 Du        
   3652 ****       228.2500 337.0000 -104.0000 Du        
   3653 ****       228.2500 337.0000 -103.7500 Du        
   3654 ****       228.2500 337.0000 -103.5000 Du        
   3655 ****       228.2500 337.2500 -105.2500 Du        
   3656 ****       228.2500 337.2500 -105.0000 Du        
   3657 ****       228.2500 337.2500 -104.7500 Du        
   3658 ****       228.2500 337.2500 -104.5000 Du        
   3659 ****       228.2500 337.2500 -104.2500 Du        
   3660 ****       228.2500 337.2500 -104.0000 Du        
   3661 ****       228.2500 337.2500 -103.7500 Du        
   3662 ****       228.2500 337.2500 -103.5000 Du        
   3663 ****       228.2500 337.5000 -105.2500 Du        
   3664 ****       228.2500 337.5000 -105.0000 Du        
   3665 ****       228.2500 337.5000 -104.7500 Du        
   3666 ****       228.2500 337.5000 -104.5000 Du        
   3667 ****       228.2500 337.5000 -104.2500 Du        
   3668 ****       228.2500 337.5000 -104.0000 Du        
   3669 ****       228.2500 337.5000 -103.7500 Du        
   3670 ****       228.2500 337.7500 -105.2500 Du        
   3671 ****       228.2500 337.7500 -105.0000 Du        
   3672 ****       228.2500 337.7500 -104.7500 Du        
   3673 ****       228.2500 337.7500 -104.5000 Du        
   3674 ****       228.2500 337.7500 -104.2500 Du        
   3675 ****       228.2500 338.0000 -105.0000 Du        
   3676 ****       228.2500 338.0000 -104.7500 Du        
   3677 ****       228.2500 338.0000 -104.5000 Du        
   3678 ****       228.5000 336.0000 -104.5000 Du        
   3679 ****       228.5000 336.0000 -104.2500 Du        
   3680 ****       228.5000 336.2500 -105.0000 Du        
   3681 ****       228.5000 336.2500 -104.7500 Du        
   3682 ****       228.5000 336.2500 -104.5000 Du        
   3683 ****       228.5000 336.2500 -104.2500 Du        
   3684 ****       228.5000 336.2500 -104.0000 Du        
   3685 ****       228.5000 336.2500 -103.7500 Du        
   3686 ****       228.5000 336.5000 -105.5000 Du        
   3687 ****       228.5000 336.5000 -105.2500 Du        
   3688 ****       228.5000 336.5000 -105.0000 Du        
   3689 ****       228.5000 336.5000 -104.7500 Du        
   3690 ****       228.5000 336.5000 -104.5000 Du        
   3691 ****       228.5000 336.5000 -104.2500 Du        
   3692 ****       228.5000 336.5000 -104.0000 Du        
   3693 ****       228.5000 336.5000 -103.7500 Du        
   3694 ****       228.5000 336.5000 -103.5000 Du        
   3695 ****       228.5000 336.7500 -105.5000 Du        
   3696 ****       228.5000 336.7500 -105.2500 Du        
   3697 ****       228.5000 336.7500 -105.0000 Du        
   3698 ****       228.5000 336.7500 -104.7500 Du        
   3699 ****       228.5000 336.7500 -104.5000 Du        
   3700 ****       228.5000 336.7500 -104.2500 Du        
   3701 ****       228.5000 336.7500 -104.0000 Du        
   3702 ****       228.5000 336.7500 -103.7500 Du        
   3703 ****       228.5000 336.7500 -103.5000 Du        
   3704 ****       228.5000 336.7500 -103.2500 Du        
   3705 ****       228.5000 337.0000 -105.5000 Du        
   3706 ****       228.5000 337.0000 -105.2500 Du        
   3707 ****       228.5000 337.0000 -105.0000 Du        
   3708 ****       228.5000 337.0000 -104.7500 Du        
   3709 ****       228.5000 337.0000 -104.5000 Du        
   3710 ****       228.5000 337.0000 -104.2500 Du        
   3711 ****       228.5000 337.0000 -104.0000 Du        
   3712 ****       228.5000 337.0000 -103.7500 Du        
   3713 ****       228.5000 337.0000 -103.5000 Du        
   3714 ****       228.5000 337.0000 -103.2500 Du        
   3715 ****       228.5000 337.2500 -105.2500 Du        
   3716 ****       228.5000 337.2500 -105.0000 Du        
   3717 ****       228.5000 337.2500 -104.7500 Du        
   3718 ****       228.5000 337.2500 -104.5000 Du        
   3719 ****       228.5000 337.2500 -104.2500 Du        
   3720 ****       228.5000 337.2500 -104.0000 Du        
   3721 ****       228.5000 337.2500 -103.7500 Du        
   3722 ****       228.5000 337.2500 -103.5000 Du        
   3723 ****       228.5000 337.2500 -103.2500 Du        
   3724 ****       228.5000 337.5000 -105.2500 Du        
   3725 ****       228.5000 337.5000 -105.0000 Du        
   3726 ****       228.5000 337.5000 -104.7500 Du        
   3727 ****       228.5000 337.5000 -104.5000 Du        
   3728 ****       228.5000 337.5000 -104.2500 Du        
   3729 ****       228.5000 337.5000 -104.0000 Du        
   3730 ****       228.5000 337.5000 -103.7500 Du        
   3731 ****       228.5000 337.5000 -103.5000 Du        
   3732 ****       228.5000 337.5000 -103.2500 Du        
   3733 ****       228.5000 337.7500 -105.0000 Du        
   3734 ****       228.5000 337.7500 -104.7500 Du        
   3735 ****       228.5000 337.7500 -104.5000 Du        
   3736 ****       228.5000 337.7500 -104.2500 Du        
   3737 ****       228.5000 337.7500 -104.0000 Du        
   3738 ****       228.5000 337.7500 -103.7500 Du        
   3739 ****       228.5000 337.7500 -103.5000 Du        
   3740 ****       228.5000 337.7500 -103.2500 Du        
   3741 ****       228.5000 338.0000 -105.0000 Du        
   3742 ****       228.5000 338.0000 -104.7500 Du        
   3743 ****       228.5000 338.0000 -104.5000 Du        
   3744 ****       228.5000 338.0000 -104.2500 Du        
   3745 ****       228.5000 338.0000 -104.0000 Du        
   3746 ****       228.5000 338.2500 -104.7500 Du        
   3747 ****       228.5000 338.2500 -104.5000 Du        
   3748 ****       228.5000 338.2500 -104.2500 Du        
   3749 ****       228.7500 337.0000 -103.7500 Du        
   3750 ****       228.7500 337.0000 -103.5000 Du        
   3751 ****       228.7500 337.0000 -103.2500 Du        
   3752 ****       228.7500 337.2500 -103.7500 Du        
   3753 ****       228.7500 337.2500 -103.5000 Du        
   3754 ****       228.7500 337.2500 -103.2500 Du        
   3755 ****       228.7500 337.2500 -103.0000 Du        
   3756 ****       228.7500 337.5000 -104.0000 Du        
   3757 ****       228.7500 337.5000 -103.7500 Du        
   3758 ****       228.7500 337.5000 -103.5000 Du        
   3759 ****       228.7500 337.5000 -103.2500 Du        
   3760 ****       228.7500 337.5000 -103.0000 Du        
   3761 ****       228.7500 337.7500 -105.0000 Du        
   3762 ****       228.7500 337.7500 -104.7500 Du        
   3763 ****       228.7500 337.7500 -104.5000 Du        
   3764 ****       228.7500 337.7500 -104.2500 Du        
   3765 ****       228.7500 337.7500 -104.0000 Du        
   3766 ****       228.7500 337.7500 -103.7500 Du        
   3767 ****       228.7500 337.7500 -103.5000 Du        
   3768 ****       228.7500 337.7500 -103.2500 Du        
   3769 ****       228.7500 337.7500 -103.0000 Du        
   3770 ****       228.7500 338.0000 -105.0000 Du        
   3771 ****       228.7500 338.0000 -104.7500 Du        
   3772 ****       228.7500 338.0000 -104.5000 Du        
   3773 ****       228.7500 338.0000 -104.2500 Du        
   3774 ****       228.7500 338.0000 -104.0000 Du        
   3775 ****       228.7500 338.0000 -103.7500 Du        
   3776 ****       228.7500 338.0000 -103.5000 Du        
   3777 ****       228.7500 338.0000 -103.2500 Du        
   3778 ****       228.7500 338.0000 -103.0000 Du        
   3779 ****       228.7500 338.2500 -104.7500 Du        
   3780 ****       228.7500 338.2500 -104.5000 Du        
   3781 ****       228.7500 338.2500 -104.2500 Du        
   3782 ****       228.7500 338.2500 -104.0000 Du        
   3783 ****       228.7500 338.2500 -103.7500 Du        
   3784 ****       228.7500 338.2500 -103.5000 Du        
   3785 ****       228.7500 338.2500 -103.2500 Du        
   3786 ****       228.7500 338.2500 -103.0000 Du        
   3787 ****       228.7500 338.5000 -104.7500 Du        
   3788 ****       228.7500 338.5000 -104.5000 Du        
   3789 ****       228.7500 338.5000 -104.2500 Du        
   3790 ****       228.7500 338.5000 -104.0000 Du        
   3791 ****       229.0000 337.5000 -103.0000 Du        
   3792 ****       229.0000 337.7500 -103.2500 Du        
   3793 ****       229.0000 337.7500 -103.0000 Du        
   3794 ****       229.0000 337.7500 -102.7500 Du        
   3795 ****       229.0000 338.0000 -103.5000 Du        
   3796 ****       229.0000 338.0000 -103.2500 Du        
   3797 ****       229.0000 338.0000 -103.0000 Du        
   3798 ****       229.0000 338.0000 -102.7500 Du        
   3799 ****       229.0000 338.2500 -103.5000 Du        
   3800 ****       229.0000 338.2500 -103.2500 Du        
   3801 ****       229.0000 338.2500 -103.0000 Du        
   3802 ****       229.0000 338.2500 -102.7500 Du        
   3803 ****       229.0000 338.5000 -104.0000 Du        
   3804 ****       229.0000 338.5000 -103.7500 Du        
   3805 ****       229.0000 338.5000 -103.5000 Du        
   3806 ****       229.0000 338.5000 -103.2500 Du        
   3807 ****       229.0000 338.5000 -103.0000 Du        
   3808 ****       229.2500 338.0000 -102.7500 Du        
   3809 ****       229.2500 338.2500 -103.0000 Du        
   3810 ****       229.2500 338.2500 -102.7500 Du        
