#       Name:                CT1002167954
#       Creating user name   hitesit
#       Creation time:       Sun Apr 16 02:33:46 2023


#       File generated by GOLD software.
#

@<TRIPOS>MOLECULE
CT1002167954|ligand_prepared|mol2|1|dock7
    29    30     1
SMALL
NO_CHARGES


@<TRIPOS>ATOM
      1 C1         220.6396 343.3238 -111.6319 C.3            1 RES1               0.0000
      2 C2         221.7927 343.9806 -112.4179 C.ar           1 RES1               0.0000
      3 C3         220.1760 344.3564 -110.6086 C.2            1 RES1               0.0000
      4 C4         219.5798 342.9498 -112.6623 C.2            1 RES1               0.0000
      5 C5         221.0498 342.0365 -110.8796 C.3            1 RES1               0.0000
      6 C6         222.9774 344.3311 -111.7773 C.ar           1 RES1               0.0000
      7 C7         221.6878 344.2392 -113.7820 C.ar           1 RES1               0.0000
      8 N8         218.9887 344.9862 -110.8399 N.am           1 RES1               0.0000
      9 O9         220.8607 344.6422 -109.6341 O.2            1 RES1               0.0000
     10 N10        218.3720 343.5946 -112.6043 N.am           1 RES1               0.0000
     11 O11        219.7855 342.1144 -113.5341 O.2            1 RES1               0.0000
     12 C12        219.8791 341.2873 -110.2629 C.3            1 RES1               0.0000
     13 C13        224.0206 344.9162 -112.4756 C.ar           1 RES1               0.0000
     14 C14        222.7322 344.8247 -114.4783 C.ar           1 RES1               0.0000
     15 C15        218.0393 344.6178 -111.7589 C.2            1 RES1               0.0000
     16 C16        223.8989 345.1630 -113.8265 C.ar           1 RES1               0.0000
     17 O17        216.9513 345.1848 -111.8035 O.2            1 RES1               0.0000
     18 H18        221.5674 341.3685 -111.5791 H              1 RES1               0.0000
     19 H19        221.7570 342.3025 -110.0843 H              1 RES1               0.0000
     20 H20        223.0905 344.1468 -110.7142 H              1 RES1               0.0000
     21 H21        220.7788 343.9824 -114.3153 H              1 RES1               0.0000
     22 H22        218.7882 345.8071 -110.2775 H              1 RES1               0.0000
     23 H23        217.6546 343.2830 -113.2511 H              1 RES1               0.0000
     24 H24        220.2221 340.3927 -109.7474 H              1 RES1               0.0000
     25 H25        219.3564 341.9137 -109.5431 H              1 RES1               0.0000
     26 H26        219.1678 340.9853 -111.0289 H              1 RES1               0.0000
     27 H27        224.9363 345.1819 -111.9577 H              1 RES1               0.0000
     28 H28        222.6318 345.0177 -115.5413 H              1 RES1               0.0000
     29 H29        224.7164 345.6211 -114.3734 H              1 RES1               0.0000
@<TRIPOS>BOND
    1    1    2 1     
    2    1    3 1     
    3    1    4 1     
    4    1    5 1     
    5    2    6 ar    
    6    2    7 ar    
    7    3    8 1     
    8    3    9 2     
    9    4   10 1     
   10    4   11 2     
   11    5   12 1     
   12    5   18 1     
   13    5   19 1     
   14    6   13 ar    
   15    6   20 1     
   16    7   14 ar    
   17    7   21 1     
   18    8   15 1     
   19    8   22 1     
   20   10   15 1     
   21   10   23 1     
   22   12   24 1     
   23   12   25 1     
   24   12   26 1     
   25   13   16 ar    
   26   13   27 1     
   27   14   16 ar    
   28   14   28 1     
   29   15   17 2     
   30   16   29 1     
@<TRIPOS>SUBSTRUCTURE
      1 RES1           1
@<TRIPOS>SET
DONOR_HYDROGENS      STATIC     ATOMS    <user>   **** ""
2 22 23
ATOM$RED        STATIC     ATOMS    COLORGROUP SYSTEM
2 22 23
@<TRIPOS>COMMENT
> <Gold.Version>
2022.3.0

> <Gold.Id.Protein>
unknown|7ts3_clean|pdb

> <Gold.Protein.RotatedTorsions>
[ 7881 7855 7856 7857 ] final   97.20 input   70.76 | X-H torsion
[ 7957 7941 7942 7943 ] final  115.38 input   58.28 | X-H torsion
[ 8037 8019 8020 8021 ] final   42.93 input   92.82 | X-H torsion
[ 8097 8083 8084 8085 ] final -163.95 input   78.42 | X-H torsion
[ 8177 8155 8156 8157 ] final   49.19 input   79.32 | X-H torsion
[ 9486 9456 9455 9453 ] final  -94.44 input   59.97 | X-H torsion
[ 7821 7805 7806 7807 ] final   76.15 input   99.19 | X-H torsion
[ 7825 7810 7809 7806 ] final  149.47 input   59.97 | X-H torsion
[ 7891 7863 7862 7861 ] final -177.97 input   59.98 | X-H torsion
[ 6481 6465 6466 6467 ] final  138.94 input  110.33 | X-H torsion
[ 6573 6549 6550 6551 ] final  -55.94 input  127.07 | X-H torsion
[ 8245 8229 8230 8231 ] final -133.32 input   96.27 | X-H torsion
[ 10140 10113 10114 10115 ] final   10.60 input   44.66 | X-H torsion
[ 6713 6695 6696 6697 ] final  175.43 input  119.33 | X-H torsion
[ 27271 7808 7807 7806 ] final  124.99 input   -0.00 | X-H torsion
[ 27274 7858 7857 7856 ] final  -15.40 input   -0.00 | X-H torsion
[ 27277 7944 7943 7942 ] final   48.99 input   -0.00 | X-H torsion
[ 27280 8022 8021 8020 ] final -164.51 input    0.00 | X-H torsion
[ 27283 8086 8085 8084 ] final  -92.81 input   -0.00 | X-H torsion
[ 27288 10020 10019 10017 ] final -156.07 input   -0.00 | X-H torsion
[ 27290 6468 6467 6466 ] final -106.87 input    0.00 | X-H torsion
[ 27292 7728 7727 7726 ] final -137.95 input   -0.00 | X-H torsion
[ 27299 6228 6227 6226 ] final -140.64 input   -0.00 | X-H torsion
[ 27303 10116 10115 10114 ] final    0.06 input    0.00 | X-H torsion
[ 27305 6274 6273 6272 ] final  130.80 input    0.00 | X-H torsion

> <Gold.Protein.ActiveResidues>
 ASP403  THR404  ILE407  TYR408  ALA410  LYS411  TRP426  SER427  LYS428  LEU429 
 GLN430  VAL431  PHE432  ASP433  TYR453  SER462  ALA463  ILE464 

> <Gold.Protein.RotatedAtoms>
  228.3858  341.7264 -100.6108 H   0  0  0  0  0  0  0  0  0  0  0  0  # atno 6481 bound_to 6465
  227.2240  344.8683 -101.2293 H   0  0  0  0  0  0  0  0  0  0  0  0  # atno 6573 bound_to 6549
  228.4483  347.3172 -103.9004 H   0  0  0  0  0  0  0  0  0  0  0  0  # atno 6713 bound_to 6695
  222.0248  351.6654 -107.4881 H   0  0  0  0  0  0  0  0  0  0  0  0  # atno 7821 bound_to 7805
  219.0109  349.9437 -106.0563 H   0  0  0  0  0  0  0  0  0  0  0  0  # atno 7825 bound_to 7810
  222.1364  349.9122 -108.8116 H   0  0  0  0  0  0  0  0  0  0  0  0  # atno 7881 bound_to 7855
  219.6677  345.8439 -114.8441 H   0  0  0  0  0  0  0  0  0  0  0  0  # atno 7891 bound_to 7863
  220.6651  346.1328 -113.5517 H   0  0  0  0  0  0  0  0  0  0  0  0  # atno 7892 bound_to 7863
  219.0324  345.9603 -113.3179 H   0  0  0  0  0  0  0  0  0  0  0  0  # atno 7893 bound_to 7863
  223.9042  347.5393 -108.5023 H   0  0  0  0  0  0  0  0  0  0  0  0  # atno 7957 bound_to 7941
  226.8366  344.8605 -110.6563 H   0  0  0  0  0  0  0  0  0  0  0  0  # atno 8037 bound_to 8019
  227.3074  342.8651 -108.5942 H   0  0  0  0  0  0  0  0  0  0  0  0  # atno 8097 bound_to 8083
  231.1040  340.9336 -108.4333 H   0  0  0  0  0  0  0  0  0  0  0  0  # atno 8177 bound_to 8155
  231.7133  338.6709 -106.9391 H   0  0  0  0  0  0  0  0  0  0  0  0  # atno 8245 bound_to 8229
  223.4233  341.3584 -114.9271 H   0  0  0  0  0  0  0  0  0  0  0  0  # atno 9486 bound_to 9456
  230.6579  343.5252 -110.9536 H   0  0  0  0  0  0  0  0  0  0  0  0  # atno 10140 bound_to 10113
  220.6889  347.2362 -107.1931 LP  0  0  0  0  0  0  0  0  0  0  0  0  # atno 27271 bound_to 7808
  222.0280  347.1725 -106.0964 LP  0  0  0  0  0  0  0  0  0  0  0  0  # atno 27272 bound_to 7808
  222.3579  348.6333 -107.6281 LP  0  0  0  0  0  0  0  0  0  0  0  0  # atno 27273 bound_to 7855
  222.9000  347.8956 -112.0170 LP  0  0  0  0  0  0  0  0  0  0  0  0  # atno 27274 bound_to 7858
  224.5436  347.5277 -111.6130 LP  0  0  0  0  0  0  0  0  0  0  0  0  # atno 27275 bound_to 7858
  223.3153  346.5428 -109.8188 LP  0  0  0  0  0  0  0  0  0  0  0  0  # atno 27276 bound_to 7941
  224.3855  344.7867 -107.8212 LP  0  0  0  0  0  0  0  0  0  0  0  0  # atno 27277 bound_to 7944
  225.8972  343.9451 -107.7422 LP  0  0  0  0  0  0  0  0  0  0  0  0  # atno 27278 bound_to 7944
  225.1974  344.7435 -110.0582 LP  0  0  0  0  0  0  0  0  0  0  0  0  # atno 27279 bound_to 8019
  229.4949  342.5821 -109.9291 LP  0  0  0  0  0  0  0  0  0  0  0  0  # atno 27280 bound_to 8022
  228.5365  343.6530 -110.8959 LP  0  0  0  0  0  0  0  0  0  0  0  0  # atno 27281 bound_to 8022
  227.0772  341.1410 -108.7718 LP  0  0  0  0  0  0  0  0  0  0  0  0  # atno 27282 bound_to 8083
  228.7776  338.8699 -106.7195 LP  0  0  0  0  0  0  0  0  0  0  0  0  # atno 27283 bound_to 8086
  227.9335  338.9281 -108.2308 LP  0  0  0  0  0  0  0  0  0  0  0  0  # atno 27284 bound_to 8086
  229.5255  340.1801 -108.5451 LP  0  0  0  0  0  0  0  0  0  0  0  0  # atno 27285 bound_to 8155
  224.2700  341.4561 -113.5410 LP  0  0  0  0  0  0  0  0  0  0  0  0  # atno 27286 bound_to 9456
  223.5215  340.0628 -113.9475 LP  0  0  0  0  0  0  0  0  0  0  0  0  # atno 27287 bound_to 9456
  227.1095  344.6847 -112.3156 LP  0  0  0  0  0  0  0  0  0  0  0  0  # atno 27288 bound_to 10020
  225.9710  345.1151 -113.5478 LP  0  0  0  0  0  0  0  0  0  0  0  0  # atno 27289 bound_to 10020
  228.3700  346.3230 -102.0872 LP  0  0  0  0  0  0  0  0  0  0  0  0  # atno 27290 bound_to 6468
  227.0324  345.8357 -103.0739 LP  0  0  0  0  0  0  0  0  0  0  0  0  # atno 27291 bound_to 6468
  224.5203  349.3624 -107.3394 LP  0  0  0  0  0  0  0  0  0  0  0  0  # atno 27292 bound_to 7728
  225.6804  350.5113 -106.7612 LP  0  0  0  0  0  0  0  0  0  0  0  0  # atno 27293 bound_to 7728
  223.6414  351.3394 -106.9122 LP  0  0  0  0  0  0  0  0  0  0  0  0  # atno 27294 bound_to 7805
  220.0579  349.6432 -107.2651 LP  0  0  0  0  0  0  0  0  0  0  0  0  # atno 27295 bound_to 7810
  219.7507  351.1813 -106.8105 LP  0  0  0  0  0  0  0  0  0  0  0  0  # atno 27296 bound_to 7810
  229.2867  343.2101 -100.4587 LP  0  0  0  0  0  0  0  0  0  0  0  0  # atno 27297 bound_to 6465
  226.7890  344.1111  -99.7117 LP  0  0  0  0  0  0  0  0  0  0  0  0  # atno 27298 bound_to 6549
  227.8191  340.8893  -99.7801 LP  0  0  0  0  0  0  0  0  0  0  0  0  # atno 27299 bound_to 6228
  228.0869  339.6230 -100.9310 LP  0  0  0  0  0  0  0  0  0  0  0  0  # atno 27300 bound_to 6228
  231.6733  336.9720 -107.3584 LP  0  0  0  0  0  0  0  0  0  0  0  0  # atno 27301 bound_to 8229
  230.7592  345.2138 -111.4104 LP  0  0  0  0  0  0  0  0  0  0  0  0  # atno 27302 bound_to 10113
  231.0911  342.5424 -109.3829 LP  0  0  0  0  0  0  0  0  0  0  0  0  # atno 27303 bound_to 10116
  232.3203  341.3248 -109.3012 LP  0  0  0  0  0  0  0  0  0  0  0  0  # atno 27304 bound_to 10116
  226.3436  343.4923  -98.0174 LP  0  0  0  0  0  0  0  0  0  0  0  0  # atno 27305 bound_to 6274
  226.4818  342.5627  -99.4723 LP  0  0  0  0  0  0  0  0  0  0  0  0  # atno 27306 bound_to 6274

> <Gold.Score>
     Fitness  S(hb_ext) S(vdw_ext)  S(hb_int)    S(int)      intcor
     27.06       0.00      21.83       0.00      -2.95      -0.76

> <Gold.Goldscore.Fitness>
27.0586

> <Gold.Goldscore.Internal.Vdw>
-3.2494

> <Gold.Goldscore.Internal.Torsion>
-0.4623

> <Gold.Goldscore.External.Vdw>
21.8268

> <Gold.Goldscore.Internal.HBond>
0.0000

> <Gold.Goldscore.External.HBond>
0.0000

> <Gold.Goldscore.Internal.Correction>
-0.7585

> <Gold.Goldscore.Internal.Vdw.Weighted>
-3.2494

> <Gold.Goldscore.Internal.Torsion.Weighted>
-0.4623

> <Gold.Goldscore.External.Vdw.Weighted>
30.0118

> <Gold.Goldscore.Internal.HBond.Weighted>
0.0000

> <Gold.Goldscore.External.HBond.Weighted>
0.0000

> <Gold.Goldscore.Internal.Correction.Weighted>
-0.7585

> <Gold.Rescore>
     Score     S(PLP)   S(hbond)     S(cho)   S(metal)  DE(clash)   DE(tors)     intcor
     26.40     -28.33       0.00       0.00       0.00       1.18       0.37       ----

> <Gold.PLP.Fitness>
26.4038

> <Gold.PLP.PLP>
-28.3265

> <Gold.PLP.part.hbond>
0.0000

> <Gold.PLP.part.metal>
0.0000

> <Gold.PLP.part.buried>
-2.7739

> <Gold.PLP.part.nonpolar>
-26.6923

> <Gold.PLP.part.repulsive>
0.2674

> <Gold.PLP.ligand.clash>
1.1817

> <Gold.PLP.ligand.torsion>
0.3705

> <Gold.PLP.Chemscore.Hbond>
0.0000

> <Gold.PLP.Chemscore.CHOScore>
0.0000

> <Gold.PLP.Chemscore.Metal>
0.0000

> <Gold.PLP.Chemscore.Internal.Correction>
   9.000000E+99

