#       Name:                CT1002167954
#       Creating user name   hitesit
#       Creation time:       Sun Apr 16 02:33:45 2023


#       File generated by GOLD software.
#

@<TRIPOS>MOLECULE
CT1002167954|ligand_prepared|mol2|1|dock4
    29    30     1
SMALL
NO_CHARGES


@<TRIPOS>ATOM
      1 C1         222.8461 341.2102 -107.8212 C.3            1 RES1               0.0000
      2 C2         222.5514 341.9463 -109.1441 C.ar           1 RES1               0.0000
      3 C3         221.9334 341.8354 -106.7704 C.2            1 RES1               0.0000
      4 C4         222.5717 339.7337 -108.0844 C.2            1 RES1               0.0000
      5 C5         224.3106 341.3462 -107.3434 C.3            1 RES1               0.0000
      6 C6         222.9480 343.2682 -109.3230 C.ar           1 RES1               0.0000
      7 C7         221.8873 341.3171 -110.1936 C.ar           1 RES1               0.0000
      8 N8         220.8595 341.1064 -106.3519 N.am           1 RES1               0.0000
      9 O9         222.1306 342.9668 -106.3445 O.2            1 RES1               0.0000
     10 N10        221.5323 339.1443 -107.4136 N.am           1 RES1               0.0000
     11 O11        223.2358 339.0795 -108.8790 O.2            1 RES1               0.0000
     12 C12        224.6244 340.5420 -106.0916 C.3            1 RES1               0.0000
     13 C13        222.6926 343.9360 -110.5093 C.ar           1 RES1               0.0000
     14 C14        221.6327 341.9868 -111.3790 C.ar           1 RES1               0.0000
     15 C15        220.6446 339.7714 -106.5824 C.2            1 RES1               0.0000
     16 C16        222.0353 343.2957 -111.5381 C.ar           1 RES1               0.0000
     17 O17        219.7020 339.1847 -106.0584 O.2            1 RES1               0.0000
     18 H18        224.9773 341.0179 -108.1504 H              1 RES1               0.0000
     19 H19        224.5204 342.4045 -107.1449 H              1 RES1               0.0000
     20 H20        223.4643 343.7892 -108.5236 H              1 RES1               0.0000
     21 H21        221.5603 340.2879 -110.0905 H              1 RES1               0.0000
     22 H22        220.1507 341.5994 -105.8182 H              1 RES1               0.0000
     23 H23        221.4090 338.1455 -107.5461 H              1 RES1               0.0000
     24 H24        225.6642 340.6729 -105.7996 H              1 RES1               0.0000
     25 H25        223.9968 340.8597 -105.2616 H              1 RES1               0.0000
     26 H26        224.4509 339.4813 -106.2611 H              1 RES1               0.0000
     27 H27        223.0103 344.9665 -110.6290 H              1 RES1               0.0000
     28 H28        221.1145 341.4791 -112.1859 H              1 RES1               0.0000
     29 H29        221.8357 343.8189 -112.4675 H              1 RES1               0.0000
@<TRIPOS>BOND
    1    1    2 1     
    2    1    3 1     
    3    1    4 1     
    4    1    5 1     
    5    2    6 ar    
    6    2    7 ar    
    7    3    8 1     
    8    3    9 2     
    9    4   10 1     
   10    4   11 2     
   11    5   12 1     
   12    5   18 1     
   13    5   19 1     
   14    6   13 ar    
   15    6   20 1     
   16    7   14 ar    
   17    7   21 1     
   18    8   15 1     
   19    8   22 1     
   20   10   15 1     
   21   10   23 1     
   22   12   24 1     
   23   12   25 1     
   24   12   26 1     
   25   13   16 ar    
   26   13   27 1     
   27   14   16 ar    
   28   14   28 1     
   29   15   17 2     
   30   16   29 1     
@<TRIPOS>SUBSTRUCTURE
      1 RES1           1
@<TRIPOS>SET
DONOR_HYDROGENS      STATIC     ATOMS    <user>   **** ""
2 22 23
ATOM$RED        STATIC     ATOMS    COLORGROUP SYSTEM
2 22 23
@<TRIPOS>COMMENT
> <Gold.Version>
2022.3.0

> <Gold.Id.Protein>
unknown|7ts3_clean|pdb

> <Gold.Protein.RotatedTorsions>
[ 7881 7855 7856 7857 ] final  132.08 input   70.76 | X-H torsion
[ 7957 7941 7942 7943 ] final  141.11 input   58.28 | X-H torsion
[ 8037 8019 8020 8021 ] final  -20.82 input   92.82 | X-H torsion
[ 8097 8083 8084 8085 ] final  178.52 input   78.42 | X-H torsion
[ 8177 8155 8156 8157 ] final  121.68 input   79.32 | X-H torsion
[ 9486 9456 9455 9453 ] final  -32.47 input   59.97 | X-H torsion
[ 7821 7805 7806 7807 ] final    8.52 input   99.19 | X-H torsion
[ 7825 7810 7809 7806 ] final  -40.87 input   59.97 | X-H torsion
[ 7891 7863 7862 7861 ] final  133.59 input   59.98 | X-H torsion
[ 6481 6465 6466 6467 ] final  -88.54 input  110.33 | X-H torsion
[ 6573 6549 6550 6551 ] final  -69.01 input  127.07 | X-H torsion
[ 8245 8229 8230 8231 ] final -167.08 input   96.27 | X-H torsion
[ 10140 10113 10114 10115 ] final   20.52 input   44.66 | X-H torsion
[ 6713 6695 6696 6697 ] final -159.29 input  119.33 | X-H torsion
[ 27271 7808 7807 7806 ] final -121.52 input   -0.00 | X-H torsion
[ 27274 7858 7857 7856 ] final  -66.55 input   -0.00 | X-H torsion
[ 27277 7944 7943 7942 ] final  107.79 input   -0.00 | X-H torsion
[ 27280 8022 8021 8020 ] final  -55.15 input    0.00 | X-H torsion
[ 27283 8086 8085 8084 ] final  120.76 input   -0.00 | X-H torsion
[ 27288 10020 10019 10017 ] final  151.12 input   -0.00 | X-H torsion
[ 27290 6468 6467 6466 ] final   60.84 input    0.00 | X-H torsion
[ 27292 7728 7727 7726 ] final    5.06 input   -0.00 | X-H torsion
[ 27299 6228 6227 6226 ] final   71.95 input   -0.00 | X-H torsion
[ 27303 10116 10115 10114 ] final  -51.75 input    0.00 | X-H torsion
[ 27305 6274 6273 6272 ] final -158.68 input    0.00 | X-H torsion

> <Gold.Protein.ActiveResidues>
 ASP403  THR404  ILE407  TYR408  ALA410  LYS411  TRP426  SER427  LYS428  LEU429 
 GLN430  VAL431  PHE432  ASP433  TYR453  SER462  ALA463  ILE464 

> <Gold.Protein.RotatedAtoms>
  229.5602  342.7653 -100.9275 H   0  0  0  0  0  0  0  0  0  0  0  0  # atno 6481 bound_to 6465
  227.0279  344.8403 -101.2729 H   0  0  0  0  0  0  0  0  0  0  0  0  # atno 6573 bound_to 6549
  228.7056  347.4699 -104.1429 H   0  0  0  0  0  0  0  0  0  0  0  0  # atno 6713 bound_to 6695
  222.6841  351.1313 -107.9830 H   0  0  0  0  0  0  0  0  0  0  0  0  # atno 7821 bound_to 7805
  220.1599  350.7200 -107.3025 H   0  0  0  0  0  0  0  0  0  0  0  0  # atno 7825 bound_to 7810
  221.6521  349.8035 -108.5982 H   0  0  0  0  0  0  0  0  0  0  0  0  # atno 7881 bound_to 7855
  219.0034  345.8146 -114.4266 H   0  0  0  0  0  0  0  0  0  0  0  0  # atno 7891 bound_to 7863
  220.6443  346.0307 -114.3302 H   0  0  0  0  0  0  0  0  0  0  0  0  # atno 7892 bound_to 7863
  219.7171  346.0916 -112.9567 H   0  0  0  0  0  0  0  0  0  0  0  0  # atno 7893 bound_to 7863
  223.9073  347.7903 -108.8117 H   0  0  0  0  0  0  0  0  0  0  0  0  # atno 7957 bound_to 7941
  226.6389  344.9114 -109.7426 H   0  0  0  0  0  0  0  0  0  0  0  0  # atno 8037 bound_to 8019
  227.1707  342.8182 -108.3661 H   0  0  0  0  0  0  0  0  0  0  0  0  # atno 8097 bound_to 8083
  230.5457  340.7810 -109.3177 H   0  0  0  0  0  0  0  0  0  0  0  0  # atno 8177 bound_to 8155
  231.3246  338.4595 -106.6720 H   0  0  0  0  0  0  0  0  0  0  0  0  # atno 8245 bound_to 8229
  223.2118  340.4421 -114.7163 H   0  0  0  0  0  0  0  0  0  0  0  0  # atno 9486 bound_to 9456
  230.5897  343.5778 -110.8254 H   0  0  0  0  0  0  0  0  0  0  0  0  # atno 10140 bound_to 10113
  222.0530  346.8029 -106.9710 LP  0  0  0  0  0  0  0  0  0  0  0  0  # atno 27271 bound_to 7808
  220.6639  347.6058 -106.3184 LP  0  0  0  0  0  0  0  0  0  0  0  0  # atno 27272 bound_to 7808
  222.8170  348.7363 -107.8304 LP  0  0  0  0  0  0  0  0  0  0  0  0  # atno 27273 bound_to 7855
  223.0916  347.1746 -112.0689 LP  0  0  0  0  0  0  0  0  0  0  0  0  # atno 27274 bound_to 7858
  224.3520  348.2487 -111.5611 LP  0  0  0  0  0  0  0  0  0  0  0  0  # atno 27275 bound_to 7858
  223.3123  346.3022 -109.5221 LP  0  0  0  0  0  0  0  0  0  0  0  0  # atno 27276 bound_to 7941
  224.4444  344.0031 -108.1460 LP  0  0  0  0  0  0  0  0  0  0  0  0  # atno 27277 bound_to 7944
  225.8383  344.7286 -107.4174 LP  0  0  0  0  0  0  0  0  0  0  0  0  # atno 27278 bound_to 7944
  225.3898  344.6940 -110.9472 LP  0  0  0  0  0  0  0  0  0  0  0  0  # atno 27279 bound_to 8019
  228.7656  342.7074 -111.1331 LP  0  0  0  0  0  0  0  0  0  0  0  0  # atno 27280 bound_to 8022
  229.2659  343.5277 -109.6920 LP  0  0  0  0  0  0  0  0  0  0  0  0  # atno 27281 bound_to 8022
  227.2104  341.1868 -108.9939 LP  0  0  0  0  0  0  0  0  0  0  0  0  # atno 27282 bound_to 8083
  228.3228  338.6204 -108.2945 LP  0  0  0  0  0  0  0  0  0  0  0  0  # atno 27283 bound_to 8086
  228.3882  339.1775 -106.6558 LP  0  0  0  0  0  0  0  0  0  0  0  0  # atno 27284 bound_to 8086
  230.0618  340.3266 -107.6955 LP  0  0  0  0  0  0  0  0  0  0  0  0  # atno 27285 bound_to 8155
  223.9352  341.8554 -114.3600 LP  0  0  0  0  0  0  0  0  0  0  0  0  # atno 27286 bound_to 9456
  224.0693  340.5865 -113.3409 LP  0  0  0  0  0  0  0  0  0  0  0  0  # atno 27287 bound_to 9456
  227.1257  344.2623 -112.9595 LP  0  0  0  0  0  0  0  0  0  0  0  0  # atno 27288 bound_to 10020
  225.9548  345.5375 -112.9039 LP  0  0  0  0  0  0  0  0  0  0  0  0  # atno 27289 bound_to 10020
  227.1600  345.7339 -103.1618 LP  0  0  0  0  0  0  0  0  0  0  0  0  # atno 27290 bound_to 6468
  228.2423  346.4247 -101.9993 LP  0  0  0  0  0  0  0  0  0  0  0  0  # atno 27291 bound_to 6468
  225.7423  350.4595 -107.3047 LP  0  0  0  0  0  0  0  0  0  0  0  0  # atno 27292 bound_to 7728
  224.4584  349.4142 -106.7960 LP  0  0  0  0  0  0  0  0  0  0  0  0  # atno 27293 bound_to 7728
  222.9958  351.8625 -106.4275 LP  0  0  0  0  0  0  0  0  0  0  0  0  # atno 27294 bound_to 7805
  219.0812  350.7290 -106.0844 LP  0  0  0  0  0  0  0  0  0  0  0  0  # atno 27295 bound_to 7810
  219.5699  349.3135 -106.7357 LP  0  0  0  0  0  0  0  0  0  0  0  0  # atno 27296 bound_to 7810
  228.1192  342.1775 -100.1439 LP  0  0  0  0  0  0  0  0  0  0  0  0  # atno 27297 bound_to 6465
  226.9782  344.1381  -99.6697 LP  0  0  0  0  0  0  0  0  0  0  0  0  # atno 27298 bound_to 6549
  227.6069  339.6988 -100.9209 LP  0  0  0  0  0  0  0  0  0  0  0  0  # atno 27299 bound_to 6228
  228.2991  340.8135  -99.7903 LP  0  0  0  0  0  0  0  0  0  0  0  0  # atno 27300 bound_to 6228
  232.0491  337.1763 -107.6166 LP  0  0  0  0  0  0  0  0  0  0  0  0  # atno 27301 bound_to 8229
  230.8248  345.1632 -111.5338 LP  0  0  0  0  0  0  0  0  0  0  0  0  # atno 27302 bound_to 10113
  231.4770  342.5053 -108.7331 LP  0  0  0  0  0  0  0  0  0  0  0  0  # atno 27303 bound_to 10116
  231.9344  341.3619 -109.9511 LP  0  0  0  0  0  0  0  0  0  0  0  0  # atno 27304 bound_to 10116
  227.1901  343.3416  -98.5279 LP  0  0  0  0  0  0  0  0  0  0  0  0  # atno 27305 bound_to 6274
  225.6353  342.7134  -98.9617 LP  0  0  0  0  0  0  0  0  0  0  0  0  # atno 27306 bound_to 6274

> <Gold.Score>
     Fitness  S(hb_ext) S(vdw_ext)  S(hb_int)    S(int)      intcor
     28.31       6.00      17.46       0.00      -1.69      -0.78

> <Gold.Goldscore.Fitness>
28.3135

> <Gold.Goldscore.Internal.Vdw>
-2.0843

> <Gold.Goldscore.Internal.Torsion>
-0.3905

> <Gold.Goldscore.External.Vdw>
17.4578

> <Gold.Goldscore.Internal.HBond>
0.0000

> <Gold.Goldscore.External.HBond>
6.0000

> <Gold.Goldscore.Internal.Correction>
-0.7838

> <Gold.Goldscore.Hbonds>
donor molecule, donor type, donor heavy atom, donor atom, acceptor molecule, acceptor atom, score
      P1  H  6703  6724       L1     9  1.00

> <Gold.Goldscore.Internal.Vdw.Weighted>
-2.0843

> <Gold.Goldscore.Internal.Torsion.Weighted>
-0.3905

> <Gold.Goldscore.External.Vdw.Weighted>
24.0045

> <Gold.Goldscore.Internal.HBond.Weighted>
0.0000

> <Gold.Goldscore.External.HBond.Weighted>
6.0000

> <Gold.Goldscore.Internal.Correction.Weighted>
-0.7838

> <Gold.Rescore>
     Score     S(PLP)   S(hbond)     S(cho)   S(metal)  DE(clash)   DE(tors)     intcor
     22.01     -20.84       0.93       0.00       0.00       1.08       0.27       ----

> <Gold.PLP.Fitness>
22.0070

> <Gold.PLP.PLP>
-20.8437

> <Gold.PLP.part.hbond>
-1.0000

> <Gold.PLP.part.metal>
0.0000

> <Gold.PLP.part.buried>
-3.0947

> <Gold.PLP.part.nonpolar>
-18.3734

> <Gold.PLP.part.repulsive>
1.1261

> <Gold.PLP.ligand.clash>
1.0838

> <Gold.PLP.ligand.torsion>
0.2684

> <Gold.PLP.Chemscore.Hbond>
0.9280

> <Gold.PLP.Chemscore.CHOScore>
0.0000

> <Gold.PLP.Chemscore.Metal>
0.0000

> <Gold.Chemscore.Hbonds>
donor molecule, donor type, donor heavy atom, donor atom, acceptor molecule, acceptor atom, score
      P1  H  6703  6724       L1     9  1.00
      P1  H  8026  8043       L1    11  0.05

> <Gold.PLP.Chemscore.Internal.Correction>
   9.000000E+99

