#       Name:                CT1002167954
#       Creating user name   hitesit
#       Creation time:       Sun Apr 16 02:33:43 2023


#       File generated by GOLD software.
#

@<TRIPOS>MOLECULE
CT1002167954|ligand_prepared|mol2|1|dock1
    29    30     1
SMALL
NO_CHARGES


@<TRIPOS>ATOM
      1 C1         220.9128 343.2543 -110.5159 C.3            1 RES1               0.0000
      2 C2         221.7717 343.7985 -111.6757 C.ar           1 RES1               0.0000
      3 C3         221.8253 342.3469 -109.6961 C.2            1 RES1               0.0000
      4 C4         220.4012 344.4729 -109.7556 C.2            1 RES1               0.0000
      5 C5         219.6881 342.4309 -110.9783 C.3            1 RES1               0.0000
      6 C6         221.8190 343.1313 -112.8960 C.ar           1 RES1               0.0000
      7 C7         222.5186 344.9658 -111.5413 C.ar           1 RES1               0.0000
      8 N8         222.2595 342.8112 -108.4895 N.am           1 RES1               0.0000
      9 O9         222.1904 341.2570 -110.1194 O.2            1 RES1               0.0000
     10 N10        220.8384 344.6577 -108.4701 N.am           1 RES1               0.0000
     11 O11        219.6366 345.2836 -110.2639 O.2            1 RES1               0.0000
     12 C12        218.6768 342.1638 -109.8746 C.3            1 RES1               0.0000
     13 C13        222.5829 343.6151 -113.9451 C.ar           1 RES1               0.0000
     14 C14        223.2822 345.4477 -112.5916 C.ar           1 RES1               0.0000
     15 C15        221.7683 343.8988 -107.8132 C.2            1 RES1               0.0000
     16 C16        223.3146 344.7736 -113.7939 C.ar           1 RES1               0.0000
     17 O17        222.1511 344.1603 -106.6765 O.2            1 RES1               0.0000
     18 H18        219.1879 342.9691 -111.7929 H              1 RES1               0.0000
     19 H19        220.0382 341.4705 -111.3763 H              1 RES1               0.0000
     20 H20        221.2517 342.2167 -113.0329 H              1 RES1               0.0000
     21 H21        222.5091 345.5120 -110.6042 H              1 RES1               0.0000
     22 H22        223.0199 342.3028 -108.0494 H              1 RES1               0.0000
     23 H23        220.4329 345.4328 -107.9552 H              1 RES1               0.0000
     24 H24        217.8381 341.5828 -110.2524 H              1 RES1               0.0000
     25 H25        219.1340 341.6077 -109.0588 H              1 RES1               0.0000
     26 H26        218.2887 343.0975 -109.4728 H              1 RES1               0.0000
     27 H27        222.6062 343.0801 -114.8888 H              1 RES1               0.0000
     28 H28        223.8570 346.3596 -112.4679 H              1 RES1               0.0000
     29 H29        223.9128 345.1526 -114.6160 H              1 RES1               0.0000
@<TRIPOS>BOND
    1    1    2 1     
    2    1    3 1     
    3    1    4 1     
    4    1    5 1     
    5    2    6 ar    
    6    2    7 ar    
    7    3    8 1     
    8    3    9 2     
    9    4   10 1     
   10    4   11 2     
   11    5   12 1     
   12    5   18 1     
   13    5   19 1     
   14    6   13 ar    
   15    6   20 1     
   16    7   14 ar    
   17    7   21 1     
   18    8   15 1     
   19    8   22 1     
   20   10   15 1     
   21   10   23 1     
   22   12   24 1     
   23   12   25 1     
   24   12   26 1     
   25   13   16 ar    
   26   13   27 1     
   27   14   16 ar    
   28   14   28 1     
   29   15   17 2     
   30   16   29 1     
@<TRIPOS>SUBSTRUCTURE
      1 RES1           1
@<TRIPOS>SET
DONOR_HYDROGENS      STATIC     ATOMS    <user>   **** ""
2 22 23
ATOM$RED        STATIC     ATOMS    COLORGROUP SYSTEM
2 22 23
@<TRIPOS>COMMENT
> <Gold.Version>
2022.3.0

> <Gold.Id.Protein>
unknown|7ts3_clean|pdb

> <Gold.Protein.RotatedTorsions>
[ 7881 7855 7856 7857 ] final   16.24 input   70.76 | X-H torsion
[ 7957 7941 7942 7943 ] final  123.01 input   58.28 | X-H torsion
[ 8037 8019 8020 8021 ] final  127.20 input   92.82 | X-H torsion
[ 8097 8083 8084 8085 ] final  159.04 input   78.42 | X-H torsion
[ 8177 8155 8156 8157 ] final   65.09 input   79.32 | X-H torsion
[ 9486 9456 9455 9453 ] final -100.52 input   59.97 | X-H torsion
[ 7821 7805 7806 7807 ] final   67.59 input   99.19 | X-H torsion
[ 7825 7810 7809 7806 ] final   94.95 input   59.97 | X-H torsion
[ 7891 7863 7862 7861 ] final  -19.01 input   59.98 | X-H torsion
[ 6481 6465 6466 6467 ] final  -55.88 input  110.33 | X-H torsion
[ 6573 6549 6550 6551 ] final  -60.60 input  127.07 | X-H torsion
[ 8245 8229 8230 8231 ] final -115.89 input   96.27 | X-H torsion
[ 10140 10113 10114 10115 ] final  -75.21 input   44.66 | X-H torsion
[ 6713 6695 6696 6697 ] final   53.89 input  119.33 | X-H torsion
[ 27271 7808 7807 7806 ] final   12.97 input   -0.00 | X-H torsion
[ 27274 7858 7857 7856 ] final  -60.21 input   -0.00 | X-H torsion
[ 27277 7944 7943 7942 ] final   81.05 input   -0.00 | X-H torsion
[ 27280 8022 8021 8020 ] final   22.60 input    0.00 | X-H torsion
[ 27283 8086 8085 8084 ] final    0.17 input   -0.00 | X-H torsion
[ 27288 10020 10019 10017 ] final  -92.47 input   -0.00 | X-H torsion
[ 27290 6468 6467 6466 ] final   55.17 input    0.00 | X-H torsion
[ 27292 7728 7727 7726 ] final  142.24 input   -0.00 | X-H torsion
[ 27299 6228 6227 6226 ] final   -8.35 input   -0.00 | X-H torsion
[ 27303 10116 10115 10114 ] final -150.85 input    0.00 | X-H torsion
[ 27305 6274 6273 6272 ] final    8.30 input    0.00 | X-H torsion

> <Gold.Protein.ActiveResidues>
 ASP403  THR404  ILE407  TYR408  ALA410  LYS411  TRP426  SER427  LYS428  LEU429 
 GLN430  VAL431  PHE432  ASP433  TYR453  SER462  ALA463  ILE464 

> <Gold.Protein.RotatedAtoms>
  229.4274  343.1114 -100.6050 H   0  0  0  0  0  0  0  0  0  0  0  0  # atno 6481 bound_to 6465
  227.1548  344.8605 -101.2496 H   0  0  0  0  0  0  0  0  0  0  0  0  # atno 6573 bound_to 6549
  228.5508  348.1159 -102.5925 H   0  0  0  0  0  0  0  0  0  0  0  0  # atno 6713 bound_to 6695
  222.0586  351.5941 -107.5935 H   0  0  0  0  0  0  0  0  0  0  0  0  # atno 7821 bound_to 7805
  219.4041  349.3565 -106.5420 H   0  0  0  0  0  0  0  0  0  0  0  0  # atno 7825 bound_to 7810
  223.0984  349.3224 -108.5020 H   0  0  0  0  0  0  0  0  0  0  0  0  # atno 7881 bound_to 7855
  220.2392  346.1409 -113.0759 H   0  0  0  0  0  0  0  0  0  0  0  0  # atno 7891 bound_to 7863
  218.8387  345.8589 -113.9171 H   0  0  0  0  0  0  0  0  0  0  0  0  # atno 7892 bound_to 7863
  220.2876  345.9373 -114.7200 H   0  0  0  0  0  0  0  0  0  0  0  0  # atno 7893 bound_to 7863
  223.9112  347.6271 -108.5824 H   0  0  0  0  0  0  0  0  0  0  0  0  # atno 7957 bound_to 7941
  225.7950  344.7052 -111.2088 H   0  0  0  0  0  0  0  0  0  0  0  0  # atno 8037 bound_to 8019
  227.0220  342.6763 -108.1481 H   0  0  0  0  0  0  0  0  0  0  0  0  # atno 8097 bound_to 8083
  231.0734  340.9545 -108.6777 H   0  0  0  0  0  0  0  0  0  0  0  0  # atno 8177 bound_to 8155
  231.9211  338.6664 -107.1111 H   0  0  0  0  0  0  0  0  0  0  0  0  # atno 8245 bound_to 8229
  223.4705  341.4407 -114.8980 H   0  0  0  0  0  0  0  0  0  0  0  0  # atno 9486 bound_to 9456
  231.1176  344.0934 -111.9248 H   0  0  0  0  0  0  0  0  0  0  0  0  # atno 10140 bound_to 10113
  221.1772  347.5853 -105.8884 LP  0  0  0  0  0  0  0  0  0  0  0  0  # atno 27271 bound_to 7808
  221.5397  346.8234 -107.4011 LP  0  0  0  0  0  0  0  0  0  0  0  0  # atno 27272 bound_to 7808
  221.4457  349.1924 -107.9216 LP  0  0  0  0  0  0  0  0  0  0  0  0  # atno 27273 bound_to 7855
  223.0350  347.2518 -112.0734 LP  0  0  0  0  0  0  0  0  0  0  0  0  # atno 27274 bound_to 7858
  224.4086  348.1715 -111.5566 LP  0  0  0  0  0  0  0  0  0  0  0  0  # atno 27275 bound_to 7858
  223.3085  346.4587 -109.7420 LP  0  0  0  0  0  0  0  0  0  0  0  0  # atno 27276 bound_to 7941
  224.3112  344.3622 -108.0285 LP  0  0  0  0  0  0  0  0  0  0  0  0  # atno 27277 bound_to 7944
  225.9714  344.3695 -107.5349 LP  0  0  0  0  0  0  0  0  0  0  0  0  # atno 27278 bound_to 7944
  226.2109  344.8946 -109.5207 LP  0  0  0  0  0  0  0  0  0  0  0  0  # atno 27279 bound_to 8019
  228.5522  343.7259 -110.8188 LP  0  0  0  0  0  0  0  0  0  0  0  0  # atno 27280 bound_to 8022
  229.4792  342.5091 -110.0063 LP  0  0  0  0  0  0  0  0  0  0  0  0  # atno 27281 bound_to 8022
  227.3552  341.3250 -109.2064 LP  0  0  0  0  0  0  0  0  0  0  0  0  # atno 27282 bound_to 8083
  227.7577  339.4473 -107.1718 LP  0  0  0  0  0  0  0  0  0  0  0  0  # atno 27283 bound_to 8086
  228.9533  338.3507 -107.7784 LP  0  0  0  0  0  0  0  0  0  0  0  0  # atno 27284 bound_to 8086
  229.5549  340.1600 -108.3103 LP  0  0  0  0  0  0  0  0  0  0  0  0  # atno 27285 bound_to 8155
  224.2732  341.3739 -113.4842 LP  0  0  0  0  0  0  0  0  0  0  0  0  # atno 27286 bound_to 9456
  223.4707  340.0621 -114.0337 LP  0  0  0  0  0  0  0  0  0  0  0  0  # atno 27287 bound_to 9456
  226.5220  345.3748 -112.2077 LP  0  0  0  0  0  0  0  0  0  0  0  0  # atno 27288 bound_to 10020
  226.5585  344.4250 -113.6556 LP  0  0  0  0  0  0  0  0  0  0  0  0  # atno 27289 bound_to 10020
  227.2276  345.6921 -103.1936 LP  0  0  0  0  0  0  0  0  0  0  0  0  # atno 27290 bound_to 6468
  228.1748  346.4666 -101.9676 LP  0  0  0  0  0  0  0  0  0  0  0  0  # atno 27291 bound_to 6468
  224.7055  349.7308 -106.3076 LP  0  0  0  0  0  0  0  0  0  0  0  0  # atno 27292 bound_to 7728
  225.4952  350.1429 -107.7930 LP  0  0  0  0  0  0  0  0  0  0  0  0  # atno 27293 bound_to 7728
  223.6083  351.4092 -106.8089 LP  0  0  0  0  0  0  0  0  0  0  0  0  # atno 27294 bound_to 7805
  220.2182  350.4830 -107.3880 LP  0  0  0  0  0  0  0  0  0  0  0  0  # atno 27295 bound_to 7810
  219.1943  350.9330 -106.1982 LP  0  0  0  0  0  0  0  0  0  0  0  0  # atno 27296 bound_to 7810
  228.2513  341.8334 -100.4645 LP  0  0  0  0  0  0  0  0  0  0  0  0  # atno 27297 bound_to 6465
  226.8557  344.1187  -99.6921 LP  0  0  0  0  0  0  0  0  0  0  0  0  # atno 27298 bound_to 6549
  228.6733  339.8629 -100.6323 LP  0  0  0  0  0  0  0  0  0  0  0  0  # atno 27299 bound_to 6228
  227.2327  340.6494 -100.0788 LP  0  0  0  0  0  0  0  0  0  0  0  0  # atno 27300 bound_to 6228
  231.4725  336.9764 -107.1922 LP  0  0  0  0  0  0  0  0  0  0  0  0  # atno 27301 bound_to 8229
  230.3167  344.6669 -110.4755 LP  0  0  0  0  0  0  0  0  0  0  0  0  # atno 27302 bound_to 10113
  232.3363  341.5224 -108.9141 LP  0  0  0  0  0  0  0  0  0  0  0  0  # atno 27303 bound_to 10116
  231.0751  342.3448 -109.7701 LP  0  0  0  0  0  0  0  0  0  0  0  0  # atno 27304 bound_to 10116
  225.7338  342.6354  -99.1128 LP  0  0  0  0  0  0  0  0  0  0  0  0  # atno 27305 bound_to 6274
  227.0916  343.4196  -98.3769 LP  0  0  0  0  0  0  0  0  0  0  0  0  # atno 27306 bound_to 6274

> <Gold.Score>
     Fitness  S(hb_ext) S(vdw_ext)  S(hb_int)    S(int)      intcor
     35.21       4.25      22.92       0.00      -0.56      -0.78

> <Gold.Goldscore.Fitness>
35.2113

> <Gold.Goldscore.Internal.Vdw>
-0.7107

> <Gold.Goldscore.Internal.Torsion>
-0.6285

> <Gold.Goldscore.External.Vdw>
22.9241

> <Gold.Goldscore.Internal.HBond>
0.0000

> <Gold.Goldscore.External.HBond>
4.2460

> <Gold.Goldscore.Internal.Correction>
-0.7838

> <Gold.Goldscore.Hbonds>
donor molecule, donor type, donor heavy atom, donor atom, acceptor molecule, acceptor atom, score
      P1  H  6703  6724       L1    17  0.68
      L1  H    10    23       P1  7808  0.09

> <Gold.Goldscore.Internal.Vdw.Weighted>
-0.7107

> <Gold.Goldscore.Internal.Torsion.Weighted>
-0.6285

> <Gold.Goldscore.External.Vdw.Weighted>
31.5206

> <Gold.Goldscore.Internal.HBond.Weighted>
0.0000

> <Gold.Goldscore.External.HBond.Weighted>
4.2460

> <Gold.Goldscore.Internal.Correction.Weighted>
-0.7838

> <Gold.Rescore>
     Score     S(PLP)   S(hbond)     S(cho)   S(metal)  DE(clash)   DE(tors)     intcor
     28.15     -25.99       1.00       0.00       0.00       0.00       0.42       ----

> <Gold.PLP.Fitness>
28.1482

> <Gold.PLP.PLP>
-25.9890

> <Gold.PLP.part.hbond>
-1.5139

> <Gold.PLP.part.metal>
0.0000

> <Gold.PLP.part.buried>
-4.1360

> <Gold.PLP.part.nonpolar>
-22.2797

> <Gold.PLP.part.repulsive>
1.6050

> <Gold.PLP.ligand.clash>
0.0000

> <Gold.PLP.ligand.torsion>
0.4204

> <Gold.PLP.Chemscore.Hbond>
1.0000

> <Gold.PLP.Chemscore.CHOScore>
0.0000

> <Gold.PLP.Chemscore.Metal>
0.0000

> <Gold.Chemscore.Hbonds>
donor molecule, donor type, donor heavy atom, donor atom, acceptor molecule, acceptor atom, score
      P1  H  6703  6724       L1    17  0.02

> <Gold.PLP.Chemscore.Internal.Correction>
   9.000000E+99

