#       Name:                CT1002167954
#       Creating user name   hitesit
#       Creation time:       Sun Apr 16 02:33:44 2023


#       File generated by GOLD software.
#

@<TRIPOS>MOLECULE
CT1002167954|ligand_prepared|mol2|1|dock3
    29    30     1
SMALL
NO_CHARGES


@<TRIPOS>ATOM
      1 C1         221.2273 343.0504 -110.5481 C.3            1 RES1               0.0000
      2 C2         221.7884 342.7462 -109.1441 C.ar           1 RES1               0.0000
      3 C3         221.5597 344.5117 -110.8351 C.2            1 RES1               0.0000
      4 C4         221.8954 342.0623 -111.4978 C.2            1 RES1               0.0000
      5 C5         219.6965 342.8631 -110.6632 C.3            1 RES1               0.0000
      6 C6         220.9668 342.8131 -108.0228 C.ar           1 RES1               0.0000
      7 C7         223.1225 342.3956 -108.9549 C.ar           1 RES1               0.0000
      8 N8         222.5569 344.7691 -111.7290 N.am           1 RES1               0.0000
      9 O9         220.9825 345.4239 -110.2563 O.2            1 RES1               0.0000
     10 N10        222.7435 342.5615 -112.4514 N.am           1 RES1               0.0000
     11 O11        221.7081 340.8545 -111.4183 O.2            1 RES1               0.0000
     12 C12        219.1928 342.7980 -112.0965 C.3            1 RES1               0.0000
     13 C13        221.4602 342.5364 -106.7586 C.ar           1 RES1               0.0000
     14 C14        223.6139 342.1195 -107.6897 C.ar           1 RES1               0.0000
     15 C15        223.1283 343.8672 -112.5903 C.2            1 RES1               0.0000
     16 C16        222.7838 342.1891 -106.5912 C.ar           1 RES1               0.0000
     17 O17        223.9379 344.2310 -113.4385 O.2            1 RES1               0.0000
     18 H18        219.4143 341.9370 -110.1474 H              1 RES1               0.0000
     19 H19        219.1993 343.6966 -110.1519 H              1 RES1               0.0000
     20 H20        219.9230 343.0871 -108.1347 H              1 RES1               0.0000
     21 H21        223.7942 342.3356 -109.8045 H              1 RES1               0.0000
     22 H22        222.9106 345.7200 -111.7599 H              1 RES1               0.0000
     23 H23        223.1229 341.8984 -113.1197 H              1 RES1               0.0000
     24 H24        218.1131 342.6660 -112.1203 H              1 RES1               0.0000
     25 H25        219.4342 343.7137 -112.6322 H              1 RES1               0.0000
     26 H26        219.6479 341.9646 -112.6277 H              1 RES1               0.0000
     27 H27        220.8030 342.5939 -105.8971 H              1 RES1               0.0000
     28 H28        224.6565 341.8472 -107.5625 H              1 RES1               0.0000
     29 H29        223.1699 341.9720 -105.6007 H              1 RES1               0.0000
@<TRIPOS>BOND
    1    1    2 1     
    2    1    3 1     
    3    1    4 1     
    4    1    5 1     
    5    2    6 ar    
    6    2    7 ar    
    7    3    8 1     
    8    3    9 2     
    9    4   10 1     
   10    4   11 2     
   11    5   12 1     
   12    5   18 1     
   13    5   19 1     
   14    6   13 ar    
   15    6   20 1     
   16    7   14 ar    
   17    7   21 1     
   18    8   15 1     
   19    8   22 1     
   20   10   15 1     
   21   10   23 1     
   22   12   24 1     
   23   12   25 1     
   24   12   26 1     
   25   13   16 ar    
   26   13   27 1     
   27   14   16 ar    
   28   14   28 1     
   29   15   17 2     
   30   16   29 1     
@<TRIPOS>SUBSTRUCTURE
      1 RES1           1
@<TRIPOS>SET
DONOR_HYDROGENS      STATIC     ATOMS    <user>   **** ""
2 22 23
ATOM$RED        STATIC     ATOMS    COLORGROUP SYSTEM
2 22 23
@<TRIPOS>COMMENT
> <Gold.Version>
2022.3.0

> <Gold.Id.Protein>
unknown|7ts3_clean|pdb

> <Gold.Protein.RotatedTorsions>
[ 7881 7855 7856 7857 ] final  -26.90 input   70.76 | X-H torsion
[ 7957 7941 7942 7943 ] final  -58.47 input   58.28 | X-H torsion
[ 8037 8019 8020 8021 ] final  109.81 input   92.82 | X-H torsion
[ 8097 8083 8084 8085 ] final  -87.78 input   78.42 | X-H torsion
[ 8177 8155 8156 8157 ] final -147.29 input   79.32 | X-H torsion
[ 9486 9456 9455 9453 ] final   -8.33 input   59.97 | X-H torsion
[ 7821 7805 7806 7807 ] final  104.27 input   99.19 | X-H torsion
[ 7825 7810 7809 7806 ] final  135.51 input   59.97 | X-H torsion
[ 7891 7863 7862 7861 ] final  -15.08 input   59.98 | X-H torsion
[ 6481 6465 6466 6467 ] final  -70.72 input  110.33 | X-H torsion
[ 6573 6549 6550 6551 ] final -148.86 input  127.07 | X-H torsion
[ 8245 8229 8230 8231 ] final   55.43 input   96.27 | X-H torsion
[ 10140 10113 10114 10115 ] final  163.08 input   44.66 | X-H torsion
[ 6713 6695 6696 6697 ] final -150.67 input  119.33 | X-H torsion
[ 27271 7808 7807 7806 ] final -171.34 input   -0.00 | X-H torsion
[ 27274 7858 7857 7856 ] final   65.33 input   -0.00 | X-H torsion
[ 27277 7944 7943 7942 ] final  -18.15 input   -0.00 | X-H torsion
[ 27280 8022 8021 8020 ] final  116.24 input    0.00 | X-H torsion
[ 27283 8086 8085 8084 ] final   48.64 input   -0.00 | X-H torsion
[ 27288 10020 10019 10017 ] final  -48.60 input   -0.00 | X-H torsion
[ 27290 6468 6467 6466 ] final -135.24 input    0.00 | X-H torsion
[ 27292 7728 7727 7726 ] final   58.22 input   -0.00 | X-H torsion
[ 27299 6228 6227 6226 ] final   18.27 input   -0.00 | X-H torsion
[ 27303 10116 10115 10114 ] final -175.10 input    0.00 | X-H torsion
[ 27305 6274 6273 6272 ] final   59.46 input    0.00 | X-H torsion

> <Gold.Protein.ActiveResidues>
 ASP403  THR404  ILE407  TYR408  ALA410  LYS411  TRP426  SER427  LYS428  LEU429 
 GLN430  VAL431  PHE432  ASP433  TYR453  SER462  ALA463  ILE464 

> <Gold.Protein.RotatedAtoms>
  229.5148  342.9740 -100.7613 H   0  0  0  0  0  0  0  0  0  0  0  0  # atno 6481 bound_to 6465
  226.1482  344.3945 -100.6939 H   0  0  0  0  0  0  0  0  0  0  0  0  # atno 6573 bound_to 6549
  228.8005  347.5455 -104.1955 H   0  0  0  0  0  0  0  0  0  0  0  0  # atno 6713 bound_to 6695
  222.0430  351.8660 -107.1094 H   0  0  0  0  0  0  0  0  0  0  0  0  # atno 7821 bound_to 7805
  219.0710  349.7402 -106.1384 H   0  0  0  0  0  0  0  0  0  0  0  0  # atno 7825 bound_to 7810
  223.0362  348.8421 -108.0499 H   0  0  0  0  0  0  0  0  0  0  0  0  # atno 7881 bound_to 7855
  220.1810  346.1375 -113.0462 H   0  0  0  0  0  0  0  0  0  0  0  0  # atno 7891 bound_to 7863
  218.8428  345.8511 -113.9821 H   0  0  0  0  0  0  0  0  0  0  0  0  # atno 7892 bound_to 7863
  220.3417  345.9485 -114.6848 H   0  0  0  0  0  0  0  0  0  0  0  0  # atno 7893 bound_to 7863
  223.3301  346.4413 -109.7899 H   0  0  0  0  0  0  0  0  0  0  0  0  # atno 7957 bound_to 7941
  226.0603  344.7316 -111.2351 H   0  0  0  0  0  0  0  0  0  0  0  0  # atno 8037 bound_to 8019
  227.6456  342.2205 -109.4089 H   0  0  0  0  0  0  0  0  0  0  0  0  # atno 8097 bound_to 8083
  229.5407  340.1909 -108.7998 H   0  0  0  0  0  0  0  0  0  0  0  0  # atno 8177 bound_to 8155
  231.5813  336.9311 -107.2631 H   0  0  0  0  0  0  0  0  0  0  0  0  # atno 8245 bound_to 8229
  223.2893  340.1899 -114.4270 H   0  0  0  0  0  0  0  0  0  0  0  0  # atno 9486 bound_to 9456
  230.5929  345.2566 -111.0284 H   0  0  0  0  0  0  0  0  0  0  0  0  # atno 10140 bound_to 10113
  221.4794  346.8387 -107.4204 LP  0  0  0  0  0  0  0  0  0  0  0  0  # atno 27271 bound_to 7808
  221.2375  347.5700 -105.8691 LP  0  0  0  0  0  0  0  0  0  0  0  0  # atno 27272 bound_to 7808
  221.5046  349.6479 -108.3503 LP  0  0  0  0  0  0  0  0  0  0  0  0  # atno 27273 bound_to 7855
  223.7348  348.5680 -111.6863 LP  0  0  0  0  0  0  0  0  0  0  0  0  # atno 27274 bound_to 7858
  223.7088  346.8553 -111.9436 LP  0  0  0  0  0  0  0  0  0  0  0  0  # atno 27275 bound_to 7858
  223.8657  347.5957 -108.5842 LP  0  0  0  0  0  0  0  0  0  0  0  0  # atno 27276 bound_to 7941
  225.1767  345.1550 -107.4267 LP  0  0  0  0  0  0  0  0  0  0  0  0  # atno 27277 bound_to 7944
  225.1060  343.5767 -108.1368 LP  0  0  0  0  0  0  0  0  0  0  0  0  # atno 27278 bound_to 7944
  225.9527  344.8690 -109.4951 LP  0  0  0  0  0  0  0  0  0  0  0  0  # atno 27279 bound_to 8019
  229.2002  343.6296 -109.7389 LP  0  0  0  0  0  0  0  0  0  0  0  0  # atno 27280 bound_to 8022
  228.8313  342.6055 -111.0861 LP  0  0  0  0  0  0  0  0  0  0  0  0  # atno 27281 bound_to 8022
  226.7477  341.7690 -107.9781 LP  0  0  0  0  0  0  0  0  0  0  0  0  # atno 27282 bound_to 8083
  227.6661  339.2629 -107.8524 LP  0  0  0  0  0  0  0  0  0  0  0  0  # atno 27283 bound_to 8086
  229.0449  338.5350 -107.0979 LP  0  0  0  0  0  0  0  0  0  0  0  0  # atno 27284 bound_to 8086
  231.0273  340.8935 -108.1930 LP  0  0  0  0  0  0  0  0  0  0  0  0  # atno 27285 bound_to 8155
  223.7141  341.7423 -114.6663 LP  0  0  0  0  0  0  0  0  0  0  0  0  # atno 27286 bound_to 9456
  224.2123  340.9536 -113.3260 LP  0  0  0  0  0  0  0  0  0  0  0  0  # atno 27287 bound_to 9456
  226.0804  345.5722 -112.6375 LP  0  0  0  0  0  0  0  0  0  0  0  0  # atno 27288 bound_to 10020
  227.0001  344.2276 -113.2259 LP  0  0  0  0  0  0  0  0  0  0  0  0  # atno 27289 bound_to 10020
  228.0391  346.5333 -101.9250 LP  0  0  0  0  0  0  0  0  0  0  0  0  # atno 27290 bound_to 6468
  227.3633  345.6254 -103.2361 LP  0  0  0  0  0  0  0  0  0  0  0  0  # atno 27291 bound_to 6468
  225.5748  350.4590 -106.5481 LP  0  0  0  0  0  0  0  0  0  0  0  0  # atno 27292 bound_to 7728
  224.6259  349.4147 -107.5526 LP  0  0  0  0  0  0  0  0  0  0  0  0  # atno 27293 bound_to 7728
  223.6236  351.1429 -107.2831 LP  0  0  0  0  0  0  0  0  0  0  0  0  # atno 27294 bound_to 7805
  220.1484  349.8340 -107.3542 LP  0  0  0  0  0  0  0  0  0  0  0  0  # atno 27295 bound_to 7810
  219.5997  351.1955 -106.6387 LP  0  0  0  0  0  0  0  0  0  0  0  0  # atno 27296 bound_to 7810
  228.1644  341.9700 -100.3091 LP  0  0  0  0  0  0  0  0  0  0  0  0  # atno 27297 bound_to 6465
  227.8271  344.5683 -100.2284 LP  0  0  0  0  0  0  0  0  0  0  0  0  # atno 27298 bound_to 6549
  228.3844  339.6813 -100.8388 LP  0  0  0  0  0  0  0  0  0  0  0  0  # atno 27299 bound_to 6228
  227.5216  340.8310  -99.8723 LP  0  0  0  0  0  0  0  0  0  0  0  0  # atno 27300 bound_to 6228
  231.8010  338.6539 -107.0452 LP  0  0  0  0  0  0  0  0  0  0  0  0  # atno 27301 bound_to 8229
  230.8218  343.5472 -111.3384 LP  0  0  0  0  0  0  0  0  0  0  0  0  # atno 27302 bound_to 10113
  232.3343  341.3480 -109.2332 LP  0  0  0  0  0  0  0  0  0  0  0  0  # atno 27303 bound_to 10116
  231.0771  342.5193 -109.4509 LP  0  0  0  0  0  0  0  0  0  0  0  0  # atno 27304 bound_to 10116
  225.5863  343.0163  -98.4863 LP  0  0  0  0  0  0  0  0  0  0  0  0  # atno 27305 bound_to 6274
  227.2392  343.0387  -99.0033 LP  0  0  0  0  0  0  0  0  0  0  0  0  # atno 27306 bound_to 6274

> <Gold.Score>
     Fitness  S(hb_ext) S(vdw_ext)  S(hb_int)    S(int)      intcor
     27.78       4.10      17.72       0.00      -0.67      -0.78

> <Gold.Goldscore.Fitness>
27.7825

> <Gold.Goldscore.Internal.Vdw>
-0.7362

> <Gold.Goldscore.Internal.Torsion>
-0.7206

> <Gold.Goldscore.External.Vdw>
17.7159

> <Gold.Goldscore.Internal.HBond>
0.0000

> <Gold.Goldscore.External.HBond>
4.0962

> <Gold.Goldscore.Internal.Correction>
-0.7838

> <Gold.Goldscore.Hbonds>
donor molecule, donor type, donor heavy atom, donor atom, acceptor molecule, acceptor atom, score
      P1  H  7941  7957       L1     9  0.07
      L1  H     8    22       P1  7858  0.99
      L1  H    10    23       P1  9456  0.98

> <Gold.Goldscore.Internal.Vdw.Weighted>
-0.7362

> <Gold.Goldscore.Internal.Torsion.Weighted>
-0.7206

> <Gold.Goldscore.External.Vdw.Weighted>
24.3593

> <Gold.Goldscore.Internal.HBond.Weighted>
0.0000

> <Gold.Goldscore.External.HBond.Weighted>
4.0962

> <Gold.Goldscore.Internal.Correction.Weighted>
-0.7838

> <Gold.Rescore>
     Score     S(PLP)   S(hbond)     S(cho)   S(metal)  DE(clash)   DE(tors)     intcor
     22.20     -21.03       1.03       0.00       0.00       0.00       0.96       ----

> <Gold.PLP.Fitness>
22.2014

> <Gold.PLP.PLP>
-21.0324

> <Gold.PLP.part.hbond>
-2.1987

> <Gold.PLP.part.metal>
0.0000

> <Gold.PLP.part.buried>
-4.4513

> <Gold.PLP.part.nonpolar>
-16.3055

> <Gold.PLP.part.repulsive>
0.8506

> <Gold.PLP.ligand.clash>
0.0000

> <Gold.PLP.ligand.torsion>
0.9644

> <Gold.PLP.Chemscore.Hbond>
1.0326

> <Gold.PLP.Chemscore.CHOScore>
0.0000

> <Gold.PLP.Chemscore.Metal>
0.0000

> <Gold.Chemscore.Hbonds>
donor molecule, donor type, donor heavy atom, donor atom, acceptor molecule, acceptor atom, score
      L1  H     8    22       P1  7858  0.45
      L1  H    10    23       P1  9456  0.85

> <Gold.PLP.Chemscore.Internal.Correction>
   9.000000E+99

