#       Name:                CT1002167954
#       Creating user name   hitesit
#       Creation time:       Sun Apr 16 02:33:45 2023


#       File generated by GOLD software.
#

@<TRIPOS>MOLECULE
CT1002167954|ligand_prepared|mol2|1|dock5
    29    30     1
SMALL
NO_CHARGES


@<TRIPOS>ATOM
      1 C1         220.8505 343.1974 -110.4869 C.3            1 RES1               0.0000
      2 C2         221.7846 343.7615 -111.5769 C.ar           1 RES1               0.0000
      3 C3         221.5096 341.9190 -109.9775 C.2            1 RES1               0.0000
      4 C4         220.7159 344.2906 -109.4328 C.2            1 RES1               0.0000
      5 C5         219.4330 342.8493 -110.9979 C.3            1 RES1               0.0000
      6 C6         221.4449 343.6612 -112.9227 C.ar           1 RES1               0.0000
      7 C7         222.9860 344.3862 -111.2524 C.ar           1 RES1               0.0000
      8 N8         222.0948 341.9572 -108.7463 N.am           1 RES1               0.0000
      9 O9         221.5498 340.9042 -110.6622 O.2            1 RES1               0.0000
     10 N10        221.2307 344.0475 -108.1863 N.am           1 RES1               0.0000
     11 O11        220.1835 345.3668 -109.6751 O.2            1 RES1               0.0000
     12 C12        218.4514 342.4979 -109.8910 C.3            1 RES1               0.0000
     13 C13        222.2746 344.1696 -113.9084 C.ar           1 RES1               0.0000
     14 C14        223.8143 344.8936 -112.2397 C.ar           1 RES1               0.0000
     15 C15        221.9412 342.9424 -107.8042 C.2            1 RES1               0.0000
     16 C16        223.4595 344.7864 -113.5676 C.ar           1 RES1               0.0000
     17 O17        222.4196 342.8202 -106.6802 O.2            1 RES1               0.0000
     18 H18        219.0400 343.7056 -111.5596 H              1 RES1               0.0000
     19 H19        219.5053 341.9999 -111.6884 H              1 RES1               0.0000
     20 H20        220.5176 343.1769 -113.2101 H              1 RES1               0.0000
     21 H21        223.2860 344.4809 -110.2144 H              1 RES1               0.0000
     22 H22        222.7029 341.1816 -108.5035 H              1 RES1               0.0000
     23 H23        221.0692 344.7560 -107.4776 H              1 RES1               0.0000
     24 H24        217.4728 342.2620 -110.3038 H              1 RES1               0.0000
     25 H25        218.7985 341.6343 -109.3274 H              1 RES1               0.0000
     26 H26        218.3360 343.3299 -109.1994 H              1 RES1               0.0000
     27 H27        221.9914 344.0814 -114.9521 H              1 RES1               0.0000
     28 H28        224.7462 345.3778 -111.9670 H              1 RES1               0.0000
     29 H29        224.1090 345.1849 -114.3400 H              1 RES1               0.0000
@<TRIPOS>BOND
    1    1    2 1     
    2    1    3 1     
    3    1    4 1     
    4    1    5 1     
    5    2    6 ar    
    6    2    7 ar    
    7    3    8 1     
    8    3    9 2     
    9    4   10 1     
   10    4   11 2     
   11    5   12 1     
   12    5   18 1     
   13    5   19 1     
   14    6   13 ar    
   15    6   20 1     
   16    7   14 ar    
   17    7   21 1     
   18    8   15 1     
   19    8   22 1     
   20   10   15 1     
   21   10   23 1     
   22   12   24 1     
   23   12   25 1     
   24   12   26 1     
   25   13   16 ar    
   26   13   27 1     
   27   14   16 ar    
   28   14   28 1     
   29   15   17 2     
   30   16   29 1     
@<TRIPOS>SUBSTRUCTURE
      1 RES1           1
@<TRIPOS>SET
DONOR_HYDROGENS      STATIC     ATOMS    <user>   **** ""
2 22 23
ATOM$RED        STATIC     ATOMS    COLORGROUP SYSTEM
2 22 23
@<TRIPOS>COMMENT
> <Gold.Version>
2022.3.0

> <Gold.Id.Protein>
unknown|7ts3_clean|pdb

> <Gold.Protein.RotatedTorsions>
[ 7881 7855 7856 7857 ] final   82.46 input   70.76 | X-H torsion
[ 7957 7941 7942 7943 ] final  172.96 input   58.28 | X-H torsion
[ 8037 8019 8020 8021 ] final -128.72 input   92.82 | X-H torsion
[ 8097 8083 8084 8085 ] final -129.05 input   78.42 | X-H torsion
[ 8177 8155 8156 8157 ] final   49.87 input   79.32 | X-H torsion
[ 9486 9456 9455 9453 ] final  -35.29 input   59.97 | X-H torsion
[ 7821 7805 7806 7807 ] final   79.55 input   99.19 | X-H torsion
[ 7825 7810 7809 7806 ] final  -36.52 input   59.97 | X-H torsion
[ 7891 7863 7862 7861 ] final  -29.46 input   59.98 | X-H torsion
[ 6481 6465 6466 6467 ] final -145.70 input  110.33 | X-H torsion
[ 6573 6549 6550 6551 ] final  -25.95 input  127.07 | X-H torsion
[ 8245 8229 8230 8231 ] final   94.04 input   96.27 | X-H torsion
[ 10140 10113 10114 10115 ] final -161.11 input   44.66 | X-H torsion
[ 6713 6695 6696 6697 ] final -165.81 input  119.33 | X-H torsion
[ 27271 7808 7807 7806 ] final  -49.52 input   -0.00 | X-H torsion
[ 27274 7858 7857 7856 ] final -109.51 input   -0.00 | X-H torsion
[ 27277 7944 7943 7942 ] final   16.30 input   -0.00 | X-H torsion
[ 27280 8022 8021 8020 ] final -152.20 input    0.00 | X-H torsion
[ 27283 8086 8085 8084 ] final   78.45 input   -0.00 | X-H torsion
[ 27288 10020 10019 10017 ] final -104.46 input   -0.00 | X-H torsion
[ 27290 6468 6467 6466 ] final  -54.85 input    0.00 | X-H torsion
[ 27292 7728 7727 7726 ] final -156.72 input   -0.00 | X-H torsion
[ 27299 6228 6227 6226 ] final  140.44 input   -0.00 | X-H torsion
[ 27303 10116 10115 10114 ] final  -83.16 input    0.00 | X-H torsion
[ 27305 6274 6273 6272 ] final  154.08 input    0.00 | X-H torsion

> <Gold.Protein.ActiveResidues>
 ASP403  THR404  ILE407  TYR408  ALA410  LYS411  TRP426  SER427  LYS428  LEU429 
 GLN430  VAL431  PHE432  ASP433  TYR453  SER462  ALA463  ILE464 

> <Gold.Protein.RotatedAtoms>
  229.2627  342.0159 -101.1479 H   0  0  0  0  0  0  0  0  0  0  0  0  # atno 6481 bound_to 6465
  227.6145  344.8588 -100.9846 H   0  0  0  0  0  0  0  0  0  0  0  0  # atno 6573 bound_to 6549
  228.6353  347.4200 -104.0922 H   0  0  0  0  0  0  0  0  0  0  0  0  # atno 6713 bound_to 6695
  222.0164  351.6929 -107.4442 H   0  0  0  0  0  0  0  0  0  0  0  0  # atno 7821 bound_to 7805
  220.1796  350.6571 -107.3291 H   0  0  0  0  0  0  0  0  0  0  0  0  # atno 7825 bound_to 7810
  222.3642  349.8844 -108.8402 H   0  0  0  0  0  0  0  0  0  0  0  0  # atno 7881 bound_to 7855
  220.3834  346.1464 -113.1738 H   0  0  0  0  0  0  0  0  0  0  0  0  # atno 7891 bound_to 7863
  218.8495  345.8823 -113.7446 H   0  0  0  0  0  0  0  0  0  0  0  0  # atno 7892 bound_to 7863
  220.1327  345.9084 -114.7946 H   0  0  0  0  0  0  0  0  0  0  0  0  # atno 7893 bound_to 7863
  223.8332  347.8882 -109.2872 H   0  0  0  0  0  0  0  0  0  0  0  0  # atno 7957 bound_to 7941
  225.2279  344.7451 -109.9319 H   0  0  0  0  0  0  0  0  0  0  0  0  # atno 8037 bound_to 8019
  227.5369  342.7200 -109.0506 H   0  0  0  0  0  0  0  0  0  0  0  0  # atno 8097 bound_to 8083
  231.1039  340.9351 -108.4437 H   0  0  0  0  0  0  0  0  0  0  0  0  # atno 8177 bound_to 8155
  231.1795  337.1318 -106.8829 H   0  0  0  0  0  0  0  0  0  0  0  0  # atno 8245 bound_to 8229
  223.2087  340.4784 -114.7443 H   0  0  0  0  0  0  0  0  0  0  0  0  # atno 9486 bound_to 9456
  230.8428  345.2052 -111.5143 H   0  0  0  0  0  0  0  0  0  0  0  0  # atno 10140 bound_to 10113
  221.9803  347.2132 -106.0421 LP  0  0  0  0  0  0  0  0  0  0  0  0  # atno 27271 bound_to 7808
  220.7366  347.1955 -107.2474 LP  0  0  0  0  0  0  0  0  0  0  0  0  # atno 27272 bound_to 7808
  222.1419  348.6596 -107.6010 LP  0  0  0  0  0  0  0  0  0  0  0  0  # atno 27273 bound_to 7855
  223.6337  346.8630 -111.9634 LP  0  0  0  0  0  0  0  0  0  0  0  0  # atno 27274 bound_to 7858
  223.8099  348.5603 -111.6665 LP  0  0  0  0  0  0  0  0  0  0  0  0  # atno 27275 bound_to 7858
  223.3833  346.2083 -109.0662 LP  0  0  0  0  0  0  0  0  0  0  0  0  # atno 27276 bound_to 7941
  224.6980  345.0867 -107.5979 LP  0  0  0  0  0  0  0  0  0  0  0  0  # atno 27277 bound_to 7944
  225.5846  343.6450 -107.9656 LP  0  0  0  0  0  0  0  0  0  0  0  0  # atno 27278 bound_to 7944
  226.7626  344.8558 -110.7630 LP  0  0  0  0  0  0  0  0  0  0  0  0  # atno 27279 bound_to 8019
  229.4633  342.4616 -110.0668 LP  0  0  0  0  0  0  0  0  0  0  0  0  # atno 27280 bound_to 8022
  228.5682  343.7734 -110.7583 LP  0  0  0  0  0  0  0  0  0  0  0  0  # atno 27281 bound_to 8022
  226.8536  341.2824 -108.3272 LP  0  0  0  0  0  0  0  0  0  0  0  0  # atno 27282 bound_to 8083
  227.8507  339.0110 -108.1699 LP  0  0  0  0  0  0  0  0  0  0  0  0  # atno 27283 bound_to 8086
  228.8603  338.7870 -106.7804 LP  0  0  0  0  0  0  0  0  0  0  0  0  # atno 27284 bound_to 8086
  229.5256  340.1786 -108.5351 LP  0  0  0  0  0  0  0  0  0  0  0  0  # atno 27285 bound_to 8155
  223.9595  341.8585 -114.3207 LP  0  0  0  0  0  0  0  0  0  0  0  0  # atno 27286 bound_to 9456
  224.0482  340.5468 -113.3520 LP  0  0  0  0  0  0  0  0  0  0  0  0  # atno 27287 bound_to 9456
  226.6563  345.2656 -112.1553 LP  0  0  0  0  0  0  0  0  0  0  0  0  # atno 27288 bound_to 10020
  226.4242  344.5342 -113.7081 LP  0  0  0  0  0  0  0  0  0  0  0  0  # atno 27289 bound_to 10020
  228.5286  345.8316 -102.6445 LP  0  0  0  0  0  0  0  0  0  0  0  0  # atno 27290 bound_to 6468
  226.8738  346.3271 -102.5166 LP  0  0  0  0  0  0  0  0  0  0  0  0  # atno 27291 bound_to 6468
  224.4556  349.3588 -107.0645 LP  0  0  0  0  0  0  0  0  0  0  0  0  # atno 27292 bound_to 7728
  225.7451  350.5149 -107.0361 LP  0  0  0  0  0  0  0  0  0  0  0  0  # atno 27293 bound_to 7728
  223.6497  351.3125 -106.9552 LP  0  0  0  0  0  0  0  0  0  0  0  0  # atno 27294 bound_to 7805
  219.1087  350.7893 -106.1112 LP  0  0  0  0  0  0  0  0  0  0  0  0  # atno 27295 bound_to 7810
  219.5227  349.3165 -106.6821 LP  0  0  0  0  0  0  0  0  0  0  0  0  # atno 27296 bound_to 7810
  228.4150  342.9224  -99.9249 LP  0  0  0  0  0  0  0  0  0  0  0  0  # atno 27297 bound_to 6465
  226.4121  344.1203  -99.9479 LP  0  0  0  0  0  0  0  0  0  0  0  0  # atno 27298 bound_to 6549
  227.0913  340.3343 -100.3915 LP  0  0  0  0  0  0  0  0  0  0  0  0  # atno 27299 bound_to 6228
  228.8147  340.1780 -100.3196 LP  0  0  0  0  0  0  0  0  0  0  0  0  # atno 27300 bound_to 6228
  232.1893  338.4598 -107.4127 LP  0  0  0  0  0  0  0  0  0  0  0  0  # atno 27301 bound_to 8229
  230.5812  343.5966 -110.8706 LP  0  0  0  0  0  0  0  0  0  0  0  0  # atno 27302 bound_to 10113
  231.8243  342.2522 -108.5456 LP  0  0  0  0  0  0  0  0  0  0  0  0  # atno 27303 bound_to 10116
  231.5872  341.6150 -110.1386 LP  0  0  0  0  0  0  0  0  0  0  0  0  # atno 27304 bound_to 10116
  226.6848  343.5211  -98.0873 LP  0  0  0  0  0  0  0  0  0  0  0  0  # atno 27305 bound_to 6274
  226.1407  342.5339  -99.4023 LP  0  0  0  0  0  0  0  0  0  0  0  0  # atno 27306 bound_to 6274

> <Gold.Score>
     Fitness  S(hb_ext) S(vdw_ext)  S(hb_int)    S(int)      intcor
     36.04       5.79      22.46       0.00      -0.63      -0.78

> <Gold.Goldscore.Fitness>
36.0431

> <Gold.Goldscore.Internal.Vdw>
-0.9250

> <Gold.Goldscore.Internal.Torsion>
-0.4885

> <Gold.Goldscore.External.Vdw>
22.4568

> <Gold.Goldscore.Internal.HBond>
0.0000

> <Gold.Goldscore.External.HBond>
5.7946

> <Gold.Goldscore.Internal.Correction>
-0.7838

> <Gold.Goldscore.Hbonds>
donor molecule, donor type, donor heavy atom, donor atom, acceptor molecule, acceptor atom, score
      P1  H  6703  6724       L1    17  0.97

> <Gold.Goldscore.Internal.Vdw.Weighted>
-0.9250

> <Gold.Goldscore.Internal.Torsion.Weighted>
-0.4885

> <Gold.Goldscore.External.Vdw.Weighted>
30.8781

> <Gold.Goldscore.Internal.HBond.Weighted>
0.0000

> <Gold.Goldscore.External.HBond.Weighted>
5.7946

> <Gold.Goldscore.Internal.Correction.Weighted>
-0.7838

> <Gold.Rescore>
     Score     S(PLP)   S(hbond)     S(cho)   S(metal)  DE(clash)   DE(tors)     intcor
     27.50     -26.26       0.64       0.00       0.00       0.00       0.34       ----

> <Gold.PLP.Fitness>
27.4962

> <Gold.PLP.PLP>
-26.2646

> <Gold.PLP.part.hbond>
-1.7470

> <Gold.PLP.part.metal>
0.0000

> <Gold.PLP.part.buried>
-2.7270

> <Gold.PLP.part.nonpolar>
-23.6670

> <Gold.PLP.part.repulsive>
2.3224

> <Gold.PLP.ligand.clash>
0.0000

> <Gold.PLP.ligand.torsion>
0.3442

> <Gold.PLP.Chemscore.Hbond>
0.6400

> <Gold.PLP.Chemscore.CHOScore>
0.0000

> <Gold.PLP.Chemscore.Metal>
0.0000

> <Gold.Chemscore.Hbonds>
donor molecule, donor type, donor heavy atom, donor atom, acceptor molecule, acceptor atom, score
      P1  H  6703  6724       L1    17  1.00

> <Gold.PLP.Chemscore.Internal.Correction>
   9.000000E+99

