#       Name:                CT1002167954
#       Creating user name   hitesit
#       Creation time:       Sun Apr 16 02:33:45 2023


#       File generated by GOLD software.
#

@<TRIPOS>MOLECULE
CT1002167954|ligand_prepared|mol2|1|dock6
    29    30     1
SMALL
NO_CHARGES


@<TRIPOS>ATOM
      1 C1         222.8558 341.3420 -107.7501 C.3            1 RES1               0.0000
      2 C2         222.5214 342.0268 -109.0910 C.ar           1 RES1               0.0000
      3 C3         221.9914 342.0237 -106.6936 C.2            1 RES1               0.0000
      4 C4         222.5524 339.8600 -107.9406 C.2            1 RES1               0.0000
      5 C5         224.3388 341.4762 -107.3328 C.3            1 RES1               0.0000
      6 C6         221.8564 341.3305 -110.0958 C.ar           1 RES1               0.0000
      7 C7         222.8684 343.3527 -109.3364 C.ar           1 RES1               0.0000
      8 N8         220.9245 341.3285 -106.2055 N.am           1 RES1               0.0000
      9 O9         222.2192 343.1688 -106.3232 O.2            1 RES1               0.0000
     10 N10        221.5312 339.3143 -107.2078 N.am           1 RES1               0.0000
     11 O11        223.1776 339.1637 -108.7310 O.2            1 RES1               0.0000
     12 C12        224.6627 340.8192 -106.0003 C.3            1 RES1               0.0000
     13 C13        221.5468 341.9384 -111.3012 C.ar           1 RES1               0.0000
     14 C14        222.5581 343.9586 -110.5427 C.ar           1 RES1               0.0000
     15 C15        220.6835 339.9884 -106.3715 C.2            1 RES1               0.0000
     16 C16        221.8970 343.2528 -111.5253 C.ar           1 RES1               0.0000
     17 O17        219.7536 339.4379 -105.7889 O.2            1 RES1               0.0000
     18 H18        224.9668 341.0250 -108.1109 H              1 RES1               0.0000
     19 H19        224.5936 342.5415 -107.2723 H              1 RES1               0.0000
     20 H20        221.5750 340.2946 -109.9386 H              1 RES1               0.0000
     21 H21        223.3898 343.9270 -108.5783 H              1 RES1               0.0000
     22 H22        220.2427 341.8537 -105.6672 H              1 RES1               0.0000
     23 H23        221.3899 338.3128 -107.2935 H              1 RES1               0.0000
     24 H24        225.7155 340.9427 -105.7551 H              1 RES1               0.0000
     25 H25        224.0740 341.2612 -105.1991 H              1 RES1               0.0000
     26 H26        224.4450 339.7536 -106.0327 H              1 RES1               0.0000
     27 H27        221.0277 341.3781 -112.0718 H              1 RES1               0.0000
     28 H28        222.8362 344.9932 -110.7149 H              1 RES1               0.0000
     29 H29        221.6541 343.7290 -112.4695 H              1 RES1               0.0000
@<TRIPOS>BOND
    1    1    2 1     
    2    1    3 1     
    3    1    4 1     
    4    1    5 1     
    5    2    6 ar    
    6    2    7 ar    
    7    3    8 1     
    8    3    9 2     
    9    4   10 1     
   10    4   11 2     
   11    5   12 1     
   12    5   18 1     
   13    5   19 1     
   14    6   13 ar    
   15    6   20 1     
   16    7   14 ar    
   17    7   21 1     
   18    8   15 1     
   19    8   22 1     
   20   10   15 1     
   21   10   23 1     
   22   12   24 1     
   23   12   25 1     
   24   12   26 1     
   25   13   16 ar    
   26   13   27 1     
   27   14   16 ar    
   28   14   28 1     
   29   15   17 2     
   30   16   29 1     
@<TRIPOS>SUBSTRUCTURE
      1 RES1           1
@<TRIPOS>SET
DONOR_HYDROGENS      STATIC     ATOMS    <user>   **** ""
2 22 23
ATOM$RED        STATIC     ATOMS    COLORGROUP SYSTEM
2 22 23
@<TRIPOS>COMMENT
> <Gold.Version>
2022.3.0

> <Gold.Id.Protein>
unknown|7ts3_clean|pdb

> <Gold.Protein.RotatedTorsions>
[ 7881 7855 7856 7857 ] final  -16.71 input   70.76 | X-H torsion
[ 7957 7941 7942 7943 ] final  172.83 input   58.28 | X-H torsion
[ 8037 8019 8020 8021 ] final   76.69 input   92.82 | X-H torsion
[ 8097 8083 8084 8085 ] final  177.03 input   78.42 | X-H torsion
[ 8177 8155 8156 8157 ] final   17.42 input   79.32 | X-H torsion
[ 9486 9456 9455 9453 ] final -137.02 input   59.97 | X-H torsion
[ 7821 7805 7806 7807 ] final  147.92 input   99.19 | X-H torsion
[ 7825 7810 7809 7806 ] final -151.51 input   59.97 | X-H torsion
[ 7891 7863 7862 7861 ] final  176.48 input   59.98 | X-H torsion
[ 6481 6465 6466 6467 ] final  -39.27 input  110.33 | X-H torsion
[ 6573 6549 6550 6551 ] final   29.07 input  127.07 | X-H torsion
[ 8245 8229 8230 8231 ] final  159.77 input   96.27 | X-H torsion
[ 10140 10113 10114 10115 ] final -131.97 input   44.66 | X-H torsion
[ 6713 6695 6696 6697 ] final   90.74 input  119.33 | X-H torsion
[ 27271 7808 7807 7806 ] final   16.33 input   -0.00 | X-H torsion
[ 27274 7858 7857 7856 ] final -114.75 input   -0.00 | X-H torsion
[ 27277 7944 7943 7942 ] final  -72.49 input   -0.00 | X-H torsion
[ 27280 8022 8021 8020 ] final   90.83 input    0.00 | X-H torsion
[ 27283 8086 8085 8084 ] final -149.93 input   -0.00 | X-H torsion
[ 27288 10020 10019 10017 ] final -172.74 input   -0.00 | X-H torsion
[ 27290 6468 6467 6466 ] final   54.54 input    0.00 | X-H torsion
[ 27292 7728 7727 7726 ] final -165.61 input   -0.00 | X-H torsion
[ 27299 6228 6227 6226 ] final   94.45 input   -0.00 | X-H torsion
[ 27303 10116 10115 10114 ] final -147.23 input    0.00 | X-H torsion
[ 27305 6274 6273 6272 ] final   31.24 input    0.00 | X-H torsion

> <Gold.Protein.ActiveResidues>
 ASP403  THR404  ILE407  TYR408  ALA410  LYS411  TRP426  SER427  LYS428  LEU429 
 GLN430  VAL431  PHE432  ASP433  TYR453  SER462  ALA463  ILE464 

> <Gold.Protein.RotatedAtoms>
  229.2837  343.2137 -100.4244 H   0  0  0  0  0  0  0  0  0  0  0  0  # atno 6481 bound_to 6465
  227.8576  344.6077 -100.2392 H   0  0  0  0  0  0  0  0  0  0  0  0  # atno 6573 bound_to 6549
  228.2546  347.6890 -102.7916 H   0  0  0  0  0  0  0  0  0  0  0  0  # atno 6713 bound_to 6695
  222.4283  351.9953 -106.5943 H   0  0  0  0  0  0  0  0  0  0  0  0  # atno 7821 bound_to 7805
  219.1487  350.8507 -106.1492 H   0  0  0  0  0  0  0  0  0  0  0  0  # atno 7825 bound_to 7810
  223.0951  348.9449 -108.1575 H   0  0  0  0  0  0  0  0  0  0  0  0  # atno 7881 bound_to 7855
  219.5772  345.8348 -114.8266 H   0  0  0  0  0  0  0  0  0  0  0  0  # atno 7891 bound_to 7863
  220.6964  346.1256 -113.6386 H   0  0  0  0  0  0  0  0  0  0  0  0  # atno 7892 bound_to 7863
  219.0915  345.9765 -113.2485 H   0  0  0  0  0  0  0  0  0  0  0  0  # atno 7893 bound_to 7863
  223.8337  347.8883 -109.2852 H   0  0  0  0  0  0  0  0  0  0  0  0  # atno 7957 bound_to 7941
  226.5323  344.7955 -111.0662 H   0  0  0  0  0  0  0  0  0  0  0  0  # atno 8037 bound_to 8019
  227.1590  342.8105 -108.3479 H   0  0  0  0  0  0  0  0  0  0  0  0  # atno 8097 bound_to 8083
  230.9846  340.8044 -107.9767 H   0  0  0  0  0  0  0  0  0  0  0  0  # atno 8177 bound_to 8155
  231.0655  338.0364 -106.5643 H   0  0  0  0  0  0  0  0  0  0  0  0  # atno 8245 bound_to 8229
  223.7967  341.7936 -114.5623 H   0  0  0  0  0  0  0  0  0  0  0  0  # atno 9486 bound_to 9456
  231.0165  344.9301 -111.8239 H   0  0  0  0  0  0  0  0  0  0  0  0  # atno 10140 bound_to 10113
  221.1309  347.5957 -105.9065 LP  0  0  0  0  0  0  0  0  0  0  0  0  # atno 27271 bound_to 7808
  221.5860  346.8130 -107.3830 LP  0  0  0  0  0  0  0  0  0  0  0  0  # atno 27272 bound_to 7808
  221.4488  349.5504 -108.2483 LP  0  0  0  0  0  0  0  0  0  0  0  0  # atno 27273 bound_to 7855
  223.7100  346.8553 -111.9433 LP  0  0  0  0  0  0  0  0  0  0  0  0  # atno 27274 bound_to 7858
  223.7336  348.5680 -111.6867 LP  0  0  0  0  0  0  0  0  0  0  0  0  # atno 27275 bound_to 7858
  223.3829  346.2082 -109.0681 LP  0  0  0  0  0  0  0  0  0  0  0  0  # atno 27276 bound_to 7941
  225.8406  344.7251 -107.4183 LP  0  0  0  0  0  0  0  0  0  0  0  0  # atno 27277 bound_to 7944
  224.4421  344.0066 -108.1451 LP  0  0  0  0  0  0  0  0  0  0  0  0  # atno 27278 bound_to 7944
  225.4935  344.8067 -109.6594 LP  0  0  0  0  0  0  0  0  0  0  0  0  # atno 27279 bound_to 8019
  228.9881  343.8556 -109.9604 LP  0  0  0  0  0  0  0  0  0  0  0  0  # atno 27280 bound_to 8022
  229.0434  342.3794 -110.8647 LP  0  0  0  0  0  0  0  0  0  0  0  0  # atno 27281 bound_to 8022
  227.2217  341.1942 -109.0117 LP  0  0  0  0  0  0  0  0  0  0  0  0  # atno 27282 bound_to 8083
  229.0689  338.4233 -107.3531 LP  0  0  0  0  0  0  0  0  0  0  0  0  # atno 27283 bound_to 8086
  227.6422  339.3746 -107.5972 LP  0  0  0  0  0  0  0  0  0  0  0  0  # atno 27284 bound_to 8086
  229.6402  340.3042 -108.9837 LP  0  0  0  0  0  0  0  0  0  0  0  0  # atno 27285 bound_to 8155
  224.1694  340.8180 -113.3145 LP  0  0  0  0  0  0  0  0  0  0  0  0  # atno 27286 bound_to 9456
  223.2459  340.2626 -114.5415 LP  0  0  0  0  0  0  0  0  0  0  0  0  # atno 27287 bound_to 9456
  227.1725  344.5110 -112.4856 LP  0  0  0  0  0  0  0  0  0  0  0  0  # atno 27288 bound_to 10020
  225.9080  345.2888 -113.3778 LP  0  0  0  0  0  0  0  0  0  0  0  0  # atno 27289 bound_to 10020
  227.2354  345.6877 -103.1967 LP  0  0  0  0  0  0  0  0  0  0  0  0  # atno 27290 bound_to 6468
  228.1669  346.4710 -101.9644 LP  0  0  0  0  0  0  0  0  0  0  0  0  # atno 27291 bound_to 6468
  224.4487  349.3788 -106.9319 LP  0  0  0  0  0  0  0  0  0  0  0  0  # atno 27292 bound_to 7728
  225.7519  350.4949 -107.1687 LP  0  0  0  0  0  0  0  0  0  0  0  0  # atno 27293 bound_to 7728
  223.2462  351.0163 -107.7876 LP  0  0  0  0  0  0  0  0  0  0  0  0  # atno 27294 bound_to 7805
  219.4689  349.3266 -106.6205 LP  0  0  0  0  0  0  0  0  0  0  0  0  # atno 27295 bound_to 7810
  220.2009  350.5843 -107.3614 LP  0  0  0  0  0  0  0  0  0  0  0  0  # atno 27296 bound_to 7810
  228.3941  341.7317 -100.6440 LP  0  0  0  0  0  0  0  0  0  0  0  0  # atno 27297 bound_to 6465
  226.1775  344.3625 -100.6672 LP  0  0  0  0  0  0  0  0  0  0  0  0  # atno 27298 bound_to 6549
  227.3310  339.8574 -100.8073 LP  0  0  0  0  0  0  0  0  0  0  0  0  # atno 27299 bound_to 6228
  228.5750  340.6549  -99.9038 LP  0  0  0  0  0  0  0  0  0  0  0  0  # atno 27300 bound_to 6228
  232.2996  337.5853 -107.7208 LP  0  0  0  0  0  0  0  0  0  0  0  0  # atno 27301 bound_to 8229
  230.4140  343.8615 -110.5726 LP  0  0  0  0  0  0  0  0  0  0  0  0  # atno 27302 bound_to 10113
  232.3268  341.5556 -108.8716 LP  0  0  0  0  0  0  0  0  0  0  0  0  # atno 27303 bound_to 10116
  231.0846  342.3116 -109.8125 LP  0  0  0  0  0  0  0  0  0  0  0  0  # atno 27304 bound_to 10116
  225.5870  342.7839  -98.8388 LP  0  0  0  0  0  0  0  0  0  0  0  0  # atno 27305 bound_to 6274
  227.2385  343.2711  -98.6509 LP  0  0  0  0  0  0  0  0  0  0  0  0  # atno 27306 bound_to 6274

> <Gold.Score>
     Fitness  S(hb_ext) S(vdw_ext)  S(hb_int)    S(int)      intcor
     27.66       6.00      17.85       0.00      -2.88      -0.78

> <Gold.Goldscore.Fitness>
27.6600

> <Gold.Goldscore.Internal.Vdw>
-3.2970

> <Gold.Goldscore.Internal.Torsion>
-0.3694

> <Gold.Goldscore.External.Vdw>
17.8492

> <Gold.Goldscore.Internal.HBond>
0.0000

> <Gold.Goldscore.External.HBond>
6.0000

> <Gold.Goldscore.Internal.Correction>
-0.7838

> <Gold.Goldscore.Hbonds>
donor molecule, donor type, donor heavy atom, donor atom, acceptor molecule, acceptor atom, score
      P1  H  6703  6724       L1     9  1.00

> <Gold.Goldscore.Internal.Vdw.Weighted>
-3.2970

> <Gold.Goldscore.Internal.Torsion.Weighted>
-0.3694

> <Gold.Goldscore.External.Vdw.Weighted>
24.5426

> <Gold.Goldscore.Internal.HBond.Weighted>
0.0000

> <Gold.Goldscore.External.HBond.Weighted>
6.0000

> <Gold.Goldscore.Internal.Correction.Weighted>
-0.7838

> <Gold.Rescore>
     Score     S(PLP)   S(hbond)     S(cho)   S(metal)  DE(clash)   DE(tors)     intcor
     19.13     -18.47       0.99       0.00       0.00       1.52       0.40       ----

> <Gold.PLP.Fitness>
19.1253

> <Gold.PLP.PLP>
-18.4672

> <Gold.PLP.part.hbond>
-0.8757

> <Gold.PLP.part.metal>
0.0000

> <Gold.PLP.part.buried>
-1.4998

> <Gold.PLP.part.nonpolar>
-16.4787

> <Gold.PLP.part.repulsive>
0.6476

> <Gold.PLP.ligand.clash>
1.5212

> <Gold.PLP.ligand.torsion>
0.3972

> <Gold.PLP.Chemscore.Hbond>
0.9913

> <Gold.PLP.Chemscore.CHOScore>
0.0000

> <Gold.PLP.Chemscore.Metal>
0.0000

> <Gold.Chemscore.Hbonds>
donor molecule, donor type, donor heavy atom, donor atom, acceptor molecule, acceptor atom, score
      P1  H  6703  6724       L1     9  0.84

> <Gold.PLP.Chemscore.Internal.Correction>
   9.000000E+99

