#       Name:                CT1002167954
#       Creating user name   hitesit
#       Creation time:       Sun Apr 16 02:33:47 2023


#       File generated by GOLD software.
#

@<TRIPOS>MOLECULE
CT1002167954|ligand_prepared|mol2|1|dock10
    29    30     1
SMALL
NO_CHARGES


@<TRIPOS>ATOM
      1 C1         221.8158 343.3223 -108.6701 C.3            1 RES1               0.0000
      2 C2         222.5919 342.4551 -107.6580 C.ar           1 RES1               0.0000
      3 C3         220.4339 342.6896 -108.8055 C.2            1 RES1               0.0000
      4 C4         221.7997 344.7352 -108.0971 C.2            1 RES1               0.0000
      5 C5         222.4679 343.3823 -110.0710 C.3            1 RES1               0.0000
      6 C6         222.0289 342.1255 -106.4287 C.ar           1 RES1               0.0000
      7 C7         223.8684 341.9758 -107.9401 C.ar           1 RES1               0.0000
      8 N8         219.3847 343.3310 -108.2157 N.am           1 RES1               0.0000
      9 O9         220.2734 341.6236 -109.3870 O.2            1 RES1               0.0000
     10 N10        220.5917 345.2622 -107.7218 N.am           1 RES1               0.0000
     11 O11        222.8242 345.3905 -107.9518 O.2            1 RES1               0.0000
     12 C12        221.6339 344.1231 -111.1044 C.3            1 RES1               0.0000
     13 C13        222.7158 341.3428 -105.5156 C.ar           1 RES1               0.0000
     14 C14        224.5537 341.1933 -107.0254 C.ar           1 RES1               0.0000
     15 C15        219.3874 344.6126 -107.7266 C.2            1 RES1               0.0000
     16 C16        223.9783 340.8758 -105.8134 C.ar           1 RES1               0.0000
     17 O17        218.3528 345.1354 -107.3223 O.2            1 RES1               0.0000
     18 H18        223.4439 343.8758 -109.9853 H              1 RES1               0.0000
     19 H19        222.6399 342.3582 -110.4246 H              1 RES1               0.0000
     20 H20        221.0373 342.4859 -106.1758 H              1 RES1               0.0000
     21 H21        224.3412 342.2139 -108.8869 H              1 RES1               0.0000
     22 H22        218.5181 342.8096 -108.1304 H              1 RES1               0.0000
     23 H23        220.5901 346.2282 -107.4102 H              1 RES1               0.0000
     24 H24        222.1370 344.1358 -112.0689 H              1 RES1               0.0000
     25 H25        220.6654 343.6444 -111.2335 H              1 RES1               0.0000
     26 H26        221.4646 345.1530 -110.7969 H              1 RES1               0.0000
     27 H27        222.2591 341.0969 -104.5626 H              1 RES1               0.0000
     28 H28        225.5473 340.8285 -107.2637 H              1 RES1               0.0000
     29 H29        224.5160 340.2624 -105.0981 H              1 RES1               0.0000
@<TRIPOS>BOND
    1    1    2 1     
    2    1    3 1     
    3    1    4 1     
    4    1    5 1     
    5    2    6 ar    
    6    2    7 ar    
    7    3    8 1     
    8    3    9 2     
    9    4   10 1     
   10    4   11 2     
   11    5   12 1     
   12    5   18 1     
   13    5   19 1     
   14    6   13 ar    
   15    6   20 1     
   16    7   14 ar    
   17    7   21 1     
   18    8   15 1     
   19    8   22 1     
   20   10   15 1     
   21   10   23 1     
   22   12   24 1     
   23   12   25 1     
   24   12   26 1     
   25   13   16 ar    
   26   13   27 1     
   27   14   16 ar    
   28   14   28 1     
   29   15   17 2     
   30   16   29 1     
@<TRIPOS>SUBSTRUCTURE
      1 RES1           1
@<TRIPOS>SET
DONOR_HYDROGENS      STATIC     ATOMS    <user>   **** ""
2 22 23
ATOM$RED        STATIC     ATOMS    COLORGROUP SYSTEM
2 22 23
@<TRIPOS>COMMENT
> <Gold.Version>
2022.3.0

> <Gold.Id.Protein>
unknown|7ts3_clean|pdb

> <Gold.Protein.RotatedTorsions>
[ 7881 7855 7856 7857 ] final -169.33 input   70.76 | X-H torsion
[ 7957 7941 7942 7943 ] final  -72.51 input   58.28 | X-H torsion
[ 8037 8019 8020 8021 ] final  -49.80 input   92.82 | X-H torsion
[ 8097 8083 8084 8085 ] final  -49.80 input   78.42 | X-H torsion
[ 8177 8155 8156 8157 ] final -143.62 input   79.32 | X-H torsion
[ 9486 9456 9455 9453 ] final  -93.96 input   59.97 | X-H torsion
[ 7821 7805 7806 7807 ] final  174.57 input   99.19 | X-H torsion
[ 7825 7810 7809 7806 ] final  126.76 input   59.97 | X-H torsion
[ 7891 7863 7862 7861 ] final  151.95 input   59.98 | X-H torsion
[ 6481 6465 6466 6467 ] final  136.18 input  110.33 | X-H torsion
[ 6573 6549 6550 6551 ] final  -86.11 input  127.07 | X-H torsion
[ 8245 8229 8230 8231 ] final  161.52 input   96.27 | X-H torsion
[ 10140 10113 10114 10115 ] final   52.73 input   44.66 | X-H torsion
[ 6713 6695 6696 6697 ] final   48.18 input  119.33 | X-H torsion
[ 27271 7808 7807 7806 ] final -130.68 input   -0.00 | X-H torsion
[ 27274 7858 7857 7856 ] final  152.26 input   -0.00 | X-H torsion
[ 27277 7944 7943 7942 ] final  -67.47 input   -0.00 | X-H torsion
[ 27280 8022 8021 8020 ] final  117.02 input    0.00 | X-H torsion
[ 27283 8086 8085 8084 ] final   53.30 input   -0.00 | X-H torsion
[ 27288 10020 10019 10017 ] final  -87.46 input   -0.00 | X-H torsion
[ 27290 6468 6467 6466 ] final -167.69 input    0.00 | X-H torsion
[ 27292 7728 7727 7726 ] final  -49.16 input   -0.00 | X-H torsion
[ 27299 6228 6227 6226 ] final  -15.38 input   -0.00 | X-H torsion
[ 27303 10116 10115 10114 ] final  -44.12 input    0.00 | X-H torsion
[ 27305 6274 6273 6272 ] final   29.00 input    0.00 | X-H torsion

> <Gold.Protein.ActiveResidues>
 ASP403  THR404  ILE407  TYR408  ALA410  LYS411  TRP426  SER427  LYS428  LEU429 
 GLN430  VAL431  PHE432  ASP433  TYR453  SER462  ALA463  ILE464 

> <Gold.Protein.RotatedAtoms>
  228.3597  341.7404 -100.5809 H   0  0  0  0  0  0  0  0  0  0  0  0  # atno 6481 bound_to 6465
  226.7708  344.7769 -101.2656 H   0  0  0  0  0  0  0  0  0  0  0  0  # atno 6573 bound_to 6549
  228.6096  348.1807 -102.5910 H   0  0  0  0  0  0  0  0  0  0  0  0  # atno 6713 bound_to 6695
  222.7968  351.9378 -106.4318 H   0  0  0  0  0  0  0  0  0  0  0  0  # atno 7821 bound_to 7805
  219.1251  349.6275 -106.2075 H   0  0  0  0  0  0  0  0  0  0  0  0  # atno 7825 bound_to 7810
  221.3726  349.2189 -107.9998 H   0  0  0  0  0  0  0  0  0  0  0  0  # atno 7881 bound_to 7855
  219.2118  345.8120 -114.6497 H   0  0  0  0  0  0  0  0  0  0  0  0  # atno 7891 bound_to 7863
  220.7308  346.0784 -114.0412 H   0  0  0  0  0  0  0  0  0  0  0  0  # atno 7892 bound_to 7863
  219.4224  346.0465 -113.0227 H   0  0  0  0  0  0  0  0  0  0  0  0  # atno 7893 bound_to 7863
  223.3488  346.6131 -109.9238 H   0  0  0  0  0  0  0  0  0  0  0  0  # atno 7957 bound_to 7941
  226.2623  344.8894 -109.5093 H   0  0  0  0  0  0  0  0  0  0  0  0  # atno 8037 bound_to 8019
  227.5472  341.6527 -109.4206 H   0  0  0  0  0  0  0  0  0  0  0  0  # atno 8097 bound_to 8083
  229.5278  340.1763 -108.7460 H   0  0  0  0  0  0  0  0  0  0  0  0  # atno 8177 bound_to 8155
  231.0745  338.0621 -106.5653 H   0  0  0  0  0  0  0  0  0  0  0  0  # atno 8245 bound_to 8229
  223.4197  341.3517 -114.9291 H   0  0  0  0  0  0  0  0  0  0  0  0  # atno 9486 bound_to 9456
  230.4051  343.9023 -110.5001 H   0  0  0  0  0  0  0  0  0  0  0  0  # atno 10140 bound_to 10113
  221.9760  346.7858 -107.0846 LP  0  0  0  0  0  0  0  0  0  0  0  0  # atno 27271 bound_to 7808
  220.7409  347.6229 -106.2049 LP  0  0  0  0  0  0  0  0  0  0  0  0  # atno 27272 bound_to 7808
  223.0820  349.2906 -108.3978 LP  0  0  0  0  0  0  0  0  0  0  0  0  # atno 27273 bound_to 7855
  224.5561  347.7110 -111.5828 LP  0  0  0  0  0  0  0  0  0  0  0  0  # atno 27274 bound_to 7858
  222.8875  347.7123 -112.0472 LP  0  0  0  0  0  0  0  0  0  0  0  0  # atno 27275 bound_to 7858
  223.8478  347.4310 -108.4558 LP  0  0  0  0  0  0  0  0  0  0  0  0  # atno 27276 bound_to 7941
  225.7978  344.7861 -107.4043 LP  0  0  0  0  0  0  0  0  0  0  0  0  # atno 27277 bound_to 7944
  224.4849  343.9456 -108.1592 LP  0  0  0  0  0  0  0  0  0  0  0  0  # atno 27278 bound_to 7944
  225.7562  344.7154 -111.1742 LP  0  0  0  0  0  0  0  0  0  0  0  0  # atno 27279 bound_to 8019
  229.2064  343.6208 -109.7340 LP  0  0  0  0  0  0  0  0  0  0  0  0  # atno 27280 bound_to 8022
  228.8251  342.6143 -111.0911 LP  0  0  0  0  0  0  0  0  0  0  0  0  # atno 27281 bound_to 8022
  226.8436  342.3221 -107.9667 LP  0  0  0  0  0  0  0  0  0  0  0  0  # atno 27282 bound_to 8083
  227.6837  339.2284 -107.9111 LP  0  0  0  0  0  0  0  0  0  0  0  0  # atno 27283 bound_to 8086
  229.0273  338.5695 -107.0391 LP  0  0  0  0  0  0  0  0  0  0  0  0  # atno 27284 bound_to 8086
  231.0397  340.9076 -108.2447 LP  0  0  0  0  0  0  0  0  0  0  0  0  # atno 27285 bound_to 8155
  224.2694  341.4624 -113.5458 LP  0  0  0  0  0  0  0  0  0  0  0  0  # atno 27286 bound_to 9456
  223.5256  340.0633 -113.9408 LP  0  0  0  0  0  0  0  0  0  0  0  0  # atno 27287 bound_to 9456
  226.4658  345.4146 -112.2392 LP  0  0  0  0  0  0  0  0  0  0  0  0  # atno 27288 bound_to 10020
  226.6147  344.3852 -113.6242 LP  0  0  0  0  0  0  0  0  0  0  0  0  # atno 27289 bound_to 10020
  227.5667  346.6385 -101.9331 LP  0  0  0  0  0  0  0  0  0  0  0  0  # atno 27290 bound_to 6468
  227.8356  345.5202 -103.2281 LP  0  0  0  0  0  0  0  0  0  0  0  0  # atno 27291 bound_to 6468
  225.3849  350.0308 -107.8628 LP  0  0  0  0  0  0  0  0  0  0  0  0  # atno 27292 bound_to 7728
  224.8158  349.8430 -106.2378 LP  0  0  0  0  0  0  0  0  0  0  0  0  # atno 27293 bound_to 7728
  222.8854  351.0726 -107.9468 LP  0  0  0  0  0  0  0  0  0  0  0  0  # atno 27294 bound_to 7805
  220.1890  349.9670 -107.3908 LP  0  0  0  0  0  0  0  0  0  0  0  0  # atno 27295 bound_to 7810
  219.5047  351.1760 -106.5325 LP  0  0  0  0  0  0  0  0  0  0  0  0  # atno 27296 bound_to 7810
  229.3126  343.1962 -100.4885 LP  0  0  0  0  0  0  0  0  0  0  0  0  # atno 27297 bound_to 6465
  227.2263  344.1993  -99.6767 LP  0  0  0  0  0  0  0  0  0  0  0  0  # atno 27298 bound_to 6549
  228.7259  339.9269 -100.5658 LP  0  0  0  0  0  0  0  0  0  0  0  0  # atno 27299 bound_to 6228
  227.1801  340.5854 -100.1453 LP  0  0  0  0  0  0  0  0  0  0  0  0  # atno 27300 bound_to 6228
  232.2908  337.5605 -107.7198 LP  0  0  0  0  0  0  0  0  0  0  0  0  # atno 27301 bound_to 8229
  231.0026  344.8508 -111.8469 LP  0  0  0  0  0  0  0  0  0  0  0  0  # atno 27302 bound_to 10113
  231.3991  342.5434 -108.8090 LP  0  0  0  0  0  0  0  0  0  0  0  0  # atno 27303 bound_to 10116
  232.0123  341.3238 -109.8752 LP  0  0  0  0  0  0  0  0  0  0  0  0  # atno 27304 bound_to 10116
  225.5958  342.7672  -98.8670 LP  0  0  0  0  0  0  0  0  0  0  0  0  # atno 27305 bound_to 6274
  227.2296  343.2877  -98.6227 LP  0  0  0  0  0  0  0  0  0  0  0  0  # atno 27306 bound_to 6274

> <Gold.Score>
     Fitness  S(hb_ext) S(vdw_ext)  S(hb_int)    S(int)      intcor
     25.91       0.86      18.27       0.00      -0.07      -0.76

> <Gold.Goldscore.Fitness>
25.9069

> <Gold.Goldscore.Internal.Vdw>
-0.4053

> <Gold.Goldscore.Internal.Torsion>
-0.4208

> <Gold.Goldscore.External.Vdw>
18.2669

> <Gold.Goldscore.Internal.HBond>
0.0000

> <Gold.Goldscore.External.HBond>
0.8576

> <Gold.Goldscore.Internal.Correction>
-0.7585

> <Gold.Goldscore.Hbonds>
donor molecule, donor type, donor heavy atom, donor atom, acceptor molecule, acceptor atom, score
      L1  H    10    23       P1  7808  0.43

> <Gold.Goldscore.Internal.Vdw.Weighted>
-0.4053

> <Gold.Goldscore.Internal.Torsion.Weighted>
-0.4208

> <Gold.Goldscore.External.Vdw.Weighted>
25.1170

> <Gold.Goldscore.Internal.HBond.Weighted>
0.0000

> <Gold.Goldscore.External.HBond.Weighted>
0.8576

> <Gold.Goldscore.Internal.Correction.Weighted>
-0.7585

> <Gold.Rescore>
     Score     S(PLP)   S(hbond)     S(cho)   S(metal)  DE(clash)   DE(tors)     intcor
     18.02     -16.74       0.65       0.00       0.00       0.00       0.33       ----

> <Gold.PLP.Fitness>
18.0183

> <Gold.PLP.PLP>
-16.7430

> <Gold.PLP.part.hbond>
-2.9417

> <Gold.PLP.part.metal>
0.0000

> <Gold.PLP.part.buried>
4.0798

> <Gold.PLP.part.nonpolar>
-23.5245

> <Gold.PLP.part.repulsive>
4.9831

> <Gold.PLP.ligand.clash>
0.0000

> <Gold.PLP.ligand.torsion>
0.3350

> <Gold.PLP.Chemscore.Hbond>
0.6484

> <Gold.PLP.Chemscore.CHOScore>
0.0000

> <Gold.PLP.Chemscore.Metal>
0.0000

> <Gold.Chemscore.Hbonds>
donor molecule, donor type, donor heavy atom, donor atom, acceptor molecule, acceptor atom, score
      L1  H    10    23       P1  7808  0.96

> <Gold.PLP.Chemscore.Internal.Correction>
   9.000000E+99

