#       Name:                CT1002167954
#       Creating user name   hitesit
#       Creation time:       Sun Apr 16 02:33:44 2023


#       File generated by GOLD software.
#

@<TRIPOS>MOLECULE
CT1002167954|ligand_prepared|mol2|1|dock2
    29    30     1
SMALL
NO_CHARGES


@<TRIPOS>ATOM
      1 C1         221.6333 342.5704 -110.4376 C.3            1 RES1               0.0000
      2 C2         222.4281 342.0789 -109.2106 C.ar           1 RES1               0.0000
      3 C3         221.8691 344.0754 -110.5260 C.2            1 RES1               0.0000
      4 C4         222.1648 341.7862 -111.6322 C.2            1 RES1               0.0000
      5 C5         220.1110 342.3167 -110.3386 C.3            1 RES1               0.0000
      6 C6         222.4053 340.7369 -108.8427 C.ar           1 RES1               0.0000
      7 C7         223.1893 342.9535 -108.4397 C.ar           1 RES1               0.0000
      8 N8         222.6964 344.5285 -111.5109 N.am           1 RES1               0.0000
      9 O9         221.3682 344.8491 -109.7193 O.2            1 RES1               0.0000
     10 N10        222.8278 342.4787 -112.6113 N.am           1 RES1               0.0000
     11 O11        222.0300 340.5724 -111.7264 O.2            1 RES1               0.0000
     12 C12        219.3088 342.9545 -111.4619 C.3            1 RES1               0.0000
     13 C13        223.1200 340.2850 -107.7458 C.ar           1 RES1               0.0000
     14 C14        223.9032 342.4995 -107.3430 C.ar           1 RES1               0.0000
     15 C15        223.1445 343.8097 -112.5899 C.2            1 RES1               0.0000
     16 C16        223.8697 341.1658 -106.9955 C.ar           1 RES1               0.0000
     17 O17        223.7911 344.3497 -113.4829 O.2            1 RES1               0.0000
     18 H18        219.9321 341.2344 -110.3473 H              1 RES1               0.0000
     19 H19        219.7493 342.7086 -109.3799 H              1 RES1               0.0000
     20 H20        221.8191 340.0295 -109.4197 H              1 RES1               0.0000
     21 H21        223.2296 344.0073 -108.6938 H              1 RES1               0.0000
     22 H22        223.0111 345.4908 -111.4385 H              1 RES1               0.0000
     23 H23        223.1114 341.9534 -113.4322 H              1 RES1               0.0000
     24 H24        218.2475 342.7459 -111.3445 H              1 RES1               0.0000
     25 H25        219.4434 344.0341 -111.4672 H              1 RES1               0.0000
     26 H26        219.6251 342.5687 -112.4288 H              1 RES1               0.0000
     27 H27        223.0893 339.2346 -107.4756 H              1 RES1               0.0000
     28 H28        224.4913 343.1963 -106.7550 H              1 RES1               0.0000
     29 H29        224.4298 340.8115 -106.1365 H              1 RES1               0.0000
@<TRIPOS>BOND
    1    1    2 1     
    2    1    3 1     
    3    1    4 1     
    4    1    5 1     
    5    2    6 ar    
    6    2    7 ar    
    7    3    8 1     
    8    3    9 2     
    9    4   10 1     
   10    4   11 2     
   11    5   12 1     
   12    5   18 1     
   13    5   19 1     
   14    6   13 ar    
   15    6   20 1     
   16    7   14 ar    
   17    7   21 1     
   18    8   15 1     
   19    8   22 1     
   20   10   15 1     
   21   10   23 1     
   22   12   24 1     
   23   12   25 1     
   24   12   26 1     
   25   13   16 ar    
   26   13   27 1     
   27   14   16 ar    
   28   14   28 1     
   29   15   17 2     
   30   16   29 1     
@<TRIPOS>SUBSTRUCTURE
      1 RES1           1
@<TRIPOS>SET
DONOR_HYDROGENS      STATIC     ATOMS    <user>   **** ""
2 22 23
ATOM$RED        STATIC     ATOMS    COLORGROUP SYSTEM
2 22 23
@<TRIPOS>COMMENT
> <Gold.Version>
2022.3.0

> <Gold.Id.Protein>
unknown|7ts3_clean|pdb

> <Gold.Protein.RotatedTorsions>
[ 7881 7855 7856 7857 ] final   47.74 input   70.76 | X-H torsion
[ 7957 7941 7942 7943 ] final  -30.44 input   58.28 | X-H torsion
[ 8037 8019 8020 8021 ] final  170.13 input   92.82 | X-H torsion
[ 8097 8083 8084 8085 ] final  140.27 input   78.42 | X-H torsion
[ 8177 8155 8156 8157 ] final  -53.98 input   79.32 | X-H torsion
[ 9486 9456 9455 9453 ] final   11.68 input   59.97 | X-H torsion
[ 7821 7805 7806 7807 ] final  -73.27 input   99.19 | X-H torsion
[ 7825 7810 7809 7806 ] final  -54.32 input   59.97 | X-H torsion
[ 7891 7863 7862 7861 ] final -152.51 input   59.98 | X-H torsion
[ 6481 6465 6466 6467 ] final  136.45 input  110.33 | X-H torsion
[ 6573 6549 6550 6551 ] final   29.70 input  127.07 | X-H torsion
[ 8245 8229 8230 8231 ] final   95.39 input   96.27 | X-H torsion
[ 10140 10113 10114 10115 ] final   67.89 input   44.66 | X-H torsion
[ 6713 6695 6696 6697 ] final  -15.10 input  119.33 | X-H torsion
[ 27271 7808 7807 7806 ] final  -31.92 input   -0.00 | X-H torsion
[ 27274 7858 7857 7856 ] final  -91.04 input   -0.00 | X-H torsion
[ 27277 7944 7943 7942 ] final  153.36 input   -0.00 | X-H torsion
[ 27280 8022 8021 8020 ] final  -99.89 input    0.00 | X-H torsion
[ 27283 8086 8085 8084 ] final   88.41 input   -0.00 | X-H torsion
[ 27288 10020 10019 10017 ] final  -38.04 input   -0.00 | X-H torsion
[ 27290 6468 6467 6466 ] final  -58.76 input    0.00 | X-H torsion
[ 27292 7728 7727 7726 ] final  173.00 input   -0.00 | X-H torsion
[ 27299 6228 6227 6226 ] final   84.51 input   -0.00 | X-H torsion
[ 27303 10116 10115 10114 ] final  110.77 input    0.00 | X-H torsion
[ 27305 6274 6273 6272 ] final -128.37 input    0.00 | X-H torsion

> <Gold.Protein.ActiveResidues>
 ASP403  THR404  ILE407  TYR408  ALA410  LYS411  TRP426  SER427  LYS428  LEU429 
 GLN430  VAL431  PHE432  ASP433  TYR453  SER462  ALA463  ILE464 

> <Gold.Protein.RotatedAtoms>
  228.3622  341.7389 -100.5839 H   0  0  0  0  0  0  0  0  0  0  0  0  # atno 6481 bound_to 6465
  227.8559  344.6037 -100.2305 H   0  0  0  0  0  0  0  0  0  0  0  0  # atno 6573 bound_to 6549
  229.2563  348.6326 -103.0707 H   0  0  0  0  0  0  0  0  0  0  0  0  # atno 6713 bound_to 6695
  223.6287  351.1203 -107.3177 H   0  0  0  0  0  0  0  0  0  0  0  0  # atno 7821 bound_to 7805
  220.0796  350.8960 -107.1994 H   0  0  0  0  0  0  0  0  0  0  0  0  # atno 7825 bound_to 7810
  222.8440  349.6597 -108.7490 H   0  0  0  0  0  0  0  0  0  0  0  0  # atno 7881 bound_to 7855
  220.0845  345.8999 -114.8111 H   0  0  0  0  0  0  0  0  0  0  0  0  # atno 7891 bound_to 7863
  220.4223  346.1467 -113.2068 H   0  0  0  0  0  0  0  0  0  0  0  0  # atno 7892 bound_to 7863
  218.8586  345.8904 -113.6958 H   0  0  0  0  0  0  0  0  0  0  0  0  # atno 7893 bound_to 7863
  223.3448  346.2108 -109.4232 H   0  0  0  0  0  0  0  0  0  0  0  0  # atno 7957 bound_to 7941
  225.2688  344.6786 -110.8303 H   0  0  0  0  0  0  0  0  0  0  0  0  # atno 8037 bound_to 8019
  226.8973  342.4652 -107.9955 H   0  0  0  0  0  0  0  0  0  0  0  0  # atno 8097 bound_to 8083
  230.1246  340.3161 -107.6451 H   0  0  0  0  0  0  0  0  0  0  0  0  # atno 8177 bound_to 8155
  231.1688  337.1452 -106.8708 H   0  0  0  0  0  0  0  0  0  0  0  0  # atno 8245 bound_to 8229
  223.4143  340.0816 -114.1468 H   0  0  0  0  0  0  0  0  0  0  0  0  # atno 9486 bound_to 9456
  230.3494  344.1149 -110.4155 H   0  0  0  0  0  0  0  0  0  0  0  0  # atno 10140 bound_to 10113
  221.7915  347.3412 -105.9073 LP  0  0  0  0  0  0  0  0  0  0  0  0  # atno 27271 bound_to 7808
  220.9254  347.0675 -107.3821 LP  0  0  0  0  0  0  0  0  0  0  0  0  # atno 27272 bound_to 7808
  221.6869  348.8726 -107.6875 LP  0  0  0  0  0  0  0  0  0  0  0  0  # atno 27273 bound_to 7855
  223.3753  346.9458 -112.0233 LP  0  0  0  0  0  0  0  0  0  0  0  0  # atno 27274 bound_to 7858
  224.0683  348.4775 -111.6067 LP  0  0  0  0  0  0  0  0  0  0  0  0  # atno 27275 bound_to 7858
  223.8517  347.8167 -108.9358 LP  0  0  0  0  0  0  0  0  0  0  0  0  # atno 27276 bound_to 7941
  224.9830  343.6037 -108.1613 LP  0  0  0  0  0  0  0  0  0  0  0  0  # atno 27277 bound_to 7944
  225.2997  345.1280 -107.4021 LP  0  0  0  0  0  0  0  0  0  0  0  0  # atno 27278 bound_to 7944
  226.7227  344.9205 -109.8890 LP  0  0  0  0  0  0  0  0  0  0  0  0  # atno 27279 bound_to 8019
  229.1337  342.3253 -110.7419 LP  0  0  0  0  0  0  0  0  0  0  0  0  # atno 27280 bound_to 8022
  228.8978  343.9098 -110.0832 LP  0  0  0  0  0  0  0  0  0  0  0  0  # atno 27281 bound_to 8022
  227.4767  341.5307 -109.3550 LP  0  0  0  0  0  0  0  0  0  0  0  0  # atno 27282 bound_to 8083
  227.9459  338.9164 -108.2380 LP  0  0  0  0  0  0  0  0  0  0  0  0  # atno 27283 bound_to 8086
  228.7651  338.8816 -106.7123 LP  0  0  0  0  0  0  0  0  0  0  0  0  # atno 27284 bound_to 8086
  230.4664  340.7733 -109.3022 LP  0  0  0  0  0  0  0  0  0  0  0  0  # atno 27285 bound_to 8155
  223.5320  341.5431 -114.8523 LP  0  0  0  0  0  0  0  0  0  0  0  0  # atno 27286 bound_to 9456
  224.2686  341.2618 -113.4223 LP  0  0  0  0  0  0  0  0  0  0  0  0  # atno 27287 bound_to 9456
  226.0053  345.5634 -112.7778 LP  0  0  0  0  0  0  0  0  0  0  0  0  # atno 27288 bound_to 10020
  227.0752  344.2364 -113.0856 LP  0  0  0  0  0  0  0  0  0  0  0  0  # atno 27289 bound_to 10020
  228.5405  345.8665 -102.5982 LP  0  0  0  0  0  0  0  0  0  0  0  0  # atno 27290 bound_to 6468
  226.8619  346.2922 -102.5629 LP  0  0  0  0  0  0  0  0  0  0  0  0  # atno 27291 bound_to 6468
  224.4959  349.4803 -106.6306 LP  0  0  0  0  0  0  0  0  0  0  0  0  # atno 27292 bound_to 7728
  225.7048  350.3935 -107.4701 LP  0  0  0  0  0  0  0  0  0  0  0  0  # atno 27293 bound_to 7728
  222.0706  351.8733 -107.0791 LP  0  0  0  0  0  0  0  0  0  0  0  0  # atno 27294 bound_to 7805
  219.0160  350.5266 -106.0246 LP  0  0  0  0  0  0  0  0  0  0  0  0  # atno 27295 bound_to 7810
  219.7161  349.3386 -106.8994 LP  0  0  0  0  0  0  0  0  0  0  0  0  # atno 27296 bound_to 7810
  229.3101  343.1977 -100.4855 LP  0  0  0  0  0  0  0  0  0  0  0  0  # atno 27297 bound_to 6465
  226.1792  344.3664 -100.6756 LP  0  0  0  0  0  0  0  0  0  0  0  0  # atno 27298 bound_to 6549
  227.4434  339.7781 -100.8673 LP  0  0  0  0  0  0  0  0  0  0  0  0  # atno 27299 bound_to 6228
  228.4626  340.7342  -99.8438 LP  0  0  0  0  0  0  0  0  0  0  0  0  # atno 27300 bound_to 6228
  232.1997  338.4469 -107.4245 LP  0  0  0  0  0  0  0  0  0  0  0  0  # atno 27301 bound_to 8229
  231.0561  344.6461 -111.9284 LP  0  0  0  0  0  0  0  0  0  0  0  0  # atno 27302 bound_to 10113
  231.7431  341.4859 -110.0824 LP  0  0  0  0  0  0  0  0  0  0  0  0  # atno 27303 bound_to 10116
  231.6683  342.3814 -108.6017 LP  0  0  0  0  0  0  0  0  0  0  0  0  # atno 27304 bound_to 10116
  227.2596  343.1059  -98.9082 LP  0  0  0  0  0  0  0  0  0  0  0  0  # atno 27305 bound_to 6274
  225.5659  342.9491  -98.5814 LP  0  0  0  0  0  0  0  0  0  0  0  0  # atno 27306 bound_to 6274

> <Gold.Score>
     Fitness  S(hb_ext) S(vdw_ext)  S(hb_int)    S(int)      intcor
     31.75       4.17      22.28       0.00      -3.05      -0.78

> <Gold.Goldscore.Fitness>
31.7523

> <Gold.Goldscore.Internal.Vdw>
-3.3756

> <Gold.Goldscore.Internal.Torsion>
-0.4551

> <Gold.Goldscore.External.Vdw>
22.2787

> <Gold.Goldscore.Internal.HBond>
0.0000

> <Gold.Goldscore.External.HBond>
4.1659

> <Gold.Goldscore.Internal.Correction>
-0.7838

> <Gold.Goldscore.Hbonds>
donor molecule, donor type, donor heavy atom, donor atom, acceptor molecule, acceptor atom, score
      P1  H  7941  7957       L1     9  0.48
      L1  H     8    22       P1  7858  1.00
      L1  H    10    23       P1  9456  0.60

> <Gold.Goldscore.Internal.Vdw.Weighted>
-3.3756

> <Gold.Goldscore.Internal.Torsion.Weighted>
-0.4551

> <Gold.Goldscore.External.Vdw.Weighted>
30.6332

> <Gold.Goldscore.Internal.HBond.Weighted>
0.0000

> <Gold.Goldscore.External.HBond.Weighted>
4.1659

> <Gold.Goldscore.Internal.Correction.Weighted>
-0.7838

> <Gold.Rescore>
     Score     S(PLP)   S(hbond)     S(cho)   S(metal)  DE(clash)   DE(tors)     intcor
     21.89     -20.46       1.00       0.00       0.00       1.38       0.09       ----

> <Gold.PLP.Fitness>
21.8923

> <Gold.PLP.PLP>
-20.4554

> <Gold.PLP.part.hbond>
-3.5819

> <Gold.PLP.part.metal>
0.0000

> <Gold.PLP.part.buried>
-0.4192

> <Gold.PLP.part.nonpolar>
-17.5866

> <Gold.PLP.part.repulsive>
0.4695

> <Gold.PLP.ligand.clash>
1.3816

> <Gold.PLP.ligand.torsion>
0.0907

> <Gold.PLP.Chemscore.Hbond>
1.0000

> <Gold.PLP.Chemscore.CHOScore>
0.0000

> <Gold.PLP.Chemscore.Metal>
0.0000

> <Gold.Chemscore.Hbonds>
donor molecule, donor type, donor heavy atom, donor atom, acceptor molecule, acceptor atom, score
      L1  H     8    22       P1  7858  0.03
      L1  H    10    23       P1  9456  0.80
      P1  H  7941  7957       L1     9  0.17

> <Gold.PLP.Chemscore.Internal.Correction>
   9.000000E+99

