#       Name:                CT1002167954
#       Creating user name   hitesit
#       Creation time:       Sun Apr 16 20:16:44 2023


#       File generated by GOLD software.
#

@<TRIPOS>MOLECULE
CT1002167954|ligand_prepared|mol2|1|dock3
    29    30     1
SMALL
NO_CHARGES


@<TRIPOS>ATOM
      1 C1         117.6417 246.3665 359.9100 C.3            1 RES1               0.0000
      2 C2         118.3876 247.6379 359.4564 C.ar           1 RES1               0.0000
      3 C3         118.3704 245.8625 361.1523 C.2            1 RES1               0.0000
      4 C4         116.1980 246.7862 360.1630 C.2            1 RES1               0.0000
      5 C5         117.6328 245.2370 358.8537 C.3            1 RES1               0.0000
      6 C6         119.5626 247.5443 358.7166 C.ar           1 RES1               0.0000
      7 C7         117.9125 248.9092 359.7673 C.ar           1 RES1               0.0000
      8 N8         117.7607 246.0421 362.3589 N.am           1 RES1               0.0000
      9 O9         119.4808 245.3509 361.0782 O.2            1 RES1               0.0000
     10 N10        115.7268 246.7230 361.4482 N.am           1 RES1               0.0000
     11 O11        115.4693 247.1870 359.2637 O.2            1 RES1               0.0000
     12 C12        116.6598 244.1114 359.1679 C.3            1 RES1               0.0000
     13 C13        120.2366 248.6803 358.3000 C.ar           1 RES1               0.0000
     14 C14        118.5882 250.0440 359.3500 C.ar           1 RES1               0.0000
     15 C15        116.4520 246.3992 362.5624 C.2            1 RES1               0.0000
     16 C16        119.7498 249.9308 358.6160 C.ar           1 RES1               0.0000
     17 O17        115.9717 246.4176 363.6921 O.2            1 RES1               0.0000
     18 H18        117.3721 245.6673 357.8789 H              1 RES1               0.0000
     19 H19        118.6437 244.8183 358.7758 H              1 RES1               0.0000
     20 H20        119.9623 246.5687 358.4605 H              1 RES1               0.0000
     21 H21        117.0012 249.0224 360.3446 H              1 RES1               0.0000
     22 H22        118.3305 245.8976 363.1864 H              1 RES1               0.0000
     23 H23        114.7443 246.9371 361.5872 H              1 RES1               0.0000
     24 H24        116.6934 243.3458 358.3956 H              1 RES1               0.0000
     25 H25        116.9049 243.6440 360.1193 H              1 RES1               0.0000
     26 H26        115.6408 244.4880 359.2277 H              1 RES1               0.0000
     27 H27        121.1511 248.5857 357.7238 H              1 RES1               0.0000
     28 H28        118.2017 251.0261 359.6015 H              1 RES1               0.0000
     29 H29        120.2778 250.8205 358.2892 H              1 RES1               0.0000
@<TRIPOS>BOND
    1    1    2 1     
    2    1    3 1     
    3    1    4 1     
    4    1    5 1     
    5    2    6 ar    
    6    2    7 ar    
    7    3    8 1     
    8    3    9 2     
    9    4   10 1     
   10    4   11 2     
   11    5   12 1     
   12    5   18 1     
   13    5   19 1     
   14    6   13 ar    
   15    6   20 1     
   16    7   14 ar    
   17    7   21 1     
   18    8   15 1     
   19    8   22 1     
   20   10   15 1     
   21   10   23 1     
   22   12   24 1     
   23   12   25 1     
   24   12   26 1     
   25   13   16 ar    
   26   13   27 1     
   27   14   16 ar    
   28   14   28 1     
   29   15   17 2     
   30   16   29 1     
@<TRIPOS>SUBSTRUCTURE
      1 RES1           1
@<TRIPOS>SET
DONOR_HYDROGENS      STATIC     ATOMS    <user>   **** ""
2 22 23
ATOM$RED        STATIC     ATOMS    COLORGROUP SYSTEM
2 22 23
@<TRIPOS>COMMENT
> <Gold.Version>
2022.3.0

> <Gold.Id.Protein>
unknown|5adg_clean|pdb

> <Gold.Protein.RotatedTorsions>
[ 5561 5545 5544 5541 ] final  179.11 input   60.03 | X-H torsion
[ 12878 12857 12856 12854 ] final  -12.08 input   60.00 | X-H torsion
[ 9086 9067 9066 9064 ] final  136.55 input   60.02 | X-H torsion
[ 8993 8977 8976 8973 ] final  -85.96 input   60.01 | X-H torsion

> <Gold.Protein.ActiveResidues>
 TRP311  MET341  HIS342  TRP414  ALA417  ARG419  CYS420  VAL421  GLY422  LEU460 
 SER462  SER482  GLN483  ARG486  ALA502  ASN503  TYR567  GLY568  LEU569  PRO570 
 ALA571  VAL572  SER573  ASN574  MET575  LEU576  PHE589  SER590  GLY591  TRP592 
 TYR593  MET594  GLY595  GLU597  ILE598  ARG601  ARG608  ILE653  VAL654  TRP683 
 PHE709  GLU710  TYR711  GLN712  ASP714  HEM750  H4B760 

> <Gold.Protein.RotatedAtoms>
  128.2237  249.2244  361.7565 H   0  0  0  0  0  0  0  0  0  0  0  0  # atno 5561 bound_to 5545
  115.7874  245.3588  369.0359 H   0  0  0  0  0  0  0  0  0  0  0  0  # atno 8993 bound_to 8977
  122.6857  241.1695  362.0738 H   0  0  0  0  0  0  0  0  0  0  0  0  # atno 9086 bound_to 9067
  120.9806  253.5238  355.2517 H   0  0  0  0  0  0  0  0  0  0  0  0  # atno 12878 bound_to 12857
  127.1823  248.6011  362.8409 LP  0  0  0  0  0  0  0  0  0  0  0  0  # atno 13468 bound_to 5545
  128.5611  249.3157  363.3460 LP  0  0  0  0  0  0  0  0  0  0  0  0  # atno 13469 bound_to 5545
  121.1756  254.3539  353.8655 LP  0  0  0  0  0  0  0  0  0  0  0  0  # atno 13474 bound_to 12857
  119.7041  254.2668  354.5682 LP  0  0  0  0  0  0  0  0  0  0  0  0  # atno 13475 bound_to 12857
  122.7837  241.7828  360.5695 LP  0  0  0  0  0  0  0  0  0  0  0  0  # atno 13500 bound_to 9067
  123.4935  240.3544  360.9198 LP  0  0  0  0  0  0  0  0  0  0  0  0  # atno 13501 bound_to 9067
  115.8943  243.7433  368.8709 LP  0  0  0  0  0  0  0  0  0  0  0  0  # atno 13514 bound_to 8977
  114.7069  244.5676  368.1113 LP  0  0  0  0  0  0  0  0  0  0  0  0  # atno 13515 bound_to 8977

> <Gold.Score>
     Fitness  S(hb_ext) S(vdw_ext)  S(hb_int)    S(int)      intcor
     58.43      10.13      35.80       0.00      -0.93      -0.77

> <Gold.Goldscore.Fitness>
58.4280

> <Gold.Goldscore.Internal.Vdw>
-1.0908

> <Gold.Goldscore.Internal.Torsion>
-0.6014

> <Gold.Goldscore.External.Vdw>
35.7987

> <Gold.Goldscore.Internal.HBond>
0.0000

> <Gold.Goldscore.External.HBond>
10.1318

> <Gold.Goldscore.Internal.Correction>
-0.7653

> <Gold.Goldscore.Hbonds>
donor molecule, donor type, donor heavy atom, donor atom, acceptor molecule, acceptor atom, score
      P1  H  8444  8467       L1    17  0.07
      P1  M 13289 13530       L1    11  1.00

> <Gold.Goldscore.Internal.Vdw.Weighted>
-1.0908

> <Gold.Goldscore.Internal.Torsion.Weighted>
-0.6014

> <Gold.Goldscore.External.Vdw.Weighted>
49.2232

> <Gold.Goldscore.Internal.HBond.Weighted>
0.0000

> <Gold.Goldscore.External.HBond.Weighted>
10.1318

> <Gold.Goldscore.Internal.Correction.Weighted>
-0.7653

> <Gold.Rescore>
     Score     S(PLP)   S(hbond)     S(cho)   S(metal)  DE(clash)   DE(tors)     intcor
     50.49     -45.95       0.13       0.00       1.00       0.29       0.77       ----

> <Gold.PLP.Fitness>
50.4881

> <Gold.PLP.PLP>
-45.9490

> <Gold.PLP.part.hbond>
-2.0000

> <Gold.PLP.part.metal>
-1.0000

> <Gold.PLP.part.buried>
9.6427

> <Gold.PLP.part.nonpolar>
-62.0132

> <Gold.PLP.part.repulsive>
7.5654

> <Gold.PLP.ligand.clash>
0.2939

> <Gold.PLP.ligand.torsion>
0.7712

> <Gold.PLP.Chemscore.Hbond>
0.1251

> <Gold.PLP.Chemscore.CHOScore>
0.0000

> <Gold.PLP.Chemscore.Metal>
1.0000

> <Gold.Chemscore.Hbonds>
donor molecule, donor type, donor heavy atom, donor atom, acceptor molecule, acceptor atom, score
      L1  H     8    22       P1  8399  0.13
      P1  M 13289 13289       L1    11  1.00

> <Gold.PLP.Chemscore.Internal.Correction>
   9.000000E+99

