#       Name:                CT1002167954
#       Creating user name   hitesit
#       Creation time:       Sun Apr 16 20:16:50 2023


#       File generated by GOLD software.
#

@<TRIPOS>MOLECULE
CT1002167954|ligand_prepared|mol2|1|dock10
    29    30     1
SMALL
NO_CHARGES


@<TRIPOS>ATOM
      1 C1         123.7541 245.6501 355.2292 C.3            1 RES1               0.0000
      2 C2         122.9692 245.9781 356.5157 C.ar           1 RES1               0.0000
      3 C3         123.2787 244.2726 354.7768 C.2            1 RES1               0.0000
      4 C4         123.4435 246.7704 354.2427 C.2            1 RES1               0.0000
      5 C5         125.2869 245.5999 355.4281 C.3            1 RES1               0.0000
      6 C6         123.2772 247.1100 357.2645 C.ar           1 RES1               0.0000
      7 C7         121.9347 245.1612 356.9641 C.ar           1 RES1               0.0000
      8 N8         122.4576 244.2132 353.6895 N.am           1 RES1               0.0000
      9 O9         123.5876 243.2573 355.3884 O.2            1 RES1               0.0000
     10 N10        122.7439 246.4515 353.1084 N.am           1 RES1               0.0000
     11 O11        123.7839 247.9294 354.4454 O.2            1 RES1               0.0000
     12 C12        126.0729 245.5582 354.1271 C.3            1 RES1               0.0000
     13 C13        122.5745 247.4159 358.4182 C.ar           1 RES1               0.0000
     14 C14        121.2334 245.4689 358.1183 C.ar           1 RES1               0.0000
     15 C15        122.2103 245.2294 352.8019 C.2            1 RES1               0.0000
     16 C16        121.5520 246.5959 358.8456 C.ar           1 RES1               0.0000
     17 O17        121.5461 245.0336 351.7882 O.2            1 RES1               0.0000
     18 H18        125.5978 246.4827 356.0003 H              1 RES1               0.0000
     19 H19        125.5372 244.7112 356.0204 H              1 RES1               0.0000
     20 H20        124.0803 247.7658 356.9451 H              1 RES1               0.0000
     21 H21        121.6673 244.2688 356.4085 H              1 RES1               0.0000
     22 H22        121.9835 243.3316 353.5208 H              1 RES1               0.0000
     23 H23        122.6086 247.1939 352.4295 H              1 RES1               0.0000
     24 H24        127.1425 245.5238 354.3235 H              1 RES1               0.0000
     25 H25        125.8071 244.6790 353.5438 H              1 RES1               0.0000
     26 H26        125.8673 246.4400 353.5238 H              1 RES1               0.0000
     27 H27        122.8301 248.3033 358.9878 H              1 RES1               0.0000
     28 H28        120.4298 244.8203 358.4513 H              1 RES1               0.0000
     29 H29        121.0014 246.8359 359.7492 H              1 RES1               0.0000
@<TRIPOS>BOND
    1    1    2 1     
    2    1    3 1     
    3    1    4 1     
    4    1    5 1     
    5    2    6 ar    
    6    2    7 ar    
    7    3    8 1     
    8    3    9 2     
    9    4   10 1     
   10    4   11 2     
   11    5   12 1     
   12    5   18 1     
   13    5   19 1     
   14    6   13 ar    
   15    6   20 1     
   16    7   14 ar    
   17    7   21 1     
   18    8   15 1     
   19    8   22 1     
   20   10   15 1     
   21   10   23 1     
   22   12   24 1     
   23   12   25 1     
   24   12   26 1     
   25   13   16 ar    
   26   13   27 1     
   27   14   16 ar    
   28   14   28 1     
   29   15   17 2     
   30   16   29 1     
@<TRIPOS>SUBSTRUCTURE
      1 RES1           1
@<TRIPOS>SET
DONOR_HYDROGENS      STATIC     ATOMS    <user>   **** ""
2 22 23
ATOM$RED        STATIC     ATOMS    COLORGROUP SYSTEM
2 22 23
@<TRIPOS>COMMENT
> <Gold.Version>
2022.3.0

> <Gold.Id.Protein>
unknown|5adg_clean|pdb

> <Gold.Protein.RotatedTorsions>
[ 5561 5545 5544 5541 ] final  163.62 input   60.03 | X-H torsion
[ 12878 12857 12856 12854 ] final -151.64 input   60.00 | X-H torsion
[ 9086 9067 9066 9064 ] final   24.58 input   60.02 | X-H torsion
[ 8993 8977 8976 8973 ] final -144.46 input   60.01 | X-H torsion

> <Gold.Protein.ActiveResidues>
 TRP311  MET341  HIS342  TRP414  ALA417  ARG419  CYS420  VAL421  GLY422  LEU460 
 SER462  SER482  GLN483  ARG486  ALA502  ASN503  TYR567  GLY568  LEU569  PRO570 
 ALA571  VAL572  SER573  ASN574  MET575  LEU576  PHE589  SER590  GLY591  TRP592 
 TYR593  MET594  GLY595  GLU597  ILE598  ARG601  ARG608  ILE653  VAL654  TRP683 
 PHE709  GLU710  TYR711  GLN712  ASP714  HEM750  H4B760 

> <Gold.Protein.RotatedAtoms>
  128.0040  249.1086  361.7114 H   0  0  0  0  0  0  0  0  0  0  0  0  # atno 5561 bound_to 5545
  116.2138  244.5737  369.2336 H   0  0  0  0  0  0  0  0  0  0  0  0  # atno 8993 bound_to 8977
  122.7205  241.8359  360.6722 H   0  0  0  0  0  0  0  0  0  0  0  0  # atno 9086 bound_to 9067
  120.8949  254.4792  353.7793 H   0  0  0  0  0  0  0  0  0  0  0  0  # atno 12878 bound_to 12857
  127.2633  248.6315  363.0798 LP  0  0  0  0  0  0  0  0  0  0  0  0  # atno 13468 bound_to 5545
  128.7013  249.4020  363.1525 LP  0  0  0  0  0  0  0  0  0  0  0  0  # atno 13469 bound_to 5545
  119.7197  254.0925  354.8367 LP  0  0  0  0  0  0  0  0  0  0  0  0  # atno 13474 bound_to 12857
  121.2462  253.5660  355.0798 LP  0  0  0  0  0  0  0  0  0  0  0  0  # atno 13475 bound_to 12857
  123.4964  240.4111  360.8006 LP  0  0  0  0  0  0  0  0  0  0  0  0  # atno 13500 bound_to 9067
  122.7458  241.0552  362.0999 LP  0  0  0  0  0  0  0  0  0  0  0  0  # atno 13501 bound_to 9067
  115.1562  243.7404  368.3196 LP  0  0  0  0  0  0  0  0  0  0  0  0  # atno 13514 bound_to 8977
  115.0157  245.3610  368.4635 LP  0  0  0  0  0  0  0  0  0  0  0  0  # atno 13515 bound_to 8977

> <Gold.Score>
     Fitness  S(hb_ext) S(vdw_ext)  S(hb_int)    S(int)      intcor
     30.96       6.00      20.45       0.00      -3.15      -0.76

> <Gold.Goldscore.Fitness>
30.9642

> <Gold.Goldscore.Internal.Vdw>
-3.3398

> <Gold.Goldscore.Internal.Torsion>
-0.5774

> <Gold.Goldscore.External.Vdw>
20.4484

> <Gold.Goldscore.Internal.HBond>
0.0000

> <Gold.Goldscore.External.HBond>
6.0000

> <Gold.Goldscore.Internal.Correction>
-0.7650

> <Gold.Goldscore.Hbonds>
donor molecule, donor type, donor heavy atom, donor atom, acceptor molecule, acceptor atom, score
      L1  H    10    23       P1 13407  1.00

> <Gold.Goldscore.Internal.Vdw.Weighted>
-3.3398

> <Gold.Goldscore.Internal.Torsion.Weighted>
-0.5774

> <Gold.Goldscore.External.Vdw.Weighted>
28.1165

> <Gold.Goldscore.Internal.HBond.Weighted>
0.0000

> <Gold.Goldscore.External.HBond.Weighted>
6.0000

> <Gold.Goldscore.Internal.Correction.Weighted>
-0.7650

> <Gold.Rescore>
     Score     S(PLP)   S(hbond)     S(cho)   S(metal)  DE(clash)   DE(tors)     intcor
      5.76      -3.89       1.13       0.00       0.00       1.33       0.09       ----

> <Gold.PLP.Fitness>
5.7594

> <Gold.PLP.PLP>
-3.8876

> <Gold.PLP.part.hbond>
-5.9303

> <Gold.PLP.part.metal>
0.0000

> <Gold.PLP.part.buried>
12.6622

> <Gold.PLP.part.nonpolar>
-18.3000

> <Gold.PLP.part.repulsive>
6.9629

> <Gold.PLP.ligand.clash>
1.3334

> <Gold.PLP.ligand.torsion>
0.0850

> <Gold.PLP.Chemscore.Hbond>
1.1251

> <Gold.PLP.Chemscore.CHOScore>
0.0000

> <Gold.PLP.Chemscore.Metal>
0.0000

> <Gold.Chemscore.Hbonds>
donor molecule, donor type, donor heavy atom, donor atom, acceptor molecule, acceptor atom, score
      L1  H    10    23       P1 13407  1.00
      P1  H  9297  9320       L1    17  0.19

> <Gold.PLP.Chemscore.Internal.Correction>
   9.000000E+99

