#       Name:                CT1002167954
#       Creating user name   hitesit
#       Creation time:       Sun Apr 16 20:22:36 2023


#       File generated by GOLD software.
#

@<TRIPOS>MOLECULE
CT1002167954|ligand_prepared|mol2|1|dock5
    29    30     1
SMALL
NO_CHARGES


@<TRIPOS>ATOM
      1 C1         135.0960 131.4014 130.1026 C.3            1 RES1               0.0000
      2 C2         136.2688 130.5567 130.6410 C.ar           1 RES1               0.0000
      3 C3         134.3298 130.5035 129.1356 C.2            1 RES1               0.0000
      4 C4         134.2885 131.8356 131.3209 C.2            1 RES1               0.0000
      5 C5         135.5390 132.6744 129.3446 C.3            1 RES1               0.0000
      6 C6         136.1627 129.1720 130.7296 C.ar           1 RES1               0.0000
      7 C7         137.4619 131.1468 131.0496 C.ar           1 RES1               0.0000
      8 N8         133.1266 130.0119 129.5484 N.am           1 RES1               0.0000
      9 O9         134.7925 130.1995 128.0431 O.2            1 RES1               0.0000
     10 N10        133.0136 131.3506 131.4523 N.am           1 RES1               0.0000
     11 O11        134.7506 132.5801 132.1767 O.2            1 RES1               0.0000
     12 C12        134.4894 133.7745 129.3276 C.3            1 RES1               0.0000
     13 C13        137.2124 128.4045 131.2065 C.ar           1 RES1               0.0000
     14 C14        138.5103 130.3774 131.5264 C.ar           1 RES1               0.0000
     15 C15        132.4070 130.4342 130.6373 C.2            1 RES1               0.0000
     16 C16        138.3869 129.0065 131.6048 C.ar           1 RES1               0.0000
     17 O17        131.2770 130.0047 130.8515 O.2            1 RES1               0.0000
     18 H18        136.4515 133.0643 129.8124 H              1 RES1               0.0000
     19 H19        135.7824 132.4027 128.3101 H              1 RES1               0.0000
     20 H20        135.2452 128.6807 130.4231 H              1 RES1               0.0000
     21 H21        137.5811 132.2237 130.9978 H              1 RES1               0.0000
     22 H22        132.7246 129.2608 128.9965 H              1 RES1               0.0000
     23 H23        132.4661 131.7058 132.2298 H              1 RES1               0.0000
     24 H24        134.8510 134.6444 128.7834 H              1 RES1               0.0000
     25 H25        133.5766 133.4292 128.8466 H              1 RES1               0.0000
     26 H26        134.2417 134.0869 130.3400 H              1 RES1               0.0000
     27 H27        137.1097 127.3261 131.2675 H              1 RES1               0.0000
     28 H28        139.4326 130.8555 131.8394 H              1 RES1               0.0000
     29 H29        139.2092 128.4050 131.9781 H              1 RES1               0.0000
@<TRIPOS>BOND
    1    1    2 1     
    2    1    3 1     
    3    1    4 1     
    4    1    5 1     
    5    2    6 ar    
    6    2    7 ar    
    7    3    8 1     
    8    3    9 2     
    9    4   10 1     
   10    4   11 2     
   11    5   12 1     
   12    5   18 1     
   13    5   19 1     
   14    6   13 ar    
   15    6   20 1     
   16    7   14 ar    
   17    7   21 1     
   18    8   15 1     
   19    8   22 1     
   20   10   15 1     
   21   10   23 1     
   22   12   24 1     
   23   12   25 1     
   24   12   26 1     
   25   13   16 ar    
   26   13   27 1     
   27   14   16 ar    
   28   14   28 1     
   29   15   17 2     
   30   16   29 1     
@<TRIPOS>SUBSTRUCTURE
      1 RES1           1
@<TRIPOS>SET
DONOR_HYDROGENS      STATIC     ATOMS    <user>   **** ""
2 22 23
ATOM$RED        STATIC     ATOMS    COLORGROUP SYSTEM
2 22 23
@<TRIPOS>COMMENT
> <Gold.Version>
2022.3.0

> <Gold.Id.Protein>
unknown|7rmi_cavity_clean|pdb

> <Gold.Protein.RotatedTorsions>
[ 10320 10303 10304 10305 ] final  -45.28 input  114.60 | X-H torsion
[ 10439 10432 10433 10434 ] final -100.70 input  118.28 | X-H torsion
[ 10523 10518 10517 10514 ] final  -80.93 input   59.99 | X-H torsion
[ 12976 12967 12966 12964 ] final  -49.84 input   60.00 | X-H torsion
[ 11928 11921 11919 11916 ] final   -2.12 input   60.00 | X-H torsion
[ 11130 11118 11119 11120 ] final  125.83 input  109.13 | X-H torsion
[ 11138 11129 11128 11126 ] final -150.56 input   60.00 | X-H torsion

> <Gold.Protein.ActiveResidues>
 ASN392  LEU393  ILE32   VAL41   SER46   TYR92   HIS95   TRP98   ALA133  ILE135 
 HIS136  LEU138  ARG141  THR145  TYR216  VAL219  LEU223  GLN239  VAL252  VAL254 
 CYS255  PHE257  ALA258  TRP261  LEU262  ILE266  MET299  PRO302  ILE303  CYS306 
 CYS307 

> <Gold.Protein.RotatedAtoms>
  110.8798  135.3185   99.1591 H   0  0  0  0  0  0  0  0  0  0  0  0  # atno 10320 bound_to 10303
  112.9671  136.7257  112.3672 H   0  0  0  0  0  0  0  0  0  0  0  0  # atno 10439 bound_to 10432
  122.2539  137.4607  117.6842 H   0  0  0  0  0  0  0  0  0  0  0  0  # atno 10523 bound_to 10518
  120.9828  144.4273  102.6381 H   0  0  0  0  0  0  0  0  0  0  0  0  # atno 11130 bound_to 11118
  126.5319  144.8470   96.0949 H   0  0  0  0  0  0  0  0  0  0  0  0  # atno 11138 bound_to 11129
  144.9308  144.6274  135.3264 H   0  0  0  0  0  0  0  0  0  0  0  0  # atno 11928 bound_to 11921
  134.5213  125.7281  125.1835 H   0  0  0  0  0  0  0  0  0  0  0  0  # atno 12976 bound_to 12967
  122.7254  136.2359  116.7223 LP  0  0  0  0  0  0  0  0  0  0  0  0  # atno 14321 bound_to 10518
  122.4359  135.9686  118.3071 LP  0  0  0  0  0  0  0  0  0  0  0  0  # atno 14322 bound_to 10518
  134.0093  126.0619  123.6756 LP  0  0  0  0  0  0  0  0  0  0  0  0  # atno 14343 bound_to 12967
  135.4922  126.5419  124.1626 LP  0  0  0  0  0  0  0  0  0  0  0  0  # atno 14344 bound_to 12967
  146.3901  145.3339  135.1872 LP  0  0  0  0  0  0  0  0  0  0  0  0  # atno 14347 bound_to 11921
  146.1990  144.0322  136.1544 LP  0  0  0  0  0  0  0  0  0  0  0  0  # atno 14348 bound_to 11921
  126.6561  146.4156   96.5099 LP  0  0  0  0  0  0  0  0  0  0  0  0  # atno 14359 bound_to 11129
  125.4570  145.9234   95.5167 LP  0  0  0  0  0  0  0  0  0  0  0  0  # atno 14360 bound_to 11129

> <Gold.Score>
     Fitness  S(hb_ext) S(vdw_ext)  S(hb_int)    S(int)      intcor
     10.43       1.62       8.89       0.00      -3.41      -0.76

> <Gold.Goldscore.Fitness>
10.4274

> <Gold.Goldscore.Internal.Vdw>
-3.6648

> <Gold.Goldscore.Internal.Torsion>
-0.5074

> <Gold.Goldscore.External.Vdw>
8.8858

> <Gold.Goldscore.Internal.HBond>
0.0000

> <Gold.Goldscore.External.HBond>
1.6166

> <Gold.Goldscore.Internal.Correction>
-0.7650

> <Gold.Goldscore.Hbonds>
donor molecule, donor type, donor heavy atom, donor atom, acceptor molecule, acceptor atom, score
      P1  H 11861 11874       L1    11  0.08
      P1  H  3275  3282       L1    17  0.56

> <Gold.Goldscore.Internal.Vdw.Weighted>
-3.6648

> <Gold.Goldscore.Internal.Torsion.Weighted>
-0.5074

> <Gold.Goldscore.External.Vdw.Weighted>
12.2180

> <Gold.Goldscore.Internal.HBond.Weighted>
0.0000

> <Gold.Goldscore.External.HBond.Weighted>
1.6166

> <Gold.Goldscore.Internal.Correction.Weighted>
-0.7650

> <Gold.Rescore>
     Score     S(PLP)   S(hbond)     S(cho)   S(metal)  DE(clash)   DE(tors)     intcor
    -40.49      40.48       1.00       0.00       0.00       0.00       1.50       ----

> <Gold.PLP.Fitness>
-40.4860

> <Gold.PLP.PLP>
40.4782

> <Gold.PLP.part.hbond>
-2.7149

> <Gold.PLP.part.metal>
0.0000

> <Gold.PLP.part.buried>
32.8676

> <Gold.PLP.part.nonpolar>
-7.9037

> <Gold.PLP.part.repulsive>
18.0206

> <Gold.PLP.ligand.clash>
0.0000

> <Gold.PLP.ligand.torsion>
1.5039

> <Gold.PLP.Chemscore.Hbond>
1.0000

> <Gold.PLP.Chemscore.CHOScore>
0.0000

> <Gold.PLP.Chemscore.Metal>
0.0000

> <Gold.Chemscore.Hbonds>
donor molecule, donor type, donor heavy atom, donor atom, acceptor molecule, acceptor atom, score
      P1  H  3275  3282       L1    17  1.00

> <Gold.PLP.Chemscore.Internal.Correction>
   9.000000E+99

