#       Name:                CT1002167954
#       Creating user name   hitesit
#       Creation time:       Sun Apr 16 20:22:45 2023


#       File generated by GOLD software.
#

@<TRIPOS>MOLECULE
CT1002167954|ligand_prepared|mol2|1|dock10
    29    30     1
SMALL
NO_CHARGES


@<TRIPOS>ATOM
      1 C1         121.6666 120.1065 122.5479 C.3            1 RES1               0.0000
      2 C2         120.3205 119.8872 121.8277 C.ar           1 RES1               0.0000
      3 C3         122.7256 120.2109 121.4543 C.2            1 RES1               0.0000
      4 C4         121.5040 121.3741 123.3795 C.2            1 RES1               0.0000
      5 C5         122.0589 118.9554 123.5032 C.3            1 RES1               0.0000
      6 C6         119.2359 120.7209 122.0835 C.ar           1 RES1               0.0000
      7 C7         120.1492 118.8591 120.9046 C.ar           1 RES1               0.0000
      8 N8         123.2409 121.4455 121.1896 N.am           1 RES1               0.0000
      9 O9         123.0745 119.2313 120.8070 O.2            1 RES1               0.0000
     10 N10        122.2610 122.4652 123.0415 N.am           1 RES1               0.0000
     11 O11        120.7151 121.4430 124.3139 O.2            1 RES1               0.0000
     12 C12        122.0819 117.5880 122.8387 C.3            1 RES1               0.0000
     13 C13        118.0248 120.5353 121.4378 C.ar           1 RES1               0.0000
     14 C14        118.9370 118.6751 120.2601 C.ar           1 RES1               0.0000
     15 C15        123.0996 122.5680 121.9652 C.2            1 RES1               0.0000
     16 C16        117.8746 119.5128 120.5254 C.ar           1 RES1               0.0000
     17 O17        123.7050 123.6014 121.6953 O.2            1 RES1               0.0000
     18 H18        123.0532 119.1636 123.9173 H              1 RES1               0.0000
     19 H19        121.3468 118.9306 124.3373 H              1 RES1               0.0000
     20 H20        119.3346 121.5294 122.8002 H              1 RES1               0.0000
     21 H21        120.9709 118.1872 120.6809 H              1 RES1               0.0000
     22 H22        123.7813 121.5432 120.3359 H              1 RES1               0.0000
     23 H23        122.1931 123.2759 123.6486 H              1 RES1               0.0000
     24 H24        122.3629 116.8167 123.5528 H              1 RES1               0.0000
     25 H25        121.1021 117.3375 122.4375 H              1 RES1               0.0000
     26 H26        122.7983 117.5691 122.0200 H              1 RES1               0.0000
     27 H27        117.1913 121.1964 121.6512 H              1 RES1               0.0000
     28 H28        118.8232 117.8687 119.5432 H              1 RES1               0.0000
     29 H29        116.9258 119.3678 120.0194 H              1 RES1               0.0000
@<TRIPOS>BOND
    1    1    2 1     
    2    1    3 1     
    3    1    4 1     
    4    1    5 1     
    5    2    6 ar    
    6    2    7 ar    
    7    3    8 1     
    8    3    9 2     
    9    4   10 1     
   10    4   11 2     
   11    5   12 1     
   12    5   18 1     
   13    5   19 1     
   14    6   13 ar    
   15    6   20 1     
   16    7   14 ar    
   17    7   21 1     
   18    8   15 1     
   19    8   22 1     
   20   10   15 1     
   21   10   23 1     
   22   12   24 1     
   23   12   25 1     
   24   12   26 1     
   25   13   16 ar    
   26   13   27 1     
   27   14   16 ar    
   28   14   28 1     
   29   15   17 2     
   30   16   29 1     
@<TRIPOS>SUBSTRUCTURE
      1 RES1           1
@<TRIPOS>SET
DONOR_HYDROGENS      STATIC     ATOMS    <user>   **** ""
2 22 23
ATOM$RED        STATIC     ATOMS    COLORGROUP SYSTEM
2 22 23
@<TRIPOS>COMMENT
> <Gold.Version>
2022.3.0

> <Gold.Id.Protein>
unknown|7rmi_cavity_clean|pdb

> <Gold.Protein.RotatedTorsions>
[ 10320 10303 10304 10305 ] final   93.18 input  114.60 | X-H torsion
[ 10439 10432 10433 10434 ] final   79.38 input  118.28 | X-H torsion
[ 10523 10518 10517 10514 ] final -158.15 input   59.99 | X-H torsion
[ 12976 12967 12966 12964 ] final  -90.98 input   60.00 | X-H torsion
[ 11928 11921 11919 11916 ] final   97.25 input   60.00 | X-H torsion
[ 11130 11118 11119 11120 ] final   71.45 input  109.13 | X-H torsion
[ 11138 11129 11128 11126 ] final  123.17 input   60.00 | X-H torsion

> <Gold.Protein.ActiveResidues>
 ASN392  LEU393  ILE32   VAL41   SER46   TYR92   HIS95   TRP98   ALA133  ILE135 
 HIS136  LEU138  ARG141  THR145  TYR216  VAL219  LEU223  GLN239  VAL252  VAL254 
 CYS255  PHE257  ALA258  TRP261  LEU262  ILE266  MET299  PRO302  ILE303  CYS306 
 CYS307 

> <Gold.Protein.RotatedAtoms>
  110.1656  136.4132   98.1438 H   0  0  0  0  0  0  0  0  0  0  0  0  # atno 10320 bound_to 10303
  113.6167  135.4612  111.3137 H   0  0  0  0  0  0  0  0  0  0  0  0  # atno 10439 bound_to 10432
  122.5839  136.9064  116.7104 H   0  0  0  0  0  0  0  0  0  0  0  0  # atno 10523 bound_to 10518
  120.7415  143.7064  102.3792 H   0  0  0  0  0  0  0  0  0  0  0  0  # atno 11130 bound_to 11118
  126.9217  145.9507   96.6131 H   0  0  0  0  0  0  0  0  0  0  0  0  # atno 11138 bound_to 11129
  145.8777  143.9332  136.1387 H   0  0  0  0  0  0  0  0  0  0  0  0  # atno 11928 bound_to 11921
  133.9999  125.6410  124.7921 H   0  0  0  0  0  0  0  0  0  0  0  0  # atno 12976 bound_to 12967
  122.6302  135.6423  117.7338 LP  0  0  0  0  0  0  0  0  0  0  0  0  # atno 14321 bound_to 10518
  122.1987  137.1208  118.2766 LP  0  0  0  0  0  0  0  0  0  0  0  0  # atno 14322 bound_to 10518
  134.5429  126.3832  123.4499 LP  0  0  0  0  0  0  0  0  0  0  0  0  # atno 14343 bound_to 12967
  135.4837  126.3084  124.7825 LP  0  0  0  0  0  0  0  0  0  0  0  0  # atno 14344 bound_to 12967
  145.0214  144.8955  135.1442 LP  0  0  0  0  0  0  0  0  0  0  0  0  # atno 14347 bound_to 11921
  146.6139  145.1698  135.3792 LP  0  0  0  0  0  0  0  0  0  0  0  0  # atno 14348 bound_to 11921
  125.6236  146.3949   95.7381 LP  0  0  0  0  0  0  0  0  0  0  0  0  # atno 14359 bound_to 11129
  126.0968  144.8323   95.7664 LP  0  0  0  0  0  0  0  0  0  0  0  0  # atno 14360 bound_to 11129

> <Gold.Score>
     Fitness  S(hb_ext) S(vdw_ext)  S(hb_int)    S(int)      intcor
      8.74       0.00      18.86       0.00     -17.19      -0.76

> <Gold.Goldscore.Fitness>
8.7429

> <Gold.Goldscore.Internal.Vdw>
-17.3118

> <Gold.Goldscore.Internal.Torsion>
-0.6356

> <Gold.Goldscore.External.Vdw>
18.8595

> <Gold.Goldscore.Internal.HBond>
0.0000

> <Gold.Goldscore.External.HBond>
0.0000

> <Gold.Goldscore.Internal.Correction>
-0.7585

> <Gold.Goldscore.Internal.Vdw.Weighted>
-17.3118

> <Gold.Goldscore.Internal.Torsion.Weighted>
-0.6356

> <Gold.Goldscore.External.Vdw.Weighted>
25.9319

> <Gold.Goldscore.Internal.HBond.Weighted>
0.0000

> <Gold.Goldscore.External.HBond.Weighted>
0.0000

> <Gold.Goldscore.Internal.Correction.Weighted>
-0.7585

> <Gold.Rescore>
     Score     S(PLP)   S(hbond)     S(cho)   S(metal)  DE(clash)   DE(tors)     intcor
      9.26     -11.56       0.00       0.00       0.00       2.06       0.12       ----

> <Gold.PLP.Fitness>
9.2601

> <Gold.PLP.PLP>
-11.5591

> <Gold.PLP.part.hbond>
0.0000

> <Gold.PLP.part.metal>
0.0000

> <Gold.PLP.part.buried>
-2.9433

> <Gold.PLP.part.nonpolar>
-8.9002

> <Gold.PLP.part.repulsive>
0.0281

> <Gold.PLP.ligand.clash>
2.0642

> <Gold.PLP.ligand.torsion>
0.1174

> <Gold.PLP.Chemscore.Hbond>
0.0000

> <Gold.PLP.Chemscore.CHOScore>
0.0000

> <Gold.PLP.Chemscore.Metal>
0.0000

> <Gold.PLP.Chemscore.Internal.Correction>
   9.000000E+99

