#       Name:                CT1002167954
#       Creating user name   hitesit
#       Creation time:       Sun Apr 16 20:22:39 2023


#       File generated by GOLD software.
#

@<TRIPOS>MOLECULE
CT1002167954|ligand_prepared|mol2|1|dock7
    29    30     1
SMALL
NO_CHARGES


@<TRIPOS>ATOM
      1 C1         142.1890 129.3317 140.5897 C.3            1 RES1               0.0000
      2 C2         141.4154 128.5749 141.6887 C.ar           1 RES1               0.0000
      3 C3         143.3225 128.4092 140.1511 C.2            1 RES1               0.0000
      4 C4         141.1774 129.6399 139.4913 C.2            1 RES1               0.0000
      5 C5         142.8008 130.6700 141.0650 C.3            1 RES1               0.0000
      6 C6         140.0734 128.2503 141.5150 C.ar           1 RES1               0.0000
      7 C7         142.0300 128.1931 142.8783 C.ar           1 RES1               0.0000
      8 N8         143.2037 127.7940 138.9398 N.am           1 RES1               0.0000
      9 O9         144.2874 128.1940 140.8743 O.2            1 RES1               0.0000
     10 N10        141.3487 129.0365 138.2730 N.am           1 RES1               0.0000
     11 O11        140.2242 130.3869 139.6750 O.2            1 RES1               0.0000
     12 C12        141.8785 131.4820 141.9608 C.3            1 RES1               0.0000
     13 C13        139.3718 127.5661 142.4938 C.ar           1 RES1               0.0000
     14 C14        141.3264 127.5092 143.8560 C.ar           1 RES1               0.0000
     15 C15        142.2985 128.1037 137.9568 C.2            1 RES1               0.0000
     16 C16        139.9978 127.1948 143.6646 C.ar           1 RES1               0.0000
     17 O17        142.3551 127.5652 136.8550 O.2            1 RES1               0.0000
     18 H18        143.7286 130.4599 141.6113 H              1 RES1               0.0000
     19 H19        143.0588 131.2725 140.1853 H              1 RES1               0.0000
     20 H20        139.5633 128.5364 140.6013 H              1 RES1               0.0000
     21 H21        143.0742 128.4308 143.0511 H              1 RES1               0.0000
     22 H22        143.8474 127.0332 138.7470 H              1 RES1               0.0000
     23 H23        140.7089 129.3080 137.5331 H              1 RES1               0.0000
     24 H24        142.3563 132.4107 142.2656 H              1 RES1               0.0000
     25 H25        140.9559 131.7304 141.4405 H              1 RES1               0.0000
     26 H26        141.6216 130.9226 142.8580 H              1 RES1               0.0000
     27 H27        138.3259 127.3223 142.3389 H              1 RES1               0.0000
     28 H28        141.8230 127.2195 144.7761 H              1 RES1               0.0000
     29 H29        139.4481 126.6585 144.4311 H              1 RES1               0.0000
@<TRIPOS>BOND
    1    1    2 1     
    2    1    3 1     
    3    1    4 1     
    4    1    5 1     
    5    2    6 ar    
    6    2    7 ar    
    7    3    8 1     
    8    3    9 2     
    9    4   10 1     
   10    4   11 2     
   11    5   12 1     
   12    5   18 1     
   13    5   19 1     
   14    6   13 ar    
   15    6   20 1     
   16    7   14 ar    
   17    7   21 1     
   18    8   15 1     
   19    8   22 1     
   20   10   15 1     
   21   10   23 1     
   22   12   24 1     
   23   12   25 1     
   24   12   26 1     
   25   13   16 ar    
   26   13   27 1     
   27   14   16 ar    
   28   14   28 1     
   29   15   17 2     
   30   16   29 1     
@<TRIPOS>SUBSTRUCTURE
      1 RES1           1
@<TRIPOS>SET
DONOR_HYDROGENS      STATIC     ATOMS    <user>   **** ""
2 22 23
ATOM$RED        STATIC     ATOMS    COLORGROUP SYSTEM
2 22 23
@<TRIPOS>COMMENT
> <Gold.Version>
2022.3.0

> <Gold.Id.Protein>
unknown|7rmi_cavity_clean|pdb

> <Gold.Protein.RotatedTorsions>
[ 10320 10303 10304 10305 ] final  -27.20 input  114.60 | X-H torsion
[ 10439 10432 10433 10434 ] final -121.63 input  118.28 | X-H torsion
[ 10523 10518 10517 10514 ] final  -64.94 input   59.99 | X-H torsion
[ 12976 12967 12966 12964 ] final   35.37 input   60.00 | X-H torsion
[ 11928 11921 11919 11916 ] final -138.35 input   60.00 | X-H torsion
[ 11130 11118 11119 11120 ] final  134.61 input  109.13 | X-H torsion
[ 11138 11129 11128 11126 ] final   26.90 input   60.00 | X-H torsion

> <Gold.Protein.ActiveResidues>
 ASN392  LEU393  ILE32   VAL41   SER46   TYR92   HIS95   TRP98   ALA133  ILE135 
 HIS136  LEU138  ARG141  THR145  TYR216  VAL219  LEU223  GLN239  VAL252  VAL254 
 CYS255  PHE257  ALA258  TRP261  LEU262  ILE266  MET299  PRO302  ILE303  CYS306 
 CYS307 

> <Gold.Protein.RotatedAtoms>
  110.6145  135.3915   99.1990 H   0  0  0  0  0  0  0  0  0  0  0  0  # atno 10320 bound_to 10303
  112.6947  136.5901  112.2636 H   0  0  0  0  0  0  0  0  0  0  0  0  # atno 10439 bound_to 10432
  122.2166  137.3835  117.9300 H   0  0  0  0  0  0  0  0  0  0  0  0  # atno 10523 bound_to 10518
  120.9601  144.5596  102.6461 H   0  0  0  0  0  0  0  0  0  0  0  0  # atno 11130 bound_to 11118
  125.8683  146.5923   95.9629 H   0  0  0  0  0  0  0  0  0  0  0  0  # atno 11138 bound_to 11129
  146.5690  145.2061  135.3355 H   0  0  0  0  0  0  0  0  0  0  0  0  # atno 11928 bound_to 11921
  135.5087  126.3507  124.6904 H   0  0  0  0  0  0  0  0  0  0  0  0  # atno 12976 bound_to 12967
  122.6867  136.4868  116.6563 LP  0  0  0  0  0  0  0  0  0  0  0  0  # atno 14321 bound_to 10518
  122.5122  135.7955  118.1254 LP  0  0  0  0  0  0  0  0  0  0  0  0  # atno 14322 bound_to 10518
  134.0583  125.6379  124.8786 LP  0  0  0  0  0  0  0  0  0  0  0  0  # atno 14343 bound_to 12967
  134.4485  126.3388  123.4563 LP  0  0  0  0  0  0  0  0  0  0  0  0  # atno 14344 bound_to 12967
  145.9479  143.9435  136.1530 LP  0  0  0  0  0  0  0  0  0  0  0  0  # atno 14347 bound_to 11921
  144.9912  144.8397  135.1794 LP  0  0  0  0  0  0  0  0  0  0  0  0  # atno 14348 bound_to 11921
  125.8040  145.0106   95.5857 LP  0  0  0  0  0  0  0  0  0  0  0  0  # atno 14359 bound_to 11129
  126.9775  145.5703   96.5738 LP  0  0  0  0  0  0  0  0  0  0  0  0  # atno 14360 bound_to 11129

> <Gold.Score>
     Fitness  S(hb_ext) S(vdw_ext)  S(hb_int)    S(int)      intcor
      3.73       0.45       8.53       0.00      -8.44      -0.76

> <Gold.Goldscore.Fitness>
3.7323

> <Gold.Goldscore.Internal.Vdw>
-7.3873

> <Gold.Goldscore.Internal.Torsion>
-1.8226

> <Gold.Goldscore.External.Vdw>
8.5294

> <Gold.Goldscore.Internal.HBond>
0.0000

> <Gold.Goldscore.External.HBond>
0.4493

> <Gold.Goldscore.Internal.Correction>
-0.7650

> <Gold.Goldscore.Hbonds>
donor molecule, donor type, donor heavy atom, donor atom, acceptor molecule, acceptor atom, score
      P1  H 11851 11862       L1    11  0.22

> <Gold.Goldscore.Internal.Vdw.Weighted>
-7.3873

> <Gold.Goldscore.Internal.Torsion.Weighted>
-1.8226

> <Gold.Goldscore.External.Vdw.Weighted>
11.7279

> <Gold.Goldscore.Internal.HBond.Weighted>
0.0000

> <Gold.Goldscore.External.HBond.Weighted>
0.4493

> <Gold.Goldscore.Internal.Correction.Weighted>
-0.7650

> <Gold.Rescore>
     Score     S(PLP)   S(hbond)     S(cho)   S(metal)  DE(clash)   DE(tors)     intcor
     30.12     -32.72       0.00       0.00       0.00       2.10       0.25       ----

> <Gold.PLP.Fitness>
30.1230

> <Gold.PLP.PLP>
-32.7160

> <Gold.PLP.part.hbond>
-2.4376

> <Gold.PLP.part.metal>
0.0000

> <Gold.PLP.part.buried>
-3.8204

> <Gold.PLP.part.nonpolar>
-26.5626

> <Gold.PLP.part.repulsive>
0.9389

> <Gold.PLP.ligand.clash>
2.0965

> <Gold.PLP.ligand.torsion>
0.2483

> <Gold.PLP.Chemscore.Hbond>
0.0000

> <Gold.PLP.Chemscore.CHOScore>
0.0000

> <Gold.PLP.Chemscore.Metal>
0.0000

> <Gold.PLP.Chemscore.Internal.Correction>
   9.000000E+99

