#       Name:                CT1002167954
#       Creating user name   hitesit
#       Creation time:       Sun Apr 16 20:22:29 2023


#       File generated by GOLD software.
#

@<TRIPOS>MOLECULE
CT1002167954|ligand_prepared|mol2|1|dock1
    29    30     1
SMALL
NO_CHARGES


@<TRIPOS>ATOM
      1 C1         137.7109 131.2310 130.4653 C.3            1 RES1               0.0000
      2 C2         136.5327 132.1432 130.0672 C.ar           1 RES1               0.0000
      3 C3         138.6158 131.1406 129.2400 C.2            1 RES1               0.0000
      4 C4         138.3669 131.8854 131.6761 C.2            1 RES1               0.0000
      5 C5         137.2849 129.8000 130.8679 C.3            1 RES1               0.0000
      6 C6         136.2910 133.3290 130.7544 C.ar           1 RES1               0.0000
      7 C7         135.6821 131.8142 129.0152 C.ar           1 RES1               0.0000
      8 N8         139.7935 131.8275 129.2721 N.am           1 RES1               0.0000
      9 O9         138.2830 130.5083 128.2451 O.2            1 RES1               0.0000
     10 N10        139.6442 132.3613 131.5355 N.am           1 RES1               0.0000
     11 O11        137.7832 132.0081 132.7459 O.2            1 RES1               0.0000
     12 C12        135.8915 129.4186 130.3931 C.3            1 RES1               0.0000
     13 C13        135.2388 134.1574 130.4009 C.ar           1 RES1               0.0000
     14 C14        134.6303 132.6440 128.6634 C.ar           1 RES1               0.0000
     15 C15        140.3760 132.3896 130.3796 C.2            1 RES1               0.0000
     16 C16        134.4081 133.8158 129.3550 C.ar           1 RES1               0.0000
     17 O17        141.4981 132.8840 130.3196 O.2            1 RES1               0.0000
     18 H18        138.0071 129.0864 130.4524 H              1 RES1               0.0000
     19 H19        137.3208 129.7152 131.9611 H              1 RES1               0.0000
     20 H20        136.9327 133.6131 131.5818 H              1 RES1               0.0000
     21 H21        135.8372 130.8968 128.4576 H              1 RES1               0.0000
     22 H22        140.2867 131.9332 128.3913 H              1 RES1               0.0000
     23 H23        140.0910 132.7284 132.3697 H              1 RES1               0.0000
     24 H24        135.6425 128.4056 130.7021 H              1 RES1               0.0000
     25 H25        135.1448 130.0926 130.8078 H              1 RES1               0.0000
     26 H26        135.8270 129.4675 129.3081 H              1 RES1               0.0000
     27 H27        135.0674 135.0778 130.9492 H              1 RES1               0.0000
     28 H28        133.9786 132.3708 127.8400 H              1 RES1               0.0000
     29 H29        133.5842 134.4651 129.0780 H              1 RES1               0.0000
@<TRIPOS>BOND
    1    1    2 1     
    2    1    3 1     
    3    1    4 1     
    4    1    5 1     
    5    2    6 ar    
    6    2    7 ar    
    7    3    8 1     
    8    3    9 2     
    9    4   10 1     
   10    4   11 2     
   11    5   12 1     
   12    5   18 1     
   13    5   19 1     
   14    6   13 ar    
   15    6   20 1     
   16    7   14 ar    
   17    7   21 1     
   18    8   15 1     
   19    8   22 1     
   20   10   15 1     
   21   10   23 1     
   22   12   24 1     
   23   12   25 1     
   24   12   26 1     
   25   13   16 ar    
   26   13   27 1     
   27   14   16 ar    
   28   14   28 1     
   29   15   17 2     
   30   16   29 1     
@<TRIPOS>SUBSTRUCTURE
      1 RES1           1
@<TRIPOS>SET
DONOR_HYDROGENS      STATIC     ATOMS    <user>   **** ""
2 22 23
ATOM$RED        STATIC     ATOMS    COLORGROUP SYSTEM
2 22 23
@<TRIPOS>COMMENT
> <Gold.Version>
2022.3.0

> <Gold.Id.Protein>
unknown|7rmi_cavity_clean|pdb

> <Gold.Protein.RotatedTorsions>
[ 10320 10303 10304 10305 ] final   38.67 input  114.60 | X-H torsion
[ 10439 10432 10433 10434 ] final   26.87 input  118.28 | X-H torsion
[ 10523 10518 10517 10514 ] final   43.12 input   59.99 | X-H torsion
[ 12976 12967 12966 12964 ] final   19.21 input   60.00 | X-H torsion
[ 11928 11921 11919 11916 ] final -143.91 input   60.00 | X-H torsion
[ 11130 11118 11119 11120 ] final   27.57 input  109.13 | X-H torsion
[ 11138 11129 11128 11126 ] final -135.47 input   60.00 | X-H torsion

> <Gold.Protein.ActiveResidues>
 ASN392  LEU393  ILE32   VAL41   SER46   TYR92   HIS95   TRP98   ALA133  ILE135 
 HIS136  LEU138  ARG141  THR145  TYR216  VAL219  LEU223  GLN239  VAL252  VAL254 
 CYS255  PHE257  ALA258  TRP261  LEU262  ILE266  MET299  PRO302  ILE303  CYS306 
 CYS307 

> <Gold.Protein.RotatedAtoms>
  109.9635  135.9731   98.7938 H   0  0  0  0  0  0  0  0  0  0  0  0  # atno 10320 bound_to 10303
  114.1427  135.9165  111.6723 H   0  0  0  0  0  0  0  0  0  0  0  0  # atno 10439 bound_to 10432
  122.4534  135.9242  118.2605 H   0  0  0  0  0  0  0  0  0  0  0  0  # atno 10523 bound_to 10518
  120.2100  143.5285  102.0372 H   0  0  0  0  0  0  0  0  0  0  0  0  # atno 11130 bound_to 11118
  126.3419  144.8039   95.9447 H   0  0  0  0  0  0  0  0  0  0  0  0  # atno 11138 bound_to 11129
  146.6186  145.1538  135.3906 H   0  0  0  0  0  0  0  0  0  0  0  0  # atno 11928 bound_to 11921
  135.4135  126.2293  124.9034 H   0  0  0  0  0  0  0  0  0  0  0  0  # atno 12976 bound_to 12967
  122.2430  137.4546  117.7497 LP  0  0  0  0  0  0  0  0  0  0  0  0  # atno 14321 bound_to 10518
  122.7173  136.2980  116.6991 LP  0  0  0  0  0  0  0  0  0  0  0  0  # atno 14322 bound_to 10518
  133.9114  125.6540  124.6587 LP  0  0  0  0  0  0  0  0  0  0  0  0  # atno 14343 bound_to 12967
  134.6912  126.4449  123.4616 LP  0  0  0  0  0  0  0  0  0  0  0  0  # atno 14344 bound_to 12967
  145.8590  143.9261  136.1415 LP  0  0  0  0  0  0  0  0  0  0  0  0  # atno 14347 bound_to 11921
  145.0301  144.9098  135.1355 LP  0  0  0  0  0  0  0  0  0  0  0  0  # atno 14348 bound_to 11921
  126.8030  146.2291   96.5805 LP  0  0  0  0  0  0  0  0  0  0  0  0  # atno 14359 bound_to 11129
  125.5014  146.1533   95.5973 LP  0  0  0  0  0  0  0  0  0  0  0  0  # atno 14360 bound_to 11129

> <Gold.Score>
     Fitness  S(hb_ext) S(vdw_ext)  S(hb_int)    S(int)      intcor
      0.00       0.26      10.41       0.00     -34.19      -0.78

> <Gold.Goldscore.Fitness>
0.0000

> <Gold.Goldscore.Internal.Vdw>
-32.8100

> <Gold.Goldscore.Internal.Torsion>
-2.1594

> <Gold.Goldscore.External.Vdw>
10.4122

> <Gold.Goldscore.Internal.HBond>
0.0000

> <Gold.Goldscore.External.HBond>
0.2619

> <Gold.Goldscore.Internal.Correction>
-0.7752

> <Gold.Goldscore.Internal.Vdw.Weighted>
-32.8100

> <Gold.Goldscore.Internal.Torsion.Weighted>
-2.1594

> <Gold.Goldscore.External.Vdw.Weighted>
14.3168

> <Gold.Goldscore.Internal.HBond.Weighted>
0.0000

> <Gold.Goldscore.External.HBond.Weighted>
0.2619

> <Gold.Goldscore.Internal.Correction.Weighted>
-0.7752

> <Gold.Rescore>
     Score     S(PLP)   S(hbond)     S(cho)   S(metal)  DE(clash)   DE(tors)     intcor
   -111.19     100.13       0.06       0.00       0.00       9.44       0.90       ----

> <Gold.PLP.Fitness>
-111.1941

> <Gold.PLP.PLP>
100.1323

> <Gold.PLP.part.hbond>
-5.0960

> <Gold.PLP.part.metal>
0.0000

> <Gold.PLP.part.buried>
78.9429

> <Gold.PLP.part.nonpolar>
8.5411

> <Gold.PLP.part.repulsive>
16.2424

> <Gold.PLP.ligand.clash>
9.4382

> <Gold.PLP.ligand.torsion>
0.8966

> <Gold.PLP.Chemscore.Hbond>
0.0566

> <Gold.PLP.Chemscore.CHOScore>
0.0000

> <Gold.PLP.Chemscore.Metal>
0.0000

> <Gold.Chemscore.Hbonds>
donor molecule, donor type, donor heavy atom, donor atom, acceptor molecule, acceptor atom, score
      P1  H 11861 11874       L1    11  0.06

> <Gold.PLP.Chemscore.Internal.Correction>
   9.000000E+99

