#       Name:                CT1002167954
#       Creating user name   hitesit
#       Creation time:       Sun Apr 16 20:22:34 2023


#       File generated by GOLD software.
#

@<TRIPOS>MOLECULE
CT1002167954|ligand_prepared|mol2|1|dock4
    29    30     1
SMALL
NO_CHARGES


@<TRIPOS>ATOM
      1 C1         141.2493 130.0425 142.0269 C.3            1 RES1               0.0000
      2 C2         139.7243 130.0614 142.2563 C.ar           1 RES1               0.0000
      3 C3         141.6478 128.5738 141.9160 C.2            1 RES1               0.0000
      4 C4         141.5002 130.8526 140.7598 C.2            1 RES1               0.0000
      5 C5         142.0618 130.6866 143.1744 C.3            1 RES1               0.0000
      6 C6         139.1479 129.2793 143.2527 C.ar           1 RES1               0.0000
      7 C7         138.8828 130.8564 141.4828 C.ar           1 RES1               0.0000
      8 N8         141.9630 128.0964 140.6780 N.am           1 RES1               0.0000
      9 O9         141.6471 127.8359 142.8937 O.2            1 RES1               0.0000
     10 N10        141.9926 130.1940 139.6637 N.am           1 RES1               0.0000
     11 O11        141.2602 132.0520 140.6956 O.2            1 RES1               0.0000
     12 C12        141.2056 131.1804 144.3299 C.3            1 RES1               0.0000
     13 C13        137.7800 129.2936 143.4699 C.ar           1 RES1               0.0000
     14 C14        137.5151 130.8691 141.7015 C.ar           1 RES1               0.0000
     15 C15        142.2064 128.8468 139.5558 C.2            1 RES1               0.0000
     16 C16        136.9629 130.0887 142.6949 C.ar           1 RES1               0.0000
     17 O17        142.5993 128.3209 138.5185 O.2            1 RES1               0.0000
     18 H18        142.7790 129.9495 143.5561 H              1 RES1               0.0000
     19 H19        142.6326 131.5323 142.7714 H              1 RES1               0.0000
     20 H20        139.7747 128.6454 143.8709 H              1 RES1               0.0000
     21 H21        139.2950 131.4777 140.6949 H              1 RES1               0.0000
     22 H22        142.0232 127.0882 140.5773 H              1 RES1               0.0000
     23 H23        142.2210 130.7605 138.8530 H              1 RES1               0.0000
     24 H24        141.8248 131.6230 145.1072 H              1 RES1               0.0000
     25 H25        140.4974 131.9336 143.9908 H              1 RES1               0.0000
     26 H26        140.6428 130.3602 144.7709 H              1 RES1               0.0000
     27 H27        137.3502 128.6766 144.2521 H              1 RES1               0.0000
     28 H28        136.8757 131.4959 141.0888 H              1 RES1               0.0000
     29 H29        135.8914 130.1000 142.8655 H              1 RES1               0.0000
@<TRIPOS>BOND
    1    1    2 1     
    2    1    3 1     
    3    1    4 1     
    4    1    5 1     
    5    2    6 ar    
    6    2    7 ar    
    7    3    8 1     
    8    3    9 2     
    9    4   10 1     
   10    4   11 2     
   11    5   12 1     
   12    5   18 1     
   13    5   19 1     
   14    6   13 ar    
   15    6   20 1     
   16    7   14 ar    
   17    7   21 1     
   18    8   15 1     
   19    8   22 1     
   20   10   15 1     
   21   10   23 1     
   22   12   24 1     
   23   12   25 1     
   24   12   26 1     
   25   13   16 ar    
   26   13   27 1     
   27   14   16 ar    
   28   14   28 1     
   29   15   17 2     
   30   16   29 1     
@<TRIPOS>SUBSTRUCTURE
      1 RES1           1
@<TRIPOS>SET
DONOR_HYDROGENS      STATIC     ATOMS    <user>   **** ""
2 22 23
ATOM$RED        STATIC     ATOMS    COLORGROUP SYSTEM
2 22 23
@<TRIPOS>COMMENT
> <Gold.Version>
2022.3.0

> <Gold.Id.Protein>
unknown|7rmi_cavity_clean|pdb

> <Gold.Protein.RotatedTorsions>
[ 10320 10303 10304 10305 ] final  -69.61 input  114.60 | X-H torsion
[ 10439 10432 10433 10434 ] final  -57.50 input  118.28 | X-H torsion
[ 10523 10518 10517 10514 ] final   14.99 input   59.99 | X-H torsion
[ 12976 12967 12966 12964 ] final  145.78 input   60.00 | X-H torsion
[ 11928 11921 11919 11916 ] final   65.62 input   60.00 | X-H torsion
[ 11130 11118 11119 11120 ] final  134.45 input  109.13 | X-H torsion
[ 11138 11129 11128 11126 ] final  -21.56 input   60.00 | X-H torsion

> <Gold.Protein.ActiveResidues>
 ASN392  LEU393  ILE32   VAL41   SER46   TYR92   HIS95   TRP98   ALA133  ILE135 
 HIS136  LEU138  ARG141  THR145  TYR216  VAL219  LEU223  GLN239  VAL252  VAL254 
 CYS255  PHE257  ALA258  TRP261  LEU262  ILE266  MET299  PRO302  ILE303  CYS306 
 CYS307 

> <Gold.Protein.RotatedAtoms>
  111.2183  135.3099   99.0026 H   0  0  0  0  0  0  0  0  0  0  0  0  # atno 10320 bound_to 10303
  113.6183  136.7343  112.3564 H   0  0  0  0  0  0  0  0  0  0  0  0  # atno 10439 bound_to 10432
  122.3272  136.3114  118.4630 H   0  0  0  0  0  0  0  0  0  0  0  0  # atno 10523 bound_to 10518
  120.9607  144.5572  102.6461 H   0  0  0  0  0  0  0  0  0  0  0  0  # atno 11130 bound_to 11118
  125.4816  146.0605   95.5653 H   0  0  0  0  0  0  0  0  0  0  0  0  # atno 11138 bound_to 11129
  145.3931  143.9592  135.9813 H   0  0  0  0  0  0  0  0  0  0  0  0  # atno 11928 bound_to 11921
  134.5932  126.4002  123.4566 H   0  0  0  0  0  0  0  0  0  0  0  0  # atno 12976 bound_to 12967
  122.3414  137.4516  117.3022 LP  0  0  0  0  0  0  0  0  0  0  0  0  # atno 14321 bound_to 10518
  122.7461  135.9109  116.9426 LP  0  0  0  0  0  0  0  0  0  0  0  0  # atno 14322 bound_to 10518
  135.4646  126.2838  124.8257 LP  0  0  0  0  0  0  0  0  0  0  0  0  # atno 14343 bound_to 12967
  133.9644  125.6430  124.7521 LP  0  0  0  0  0  0  0  0  0  0  0  0  # atno 14344 bound_to 12967
  145.3656  145.2368  134.9737 LP  0  0  0  0  0  0  0  0  0  0  0  0  # atno 14347 bound_to 11921
  146.7579  144.8024  135.7082 LP  0  0  0  0  0  0  0  0  0  0  0  0  # atno 14348 bound_to 11921
  126.4229  144.8074   96.0037 LP  0  0  0  0  0  0  0  0  0  0  0  0  # atno 14359 bound_to 11129
  126.7482  146.3092   96.5563 LP  0  0  0  0  0  0  0  0  0  0  0  0  # atno 14360 bound_to 11129

> <Gold.Score>
     Fitness  S(hb_ext) S(vdw_ext)  S(hb_int)    S(int)      intcor
      0.00       0.06      11.12       0.00     -34.67      -0.76

> <Gold.Goldscore.Fitness>
0.0000

> <Gold.Goldscore.Internal.Vdw>
-32.7629

> <Gold.Goldscore.Internal.Torsion>
-2.6763

> <Gold.Goldscore.External.Vdw>
11.1174

> <Gold.Goldscore.Internal.HBond>
0.0000

> <Gold.Goldscore.External.HBond>
0.0642

> <Gold.Goldscore.Internal.Correction>
-0.7650

> <Gold.Goldscore.Hbonds>
donor molecule, donor type, donor heavy atom, donor atom, acceptor molecule, acceptor atom, score
      P1  H 11851 11862       L1    11  0.27

> <Gold.Goldscore.Internal.Vdw.Weighted>
-32.7629

> <Gold.Goldscore.Internal.Torsion.Weighted>
-2.6763

> <Gold.Goldscore.External.Vdw.Weighted>
15.2864

> <Gold.Goldscore.Internal.HBond.Weighted>
0.0000

> <Gold.Goldscore.External.HBond.Weighted>
0.0642

> <Gold.Goldscore.Internal.Correction.Weighted>
-0.7650

> <Gold.Rescore>
     Score     S(PLP)   S(hbond)     S(cho)   S(metal)  DE(clash)   DE(tors)     intcor
     10.14     -14.06       0.00       0.00       0.00       1.25       1.34       ----

> <Gold.PLP.Fitness>
10.1410

> <Gold.PLP.PLP>
-14.0630

> <Gold.PLP.part.hbond>
0.0000

> <Gold.PLP.part.metal>
0.0000

> <Gold.PLP.part.buried>
-4.1236

> <Gold.PLP.part.nonpolar>
-11.0508

> <Gold.PLP.part.repulsive>
1.1942

> <Gold.PLP.ligand.clash>
1.2481

> <Gold.PLP.ligand.torsion>
1.3370

> <Gold.PLP.Chemscore.Hbond>
0.0000

> <Gold.PLP.Chemscore.CHOScore>
0.0000

> <Gold.PLP.Chemscore.Metal>
0.0000

> <Gold.PLP.Chemscore.Internal.Correction>
   9.000000E+99

