#       Name:                CT1002167954
#       Creating user name   hitesit
#       Creation time:       Sun Apr 16 20:22:41 2023


#       File generated by GOLD software.
#

@<TRIPOS>MOLECULE
CT1002167954|ligand_prepared|mol2|1|dock8
    29    30     1
SMALL
NO_CHARGES


@<TRIPOS>ATOM
      1 C1         141.1921 129.9042 142.1223 C.3            1 RES1               0.0000
      2 C2         139.6955 129.6991 142.4334 C.ar           1 RES1               0.0000
      3 C3         141.8002 128.5097 142.0040 C.2            1 RES1               0.0000
      4 C4         141.2524 130.7204 140.8359 C.2            1 RES1               0.0000
      5 C5         141.9571 130.6823 143.2181 C.3            1 RES1               0.0000
      6 C6         138.8524 129.1051 141.4990 C.ar           1 RES1               0.0000
      7 C7         139.1449 130.0955 143.6493 C.ar           1 RES1               0.0000
      8 N8         142.1188 128.0632 140.7554 N.am           1 RES1               0.0000
      9 O9         141.9610 127.7973 142.9873 O.2            1 RES1               0.0000
     10 N10        141.7806 130.1237 139.7211 N.am           1 RES1               0.0000
     11 O11        140.8322 131.8692 140.7734 O.2            1 RES1               0.0000
     12 C12        141.4346 132.0918 143.4473 C.3            1 RES1               0.0000
     13 C13        137.5082 128.9116 141.7713 C.ar           1 RES1               0.0000
     14 C14        137.8003 129.9013 143.9194 C.ar           1 RES1               0.0000
     15 C15        142.1882 128.8219 139.6147 C.2            1 RES1               0.0000
     16 C16        136.9814 129.3091 142.9817 C.ar           1 RES1               0.0000
     17 O17        142.6013 128.3425 138.5627 O.2            1 RES1               0.0000
     18 H18        141.8904 130.1236 144.1598 H              1 RES1               0.0000
     19 H19        143.0158 130.7397 142.9366 H              1 RES1               0.0000
     20 H20        139.2485 128.7880 140.5401 H              1 RES1               0.0000
     21 H21        139.7700 130.5644 144.4016 H              1 RES1               0.0000
     22 H22        142.3244 127.0737 140.6611 H              1 RES1               0.0000
     23 H23        141.8790 130.7038 138.8939 H              1 RES1               0.0000
     24 H24        142.0061 132.5932 144.2256 H              1 RES1               0.0000
     25 H25        141.5095 132.6837 142.5374 H              1 RES1               0.0000
     26 H26        140.3907 132.0712 143.7533 H              1 RES1               0.0000
     27 H27        136.8677 128.4463 141.0294 H              1 RES1               0.0000
     28 H28        137.3899 130.2163 144.8731 H              1 RES1               0.0000
     29 H29        135.9285 129.1571 143.1949 H              1 RES1               0.0000
@<TRIPOS>BOND
    1    1    2 1     
    2    1    3 1     
    3    1    4 1     
    4    1    5 1     
    5    2    6 ar    
    6    2    7 ar    
    7    3    8 1     
    8    3    9 2     
    9    4   10 1     
   10    4   11 2     
   11    5   12 1     
   12    5   18 1     
   13    5   19 1     
   14    6   13 ar    
   15    6   20 1     
   16    7   14 ar    
   17    7   21 1     
   18    8   15 1     
   19    8   22 1     
   20   10   15 1     
   21   10   23 1     
   22   12   24 1     
   23   12   25 1     
   24   12   26 1     
   25   13   16 ar    
   26   13   27 1     
   27   14   16 ar    
   28   14   28 1     
   29   15   17 2     
   30   16   29 1     
@<TRIPOS>SUBSTRUCTURE
      1 RES1           1
@<TRIPOS>SET
DONOR_HYDROGENS      STATIC     ATOMS    <user>   **** ""
2 22 23
ATOM$RED        STATIC     ATOMS    COLORGROUP SYSTEM
2 22 23
@<TRIPOS>COMMENT
> <Gold.Version>
2022.3.0

> <Gold.Id.Protein>
unknown|7rmi_cavity_clean|pdb

> <Gold.Protein.RotatedTorsions>
[ 10320 10303 10304 10305 ] final  -54.15 input  114.60 | X-H torsion
[ 10439 10432 10433 10434 ] final   50.78 input  118.28 | X-H torsion
[ 10523 10518 10517 10514 ] final -122.82 input   59.99 | X-H torsion
[ 12976 12967 12966 12964 ] final -177.66 input   60.00 | X-H torsion
[ 11928 11921 11919 11916 ] final -157.97 input   60.00 | X-H torsion
[ 11130 11118 11119 11120 ] final   21.95 input  109.13 | X-H torsion
[ 11138 11129 11128 11126 ] final   -6.09 input   60.00 | X-H torsion

> <Gold.Protein.ActiveResidues>
 ASN392  LEU393  ILE32   VAL41   SER46   TYR92   HIS95   TRP98   ALA133  ILE135 
 HIS136  LEU138  ARG141  THR145  TYR216  VAL219  LEU223  GLN239  VAL252  VAL254 
 CYS255  PHE257  ALA258  TRP261  LEU262  ILE266  MET299  PRO302  ILE303  CYS306 
 CYS307 

> <Gold.Protein.RotatedAtoms>
  111.0083  135.3032   99.1148 H   0  0  0  0  0  0  0  0  0  0  0  0  # atno 10320 bound_to 10303
  113.9710  135.6638  111.4699 H   0  0  0  0  0  0  0  0  0  0  0  0  # atno 10439 bound_to 10432
  122.4199  137.3321  117.0489 H   0  0  0  0  0  0  0  0  0  0  0  0  # atno 10523 bound_to 10518
  120.1357  143.5416  101.9955 H   0  0  0  0  0  0  0  0  0  0  0  0  # atno 11130 bound_to 11118
  125.5579  146.2780   95.6671 H   0  0  0  0  0  0  0  0  0  0  0  0  # atno 11138 bound_to 11129
  146.7107  145.0021  135.5356 H   0  0  0  0  0  0  0  0  0  0  0  0  # atno 11928 bound_to 11921
  134.0971  126.1239  123.6057 H   0  0  0  0  0  0  0  0  0  0  0  0  # atno 12976 bound_to 12967
  122.7306  135.7403  117.1790 LP  0  0  0  0  0  0  0  0  0  0  0  0  # atno 14321 bound_to 10518
  122.2635  136.5939  118.4904 LP  0  0  0  0  0  0  0  0  0  0  0  0  # atno 14322 bound_to 10518
  135.5246  126.5116  124.2832 LP  0  0  0  0  0  0  0  0  0  0  0  0  # atno 14343 bound_to 12967
  134.4042  125.6934  125.1444 LP  0  0  0  0  0  0  0  0  0  0  0  0  # atno 14344 bound_to 12967
  145.6348  143.9134  136.0881 LP  0  0  0  0  0  0  0  0  0  0  0  0  # atno 14347 bound_to 11921
  145.1616  145.0753  135.0428 LP  0  0  0  0  0  0  0  0  0  0  0  0  # atno 14348 bound_to 11921
  126.2197  144.8028   95.8517 LP  0  0  0  0  0  0  0  0  0  0  0  0  # atno 14359 bound_to 11129
  126.8745  146.0947   96.6058 LP  0  0  0  0  0  0  0  0  0  0  0  0  # atno 14360 bound_to 11129

> <Gold.Score>
     Fitness  S(hb_ext) S(vdw_ext)  S(hb_int)    S(int)      intcor
      0.00       0.19      15.24       0.00     -19.90      -0.76

> <Gold.Goldscore.Fitness>
0.0000

> <Gold.Goldscore.Internal.Vdw>
-19.5393

> <Gold.Goldscore.Internal.Torsion>
-1.1298

> <Gold.Goldscore.External.Vdw>
15.2434

> <Gold.Goldscore.Internal.HBond>
0.0000

> <Gold.Goldscore.External.HBond>
0.1915

> <Gold.Goldscore.Internal.Correction>
-0.7650

> <Gold.Goldscore.Hbonds>
donor molecule, donor type, donor heavy atom, donor atom, acceptor molecule, acceptor atom, score
      P1  H 11851 11862       L1    11  0.45

> <Gold.Goldscore.Internal.Vdw.Weighted>
-19.5393

> <Gold.Goldscore.Internal.Torsion.Weighted>
-1.1298

> <Gold.Goldscore.External.Vdw.Weighted>
20.9596

> <Gold.Goldscore.Internal.HBond.Weighted>
0.0000

> <Gold.Goldscore.External.HBond.Weighted>
0.1915

> <Gold.Goldscore.Internal.Correction.Weighted>
-0.7650

> <Gold.Rescore>
     Score     S(PLP)   S(hbond)     S(cho)   S(metal)  DE(clash)   DE(tors)     intcor
     17.34     -17.49       0.00       0.00       0.00       0.00       0.07       ----

> <Gold.PLP.Fitness>
17.3448

> <Gold.PLP.PLP>
-17.4907

> <Gold.PLP.part.hbond>
0.0000

> <Gold.PLP.part.metal>
0.0000

> <Gold.PLP.part.buried>
-4.4179

> <Gold.PLP.part.nonpolar>
-14.2936

> <Gold.PLP.part.repulsive>
1.1136

> <Gold.PLP.ligand.clash>
0.0000

> <Gold.PLP.ligand.torsion>
0.0730

> <Gold.PLP.Chemscore.Hbond>
0.0000

> <Gold.PLP.Chemscore.CHOScore>
0.0000

> <Gold.PLP.Chemscore.Metal>
0.0000

> <Gold.PLP.Chemscore.Internal.Correction>
   9.000000E+99

