#       Name:                CT1002167954
#       Creating user name   hitesit
#       Creation time:       Sun Apr 16 20:22:31 2023


#       File generated by GOLD software.
#

@<TRIPOS>MOLECULE
CT1002167954|ligand_prepared|mol2|1|dock2
    29    30     1
SMALL
NO_CHARGES


@<TRIPOS>ATOM
      1 C1         146.9379 129.3065 133.1161 C.3            1 RES1               0.0000
      2 C2         148.1283 129.8478 133.9339 C.ar           1 RES1               0.0000
      3 C3         146.7207 127.8680 133.5764 C.2            1 RES1               0.0000
      4 C4         145.7643 130.2360 133.4046 C.2            1 RES1               0.0000
      5 C5         147.1797 129.3022 131.5886 C.3            1 RES1               0.0000
      6 C6         149.3448 129.1720 133.9470 C.ar           1 RES1               0.0000
      7 C7         148.0261 131.0211 134.6766 C.ar           1 RES1               0.0000
      8 N8         145.6408 127.6148 134.3698 N.am           1 RES1               0.0000
      9 O9         147.5070 126.9767 133.2804 O.2            1 RES1               0.0000
     10 N10        144.6861 129.7199 134.0746 N.am           1 RES1               0.0000
     11 O11        145.7705 131.4149 133.0724 O.2            1 RES1               0.0000
     12 C12        147.4348 130.6827 131.0044 C.3            1 RES1               0.0000
     13 C13        150.4211 129.6531 134.6739 C.ar           1 RES1               0.0000
     14 C14        149.1037 131.5003 135.4031 C.ar           1 RES1               0.0000
     15 C15        144.5841 128.4595 134.5973 C.2            1 RES1               0.0000
     16 C16        150.3015 130.8176 135.4020 C.ar           1 RES1               0.0000
     17 O17        143.6041 128.0858 135.2353 O.2            1 RES1               0.0000
     18 H18        148.0425 128.6611 131.3695 H              1 RES1               0.0000
     19 H19        146.3034 128.8658 131.0936 H              1 RES1               0.0000
     20 H20        149.4569 128.2526 133.3821 H              1 RES1               0.0000
     21 H21        147.0932 131.5742 134.6931 H              1 RES1               0.0000
     22 H22        145.6166 126.7141 134.8373 H              1 RES1               0.0000
     23 H23        143.8853 130.3319 134.1947 H              1 RES1               0.0000
     24 H24        147.5981 130.6228 129.9304 H              1 RES1               0.0000
     25 H25        146.5858 131.3396 131.1820 H              1 RES1               0.0000
     26 H26        148.3146 131.1362 131.4562 H              1 RES1               0.0000
     27 H27        151.3612 129.1113 134.6709 H              1 RES1               0.0000
     28 H28        149.0049 132.4169 135.9752 H              1 RES1               0.0000
     29 H29        151.1449 131.1945 135.9711 H              1 RES1               0.0000
@<TRIPOS>BOND
    1    1    2 1     
    2    1    3 1     
    3    1    4 1     
    4    1    5 1     
    5    2    6 ar    
    6    2    7 ar    
    7    3    8 1     
    8    3    9 2     
    9    4   10 1     
   10    4   11 2     
   11    5   12 1     
   12    5   18 1     
   13    5   19 1     
   14    6   13 ar    
   15    6   20 1     
   16    7   14 ar    
   17    7   21 1     
   18    8   15 1     
   19    8   22 1     
   20   10   15 1     
   21   10   23 1     
   22   12   24 1     
   23   12   25 1     
   24   12   26 1     
   25   13   16 ar    
   26   13   27 1     
   27   14   16 ar    
   28   14   28 1     
   29   15   17 2     
   30   16   29 1     
@<TRIPOS>SUBSTRUCTURE
      1 RES1           1
@<TRIPOS>SET
DONOR_HYDROGENS      STATIC     ATOMS    <user>   **** ""
2 22 23
ATOM$RED        STATIC     ATOMS    COLORGROUP SYSTEM
2 22 23
@<TRIPOS>COMMENT
> <Gold.Version>
2022.3.0

> <Gold.Id.Protein>
unknown|7rmi_cavity_clean|pdb

> <Gold.Protein.RotatedTorsions>
[ 10320 10303 10304 10305 ] final  -38.68 input  114.60 | X-H torsion
[ 10439 10432 10433 10434 ] final   -2.66 input  118.28 | X-H torsion
[ 10523 10518 10517 10514 ] final  119.05 input   59.99 | X-H torsion
[ 12976 12967 12966 12964 ] final   10.78 input   60.00 | X-H torsion
[ 11928 11921 11919 11916 ] final  147.19 input   60.00 | X-H torsion
[ 11130 11118 11119 11120 ] final -148.21 input  109.13 | X-H torsion
[ 11138 11129 11128 11126 ] final   79.69 input   60.00 | X-H torsion

> <Gold.Protein.ActiveResidues>
 ASN392  LEU393  ILE32   VAL41   SER46   TYR92   HIS95   TRP98   ALA133  ILE135 
 HIS136  LEU138  ARG141  THR145  TYR216  VAL219  LEU223  GLN239  VAL252  VAL254 
 CYS255  PHE257  ALA258  TRP261  LEU262  ILE266  MET299  PRO302  ILE303  CYS306 
 CYS307 

> <Gold.Protein.RotatedAtoms>
  110.7825  135.3389   99.1817 H   0  0  0  0  0  0  0  0  0  0  0  0  # atno 10320 bound_to 10303
  114.1524  136.2654  111.9578 H   0  0  0  0  0  0  0  0  0  0  0  0  # atno 10439 bound_to 10432
  122.7296  135.7603  117.1546 H   0  0  0  0  0  0  0  0  0  0  0  0  # atno 10523 bound_to 10518
  120.1914  145.2637  102.3070 H   0  0  0  0  0  0  0  0  0  0  0  0  # atno 11130 bound_to 11118
  126.5412  146.5056   96.4451 H   0  0  0  0  0  0  0  0  0  0  0  0  # atno 11138 bound_to 11129
  146.5623  144.3139  136.0336 H   0  0  0  0  0  0  0  0  0  0  0  0  # atno 11928 bound_to 11921
  135.3400  126.1615  124.9980 H   0  0  0  0  0  0  0  0  0  0  0  0  # atno 12976 bound_to 12967
  122.2694  136.5638  118.4925 LP  0  0  0  0  0  0  0  0  0  0  0  0  # atno 14321 bound_to 10518
  122.4126  137.3540  117.0706 LP  0  0  0  0  0  0  0  0  0  0  0  0  # atno 14322 bound_to 10518
  133.8581  125.6769  124.5327 LP  0  0  0  0  0  0  0  0  0  0  0  0  # atno 14343 bound_to 12967
  134.8186  126.4903  123.4923 LP  0  0  0  0  0  0  0  0  0  0  0  0  # atno 14344 bound_to 12967
  144.9869  144.2651  135.6290 LP  0  0  0  0  0  0  0  0  0  0  0  0  # atno 14347 bound_to 11921
  145.9589  145.4168  135.0003 LP  0  0  0  0  0  0  0  0  0  0  0  0  # atno 14348 bound_to 11921
  125.4561  145.7664   95.4836 LP  0  0  0  0  0  0  0  0  0  0  0  0  # atno 14359 bound_to 11129
  126.6476  144.9018   96.1903 LP  0  0  0  0  0  0  0  0  0  0  0  0  # atno 14360 bound_to 11129

> <Gold.Score>
     Fitness  S(hb_ext) S(vdw_ext)  S(hb_int)    S(int)      intcor
      0.00       0.10      -5.79       0.00     -11.22      -0.78

> <Gold.Goldscore.Fitness>
0.0000

> <Gold.Goldscore.Internal.Vdw>
-9.8585

> <Gold.Goldscore.Internal.Torsion>
-2.1333

> <Gold.Goldscore.External.Vdw>
-5.7854

> <Gold.Goldscore.Internal.HBond>
0.0000

> <Gold.Goldscore.External.HBond>
0.1002

> <Gold.Goldscore.Internal.Correction>
-0.7752

> <Gold.Goldscore.Hbonds>
donor molecule, donor type, donor heavy atom, donor atom, acceptor molecule, acceptor atom, score
      L1  H     8    22       P1 11773  0.15

> <Gold.Goldscore.Internal.Vdw.Weighted>
-9.8585

> <Gold.Goldscore.Internal.Torsion.Weighted>
-2.1333

> <Gold.Goldscore.External.Vdw.Weighted>
-7.9550

> <Gold.Goldscore.Internal.HBond.Weighted>
0.0000

> <Gold.Goldscore.External.HBond.Weighted>
0.1002

> <Gold.Goldscore.Internal.Correction.Weighted>
-0.7752

> <Gold.Rescore>
     Score     S(PLP)   S(hbond)     S(cho)   S(metal)  DE(clash)   DE(tors)     intcor
     19.90     -19.83       0.54       0.00       0.00       1.40       0.07       ----

> <Gold.PLP.Fitness>
19.8966

> <Gold.PLP.PLP>
-19.8346

> <Gold.PLP.part.hbond>
-2.4075

> <Gold.PLP.part.metal>
0.0000

> <Gold.PLP.part.buried>
8.2607

> <Gold.PLP.part.nonpolar>
-28.3583

> <Gold.PLP.part.repulsive>
0.6771

> <Gold.PLP.ligand.clash>
1.4019

> <Gold.PLP.ligand.torsion>
0.0724

> <Gold.PLP.Chemscore.Hbond>
0.5363

> <Gold.PLP.Chemscore.CHOScore>
0.0000

> <Gold.PLP.Chemscore.Metal>
0.0000

> <Gold.Chemscore.Hbonds>
donor molecule, donor type, donor heavy atom, donor atom, acceptor molecule, acceptor atom, score
      L1  H     8    22       P1 11773  0.54

> <Gold.PLP.Chemscore.Internal.Correction>
   9.000000E+99

