#       Name:                CT1002167954
#       Creating user name   hitesit
#       Creation time:       Sun Apr 16 20:36:27 2023


#       File generated by GOLD software.
#

@<TRIPOS>MOLECULE
CT1002167954|ligand_prepared|mol2|1|dock10
    29    30     1
SMALL
NO_CHARGES


@<TRIPOS>ATOM
      1 C1         228.1565   0.8721  43.0827 C.3            1 RES1               0.0000
      2 C2         227.4579   1.3239  44.3814 C.ar           1 RES1               0.0000
      3 C3         227.8447  -0.6129  42.9228 C.2            1 RES1               0.0000
      4 C4         227.5951   1.7491  41.9690 C.2            1 RES1               0.0000
      5 C5         229.6923   1.0521  43.1043 C.3            1 RES1               0.0000
      6 C6         226.5192   0.5057  45.0027 C.ar           1 RES1               0.0000
      7 C7         227.7432   2.5528  44.9705 C.ar           1 RES1               0.0000
      8 N8         226.9415  -0.9694  41.9652 N.am           1 RES1               0.0000
      9 O9         228.3538  -1.4549  43.6524 O.2            1 RES1               0.0000
     10 N10        226.8447   1.1464  40.9936 N.am           1 RES1               0.0000
     11 O11        227.7819   2.9592  41.9364 O.2            1 RES1               0.0000
     12 C12        230.3947   0.4725  41.8865 C.3            1 RES1               0.0000
     13 C13        225.8905   0.9002  46.1720 C.ar           1 RES1               0.0000
     14 C14        227.1132   2.9456  46.1399 C.ar           1 RES1               0.0000
     15 C15        226.4668  -0.1682  40.9580 C.2            1 RES1               0.0000
     16 C16        226.1874   2.1201  46.7416 C.ar           1 RES1               0.0000
     17 O17        225.7450  -0.6248  40.0762 O.2            1 RES1               0.0000
     18 H18        229.9215   2.1230  43.1677 H              1 RES1               0.0000
     19 H19        230.0917   0.5698  44.0050 H              1 RES1               0.0000
     20 H20        226.2709  -0.4567  44.5678 H              1 RES1               0.0000
     21 H21        228.4674   3.2190  44.5141 H              1 RES1               0.0000
     22 H22        226.5861  -1.9195  42.0013 H              1 RES1               0.0000
     23 H23        226.5397   1.7319  40.2226 H              1 RES1               0.0000
     24 H24        231.4698   0.6257  41.9521 H              1 RES1               0.0000
     25 H25        230.2090  -0.5966  41.8065 H              1 RES1               0.0000
     26 H26        230.0397   0.9474  40.9742 H              1 RES1               0.0000
     27 H27        225.1616   0.2475  46.6410 H              1 RES1               0.0000
     28 H28        227.3495   3.9068  46.5843 H              1 RES1               0.0000
     29 H29        225.6951   2.4288  47.6579 H              1 RES1               0.0000
@<TRIPOS>BOND
    1    1    2 1     
    2    1    3 1     
    3    1    4 1     
    4    1    5 1     
    5    2    6 ar    
    6    2    7 ar    
    7    3    8 1     
    8    3    9 2     
    9    4   10 1     
   10    4   11 2     
   11    5   12 1     
   12    5   18 1     
   13    5   19 1     
   14    6   13 ar    
   15    6   20 1     
   16    7   14 ar    
   17    7   21 1     
   18    8   15 1     
   19    8   22 1     
   20   10   15 1     
   21   10   23 1     
   22   12   24 1     
   23   12   25 1     
   24   12   26 1     
   25   13   16 ar    
   26   13   27 1     
   27   14   16 ar    
   28   14   28 1     
   29   15   17 2     
   30   16   29 1     
@<TRIPOS>SUBSTRUCTURE
      1 RES1           1
@<TRIPOS>SET
DONOR_HYDROGENS      STATIC     ATOMS    <user>   **** ""
2 22 23
ATOM$RED        STATIC     ATOMS    COLORGROUP SYSTEM
2 22 23
@<TRIPOS>COMMENT
> <Gold.Version>
2022.3.0

> <Gold.Id.Protein>
unknown|4d1n_clean|pdb

> <Gold.Protein.RotatedTorsions>
[ 1594 1544 1543 1542 ] final   30.09 input   60.00 | X-H torsion
[ 4304 4284 4283 4280 ] final  146.81 input   59.98 | X-H torsion
[ 4344 4323 4324 4325 ] final  -24.01 input  122.59 | X-H torsion
[ 4348 4328 4327 4324 ] final  -72.24 input   59.99 | X-H torsion
[ 6708 6672 6671 6669 ] final   -6.31 input   60.02 | X-H torsion
[ 23762 23712 23713 23714 ] final   72.47 input   58.31 | X-H torsion
[ 23800 23787 23788 23789 ] final  -46.95 input  -92.91 | X-H torsion
[ 6926 6895 6896 6897 ] final   62.70 input  109.21 | X-H torsion
[ 4168 4129 4130 4131 ] final  -30.76 input  118.46 | X-H torsion
[ 4085 4052 4053 4054 ] final -146.90 input  111.71 | X-H torsion
[ 1354 1313 1314 1315 ] final   86.46 input  117.91 | X-H torsion
[ 1584 1536 1537 1538 ] final  -49.01 input   95.51 | X-H torsion
[ 23828 23815 23816 23817 ] final   27.93 input  -25.33 | X-H torsion
[ 1288 1260 1258 1255 ] final   55.66 input   59.99 | X-H torsion
[ 25744 25716 25717 25718 ] final   -2.67 input   66.04 | X-H torsion
[ 27193 4055 4054 4053 ] final   79.04 input   -0.00 | X-H torsion
[ 27195 4282 4281 4280 ] final   67.53 input    0.00 | X-H torsion
[ 27200 4326 4325 4324 ] final  -54.91 input    0.00 | X-H torsion
[ 27211 23656 23655 23654 ] final   37.91 input   -0.00 | X-H torsion
[ 27214 23715 23714 23713 ] final  171.68 input    0.00 | X-H torsion
[ 27218 6898 6897 6896 ] final  -19.08 input   -0.00 | X-H torsion
[ 27220 25719 25718 25717 ] final   98.70 input   -0.00 | X-H torsion
[ 27226 1316 1315 1314 ] final  128.42 input    0.00 | X-H torsion
[ 27230 23818 23817 23816 ] final   41.53 input    0.00 | X-H torsion
[ 27232 1257 1256 1255 ] final   29.00 input    0.00 | X-H torsion

> <Gold.Protein.ActiveResidues>
 ARG304  THR320  LEU321  LEU323  LYS324  GLN369  TYR370  SER372  SER373  TYR408 
 HIS412  ARG415  ASN416  TRP426  GLU670  CYS673  ARG674  GLY675  GLY676  TYR703 
 LEU705  THR706  PRO707 

> <Gold.Protein.RotatedAtoms>
  221.9524    4.8916   37.4082 H   0  0  0  0  0  0  0  0  0  0  0  0  # atno 1288 bound_to 1260
  223.6292    7.4809   36.8792 H   0  0  0  0  0  0  0  0  0  0  0  0  # atno 1354 bound_to 1313
  223.0135    9.9117   43.3191 H   0  0  0  0  0  0  0  0  0  0  0  0  # atno 1584 bound_to 1536
  223.1713    4.6078   45.4514 H   0  0  0  0  0  0  0  0  0  0  0  0  # atno 1594 bound_to 1544
  222.2762    3.3293   44.8933 H   0  0  0  0  0  0  0  0  0  0  0  0  # atno 1595 bound_to 1544
  223.7295    3.0588   45.6443 H   0  0  0  0  0  0  0  0  0  0  0  0  # atno 1596 bound_to 1544
  227.2329    0.8233   51.2599 H   0  0  0  0  0  0  0  0  0  0  0  0  # atno 4085 bound_to 4052
  229.4958   -0.9965   49.8776 H   0  0  0  0  0  0  0  0  0  0  0  0  # atno 4168 bound_to 4129
  224.6807   -2.3771   46.7975 H   0  0  0  0  0  0  0  0  0  0  0  0  # atno 4304 bound_to 4284
  228.2256   -4.6748   47.4165 H   0  0  0  0  0  0  0  0  0  0  0  0  # atno 4344 bound_to 4323
  231.6484   -3.9227   47.5846 H   0  0  0  0  0  0  0  0  0  0  0  0  # atno 4348 bound_to 4328
  231.7895    0.8806   46.8079 H   0  0  0  0  0  0  0  0  0  0  0  0  # atno 6708 bound_to 6672
  238.6209    2.6935   44.5668 H   0  0  0  0  0  0  0  0  0  0  0  0  # atno 6926 bound_to 6895
  227.2769    0.7907   34.8240 H   0  0  0  0  0  0  0  0  0  0  0  0  # atno 23762 bound_to 23712
  226.0930    2.5334   34.9572 H   0  0  0  0  0  0  0  0  0  0  0  0  # atno 23800 bound_to 23787
  226.5786    4.5254   35.5003 H   0  0  0  0  0  0  0  0  0  0  0  0  # atno 23828 bound_to 23815
  231.5378    8.7674   45.6116 H   0  0  0  0  0  0  0  0  0  0  0  0  # atno 25744 bound_to 25716
  229.7248   -1.1579   47.4328 LP  0  0  0  0  0  0  0  0  0  0  0  0  # atno 27193 bound_to 4055
  229.0220   -2.3939   48.4219 LP  0  0  0  0  0  0  0  0  0  0  0  0  # atno 27194 bound_to 4055
  226.3940   -5.4163   45.9201 LP  0  0  0  0  0  0  0  0  0  0  0  0  # atno 27195 bound_to 4282
  227.7309   -6.3816   46.4503 LP  0  0  0  0  0  0  0  0  0  0  0  0  # atno 27196 bound_to 4282
  225.3762   -3.8297   46.5638 LP  0  0  0  0  0  0  0  0  0  0  0  0  # atno 27197 bound_to 4284
  226.1909   -2.4628   46.1972 LP  0  0  0  0  0  0  0  0  0  0  0  0  # atno 27198 bound_to 4284
  228.6997   -3.0005   47.2393 LP  0  0  0  0  0  0  0  0  0  0  0  0  # atno 27199 bound_to 4323
  229.5131   -6.4797   44.1617 LP  0  0  0  0  0  0  0  0  0  0  0  0  # atno 27200 bound_to 4326
  231.1341   -6.8699   44.6307 LP  0  0  0  0  0  0  0  0  0  0  0  0  # atno 27201 bound_to 4326
  232.7780   -3.5928   46.4606 LP  0  0  0  0  0  0  0  0  0  0  0  0  # atno 27202 bound_to 4328
  231.9771   -5.0154   46.4243 LP  0  0  0  0  0  0  0  0  0  0  0  0  # atno 27203 bound_to 4328
  231.3517   -0.6167   46.3439 LP  0  0  0  0  0  0  0  0  0  0  0  0  # atno 27204 bound_to 6672
  232.1111    0.3770   45.2940 LP  0  0  0  0  0  0  0  0  0  0  0  0  # atno 27205 bound_to 6672
  226.7035   -2.3571   37.0260 LP  0  0  0  0  0  0  0  0  0  0  0  0  # atno 27211 bound_to 23656
  225.6604   -1.0170   37.3666 LP  0  0  0  0  0  0  0  0  0  0  0  0  # atno 27212 bound_to 23656
  226.5654   -0.5226   35.7369 LP  0  0  0  0  0  0  0  0  0  0  0  0  # atno 27213 bound_to 23712
  224.9563    3.8457   37.7398 LP  0  0  0  0  0  0  0  0  0  0  0  0  # atno 27214 bound_to 23715
  225.9240    2.7908   38.7148 LP  0  0  0  0  0  0  0  0  0  0  0  0  # atno 27215 bound_to 23715
  225.2414    1.9729   36.3765 LP  0  0  0  0  0  0  0  0  0  0  0  0  # atno 27216 bound_to 23787
  238.4494    1.9106   43.0197 LP  0  0  0  0  0  0  0  0  0  0  0  0  # atno 27217 bound_to 6895
  236.0798    5.1119   41.7378 LP  0  0  0  0  0  0  0  0  0  0  0  0  # atno 27218 bound_to 6898
  236.4549    6.5312   42.6570 LP  0  0  0  0  0  0  0  0  0  0  0  0  # atno 27219 bound_to 6898
  231.9053    6.5428   45.9716 LP  0  0  0  0  0  0  0  0  0  0  0  0  # atno 27220 bound_to 25719
  231.3964    6.7479   47.6145 LP  0  0  0  0  0  0  0  0  0  0  0  0  # atno 27221 bound_to 25719
  230.6965   -0.0240   50.6871 LP  0  0  0  0  0  0  0  0  0  0  0  0  # atno 27222 bound_to 4129
  228.8777    0.3853   51.6396 LP  0  0  0  0  0  0  0  0  0  0  0  0  # atno 27223 bound_to 4052
  222.5105    6.7974   38.0314 LP  0  0  0  0  0  0  0  0  0  0  0  0  # atno 27225 bound_to 1313
  225.5748    9.1272   41.0856 LP  0  0  0  0  0  0  0  0  0  0  0  0  # atno 27226 bound_to 1316
  224.3629    7.9385   41.4293 LP  0  0  0  0  0  0  0  0  0  0  0  0  # atno 27227 bound_to 1316
  223.5103    8.4892   42.4332 LP  0  0  0  0  0  0  0  0  0  0  0  0  # atno 27228 bound_to 1536
  225.3146    4.7886   34.3257 LP  0  0  0  0  0  0  0  0  0  0  0  0  # atno 27229 bound_to 23815
  228.6306    4.5079   34.8025 LP  0  0  0  0  0  0  0  0  0  0  0  0  # atno 27230 bound_to 23818
  229.5720    5.5635   35.8022 LP  0  0  0  0  0  0  0  0  0  0  0  0  # atno 27231 bound_to 23818
  220.8957    7.0656   39.6142 LP  0  0  0  0  0  0  0  0  0  0  0  0  # atno 27232 bound_to 1257
  222.3929    7.8478   39.9970 LP  0  0  0  0  0  0  0  0  0  0  0  0  # atno 27233 bound_to 1257
  221.3218    4.9206   35.9081 LP  0  0  0  0  0  0  0  0  0  0  0  0  # atno 27234 bound_to 1260
  220.6168    4.0230   37.0760 LP  0  0  0  0  0  0  0  0  0  0  0  0  # atno 27235 bound_to 1260

> <Gold.Score>
     Fitness  S(hb_ext) S(vdw_ext)  S(hb_int)    S(int)      intcor
     27.45       0.95      20.59       0.00      -1.81      -0.76

> <Gold.Goldscore.Fitness>
27.4463

> <Gold.Goldscore.Internal.Vdw>
-2.1431

> <Gold.Goldscore.Internal.Torsion>
-0.4292

> <Gold.Goldscore.External.Vdw>
20.5909

> <Gold.Goldscore.Internal.HBond>
0.0000

> <Gold.Goldscore.External.HBond>
0.9476

> <Gold.Goldscore.Internal.Correction>
-0.7585

> <Gold.Goldscore.Hbonds>
donor molecule, donor type, donor heavy atom, donor atom, acceptor molecule, acceptor atom, score
      P1  H 23719 23770       L1    11  0.04
      L1  H    10    23       P1 23715  0.37

> <Gold.Goldscore.Internal.Vdw.Weighted>
-2.1431

> <Gold.Goldscore.Internal.Torsion.Weighted>
-0.4292

> <Gold.Goldscore.External.Vdw.Weighted>
28.3125

> <Gold.Goldscore.Internal.HBond.Weighted>
0.0000

> <Gold.Goldscore.External.HBond.Weighted>
0.9476

> <Gold.Goldscore.Internal.Correction.Weighted>
-0.7585

> <Gold.Rescore>
     Score     S(PLP)   S(hbond)     S(cho)   S(metal)  DE(clash)   DE(tors)     intcor
     26.49     -25.68       1.00       0.00       0.00       1.79       0.20       ----

> <Gold.PLP.Fitness>
26.4854

> <Gold.PLP.PLP>
-25.6784

> <Gold.PLP.part.hbond>
-1.0000

> <Gold.PLP.part.metal>
0.0000

> <Gold.PLP.part.buried>
-4.5559

> <Gold.PLP.part.nonpolar>
-21.2672

> <Gold.PLP.part.repulsive>
0.2169

> <Gold.PLP.ligand.clash>
1.7927

> <Gold.PLP.ligand.torsion>
0.2001

> <Gold.PLP.Chemscore.Hbond>
1.0000

> <Gold.PLP.Chemscore.CHOScore>
0.0000

> <Gold.PLP.Chemscore.Metal>
0.0000

> <Gold.Chemscore.Hbonds>
donor molecule, donor type, donor heavy atom, donor atom, acceptor molecule, acceptor atom, score
      P1  H 23719 23770       L1    11  0.06

> <Gold.PLP.Chemscore.Internal.Correction>
   9.000000E+99

