Ugi_Design
     RDKit          3D

 29 31  0  0  0  0  0  0  0  0999 V2000
  137.1337  122.0301  131.9754 C   0  0  0  0  0  0  0  0  0  0  0  0
  136.0256  123.0127  132.0002 C   0  0  0  0  0  0  0  0  0  0  0  0
  136.0772  124.0110  130.8905 C   0  0  0  0  0  0  0  0  0  0  0  0
  137.2923  124.7132  130.9157 N   0  0  0  0  0  0  0  0  0  0  0  0
  138.4767  123.8930  130.8770 C   0  0  0  0  0  0  0  0  0  0  0  0
  138.4706  122.6719  131.6874 C   0  0  0  0  0  0  0  0  0  0  0  0
  136.0093  119.7866  131.4655 C   0  0  0  0  0  0  0  0  0  0  0  0
  136.9422  120.8148  131.2369 N   0  0  0  0  0  0  0  0  0  0  0  0
  136.1204  118.6887  130.7968 O   0  0  0  0  0  0  0  0  0  0  0  0
  137.8626  120.5777  130.1610 C   0  0  0  0  0  0  0  0  0  0  0  0
  139.0600  119.9681  130.3830 C   0  0  0  0  0  0  0  0  0  0  0  0
  139.9470  119.7331  129.3366 C   0  0  0  0  0  0  0  0  0  0  0  0
  139.5639  120.1449  128.0645 C   0  0  0  0  0  0  0  0  0  0  0  0
  138.3548  120.7595  127.8502 C   0  0  0  0  0  0  0  0  0  0  0  0
  137.5126  120.9697  128.9077 C   0  0  0  0  0  0  0  0  0  0  0  0
  135.0075  118.6807  133.4702 C   0  0  0  0  0  0  0  0  0  0  0  0
  134.8704  119.7807  132.4014 C   0  0  0  0  0  0  0  0  0  0  0  0
  137.2656  121.5757  133.4266 C   0  0  0  0  0  0  0  0  0  0  0  0
  138.2769  120.8862  133.6821 O   0  0  0  0  0  0  0  0  0  0  0  0
  136.3568  121.8824  134.3962 O   0  0  0  0  0  0  0  0  0  0  0  0
  136.7899  122.3557  135.6627 C   0  0  0  0  0  0  0  0  0  0  0  0
  137.4211  125.8636  131.7362 C   0  0  0  0  0  0  0  0  0  0  0  0
  136.4451  126.9237  131.2785 C   0  0  0  0  0  0  0  0  0  0  0  0
  137.2203  127.9628  130.5473 C   0  0  0  0  0  0  0  0  0  0  0  0
  138.2929  128.5628  131.2024 C   0  0  0  0  0  0  0  0  0  0  0  0
  139.0148  129.5370  130.5556 C   0  0  0  0  0  0  0  0  0  0  0  0
  138.6989  129.9302  129.2718 C   0  0  0  0  0  0  0  0  0  0  0  0
  137.6381  129.3441  128.6100 C   0  0  0  0  0  0  0  0  0  0  0  0
  136.9109  128.3554  129.2766 C   0  0  0  0  0  0  0  0  0  0  0  0
 16 17  1  0
 17  7  1  0
  7  8  1  0
  8 10  1  0
 10 11  2  0
 11 12  1  0
 12 13  2  0
 13 14  1  0
 14 15  2  0
  8  1  1  0
  1 18  1  0
 18 20  1  0
 20 21  1  0
 18 19  2  0
  1  2  1  0
  2  3  1  0
  3  4  1  0
  4 22  1  0
 22 23  1  0
 23 24  1  0
 24 25  2  0
 25 26  1  0
 26 27  2  0
 27 28  1  0
 28 29  2  0
  4  5  1  0
  5  6  1  0
  7  9  2  0
 15 10  1  0
  6  1  1  0
 29 24  1  0
M  END
>  <minimizedAffinity>  (1) 
-8.60487

$$$$
