Ugi_Design


 29 31  0  0  0  0  0  0  0  0999 V2000
  137.0959  122.0229  131.4247 C   0  0  0  0  0  0  0  0  0  0  0  0
  137.3087  122.0135  132.8906 C   0  0  0  0  0  0  0  0  0  0  0  0
  137.7805  120.7011  133.4251 C   0  0  0  0  0  0  0  0  0  0  0  0
  136.8703  119.6822  133.1032 N   0  0  0  0  0  0  0  0  0  0  0  0
  136.5699  119.5474  131.7001 C   0  0  0  0  0  0  0  0  0  0  0  0
  136.3847  120.7835  130.9347 C   0  0  0  0  0  0  0  0  0  0  0  0
  138.9406  123.5823  130.5745 C   0  0  0  0  0  0  0  0  0  0  0  0
  138.2010  122.3855  130.5843 N   0  0  0  0  0  0  0  0  0  0  0  0
  139.7800  123.7847  129.6157 O   0  0  0  0  0  0  0  0  0  0  0  0
  138.5646  121.4334  129.5732 C   0  0  0  0  0  0  0  0  0  0  0  0
  137.9809  121.4587  128.3429 C   0  0  0  0  0  0  0  0  0  0  0  0
  138.3408  120.5389  127.3624 C   0  0  0  0  0  0  0  0  0  0  0  0
  139.3125  119.5987  127.6887 C   0  0  0  0  0  0  0  0  0  0  0  0
  139.8949  119.5803  128.9321 C   0  0  0  0  0  0  0  0  0  0  0  0
  139.5120  120.5041  129.8657 C   0  0  0  0  0  0  0  0  0  0  0  0
  140.2979  125.2330  131.8700 C   0  0  0  0  0  0  0  0  0  0  0  0
  138.8939  124.6906  131.5454 C   0  0  0  0  0  0  0  0  0  0  0  0
  136.0696  123.1304  131.2011 C   0  0  0  0  0  0  0  0  0  0  0  0
  135.5772  123.6220  132.2401 O   0  0  0  0  0  0  0  0  0  0  0  0
  135.6941  123.5695  129.9656 O   0  0  0  0  0  0  0  0  0  0  0  0
  134.6283  122.9380  129.2722 C   0  0  0  0  0  0  0  0  0  0  0  0
  135.7582  119.4413  133.9508 C   0  0  0  0  0  0  0  0  0  0  0  0
  134.4869  119.8641  133.2501 C   0  0  0  0  0  0  0  0  0  0  0  0
  133.7839  120.8296  134.1382 C   0  0  0  0  0  0  0  0  0  0  0  0
  132.4033  120.9564  134.0065 C   0  0  0  0  0  0  0  0  0  0  0  0
  131.7323  121.8531  134.8031 C   0  0  0  0  0  0  0  0  0  0  0  0
  132.3986  122.6274  135.7299 C   0  0  0  0  0  0  0  0  0  0  0  0
  133.7674  122.5123  135.8714 C   0  0  0  0  0  0  0  0  0  0  0  0
  134.4395  121.5985  135.0568 C   0  0  0  0  0  0  0  0  0  0  0  0
 16 17  1  0  0  0
 17  7  1  0  0  0
  7  8  1  0  0  0
  8 10  1  0  0  0
 10 11  2  0  0  0
 11 12  1  0  0  0
 12 13  2  0  0  0
 13 14  1  0  0  0
 14 15  2  0  0  0
  8  1  1  0  0  0
  1 18  1  0  0  0
 18 20  1  0  0  0
 20 21  1  0  0  0
 18 19  2  0  0  0
  1  2  1  0  0  0
  2  3  1  0  0  0
  3  4  1  0  0  0
  4 22  1  0  0  0
 22 23  1  0  0  0
 23 24  1  0  0  0
 24 25  2  0  0  0
 25 26  1  0  0  0
 26 27  2  0  0  0
 27 28  1  0  0  0
 28 29  2  0  0  0
  4  5  1  0  0  0
  5  6  1  0  0  0
  7  9  2  0  0  0
 15 10  1  0  0  0
  6  1  1  0  0  0
 29 24  1  0  0  0
M  END
> <minimizedAffinity>
-9.06950

$$$$
Ugi_Design


 29 31  0  0  0  0  0  0  0  0999 V2000
  135.4186  120.0966  133.1385 C   0  0  0  0  0  0  0  0  0  0  0  0
  136.8565  120.0056  133.4826 C   0  0  0  0  0  0  0  0  0  0  0  0
  137.4266  121.2688  134.0392 C   0  0  0  0  0  0  0  0  0  0  0  0
  137.2540  122.3278  133.1343 N   0  0  0  0  0  0  0  0  0  0  0  0
  135.8956  122.5607  132.7129 C   0  0  0  0  0  0  0  0  0  0  0  0
  135.0745  121.3818  132.4231 C   0  0  0  0  0  0  0  0  0  0  0  0
  134.1678  118.5025  134.7044 C   0  0  0  0  0  0  0  0  0  0  0  0
  134.4593  119.7634  134.1523 N   0  0  0  0  0  0  0  0  0  0  0  0
  133.1402  118.3860  135.4760 O   0  0  0  0  0  0  0  0  0  0  0  0
  133.6385  120.8425  134.6243 C   0  0  0  0  0  0  0  0  0  0  0  0
  132.3697  121.0143  134.1601 C   0  0  0  0  0  0  0  0  0  0  0  0
  131.5740  122.0571  134.6251 C   0  0  0  0  0  0  0  0  0  0  0  0
  132.1242  122.9113  135.5751 C   0  0  0  0  0  0  0  0  0  0  0  0
  133.4047  122.7307  136.0367 C   0  0  0  0  0  0  0  0  0  0  0  0
  134.1516  121.6914  135.5532 C   0  0  0  0  0  0  0  0  0  0  0  0
  134.2326  116.0700  135.2739 C   0  0  0  0  0  0  0  0  0  0  0  0
  134.8994  117.2360  134.5210 C   0  0  0  0  0  0  0  0  0  0  0  0
  135.2212  119.0307  132.0640 C   0  0  0  0  0  0  0  0  0  0  0  0
  134.1423  119.0972  131.4355 O   0  0  0  0  0  0  0  0  0  0  0  0
  136.1389  118.0595  131.7904 O   0  0  0  0  0  0  0  0  0  0  0  0
  136.6285  117.8857  130.4692 C   0  0  0  0  0  0  0  0  0  0  0  0
  138.2135  122.5394  132.1105 C   0  0  0  0  0  0  0  0  0  0  0  0
  137.5252  122.5412  130.7644 C   0  0  0  0  0  0  0  0  0  0  0  0
  138.2245  121.5511  129.9007 C   0  0  0  0  0  0  0  0  0  0  0  0
  139.1713  120.7183  130.4919 C   0  0  0  0  0  0  0  0  0  0  0  0
  139.8432  119.8066  129.7134 C   0  0  0  0  0  0  0  0  0  0  0  0
  139.5972  119.6997  128.3604 C   0  0  0  0  0  0  0  0  0  0  0  0
  138.6612  120.5190  127.7607 C   0  0  0  0  0  0  0  0  0  0  0  0
  137.9845  121.4421  128.5608 C   0  0  0  0  0  0  0  0  0  0  0  0
 16 17  1  0  0  0
 17  7  1  0  0  0
  7  8  1  0  0  0
  8 10  1  0  0  0
 10 11  2  0  0  0
 11 12  1  0  0  0
 12 13  2  0  0  0
 13 14  1  0  0  0
 14 15  2  0  0  0
  8  1  1  0  0  0
  1 18  1  0  0  0
 18 20  1  0  0  0
 20 21  1  0  0  0
 18 19  2  0  0  0
  1  2  1  0  0  0
  2  3  1  0  0  0
  3  4  1  0  0  0
  4 22  1  0  0  0
 22 23  1  0  0  0
 23 24  1  0  0  0
 24 25  2  0  0  0
 25 26  1  0  0  0
 26 27  2  0  0  0
 27 28  1  0  0  0
 28 29  2  0  0  0
  4  5  1  0  0  0
  5  6  1  0  0  0
  7  9  2  0  0  0
 15 10  1  0  0  0
  6  1  1  0  0  0
 29 24  1  0  0  0
M  END
> <minimizedAffinity>
-8.85762

$$$$
Ugi_Design


 29 31  0  0  0  0  0  0  0  0999 V2000
  137.4261  121.9375  131.7471 C   0  0  0  0  0  0  0  0  0  0  0  0
  137.0764  120.4997  131.8154 C   0  0  0  0  0  0  0  0  0  0  0  0
  135.9398  120.1107  130.9281 C   0  0  0  0  0  0  0  0  0  0  0  0
  134.7941  120.8602  131.2379 N   0  0  0  0  0  0  0  0  0  0  0  0
  134.9659  122.2905  131.1962 C   0  0  0  0  0  0  0  0  0  0  0  0
  136.2079  122.8309  131.7560 C   0  0  0  0  0  0  0  0  0  0  0  0
  139.0089  123.6092  130.6257 C   0  0  0  0  0  0  0  0  0  0  0  0
  138.3980  122.3507  130.7757 N   0  0  0  0  0  0  0  0  0  0  0  0
  139.7219  123.8309  129.5735 O   0  0  0  0  0  0  0  0  0  0  0  0
  138.7507  121.3771  129.7814 C   0  0  0  0  0  0  0  0  0  0  0  0
  139.6489  120.3901  130.0530 C   0  0  0  0  0  0  0  0  0  0  0  0
  139.9832  119.4434  129.0892 C   0  0  0  0  0  0  0  0  0  0  0  0
  139.3680  119.5468  127.8460 C   0  0  0  0  0  0  0  0  0  0  0  0
  138.4641  120.5459  127.5810 C   0  0  0  0  0  0  0  0  0  0  0  0
  138.1636  121.4550  128.5582 C   0  0  0  0  0  0  0  0  0  0  0  0
  140.3532  125.2490  131.9483 C   0  0  0  0  0  0  0  0  0  0  0  0
  138.9501  124.7655  131.5382 C   0  0  0  0  0  0  0  0  0  0  0  0
  138.0865  122.2279  133.0923 C   0  0  0  0  0  0  0  0  0  0  0  0
  139.1606  121.6235  133.3031 O   0  0  0  0  0  0  0  0  0  0  0  0
  137.5614  123.0791  134.0197 O   0  0  0  0  0  0  0  0  0  0  0  0
  137.1270  122.5893  135.2795 C   0  0  0  0  0  0  0  0  0  0  0  0
  133.9249  120.4194  132.2691 C   0  0  0  0  0  0  0  0  0  0  0  0
  134.6624  120.4235  133.5889 C   0  0  0  0  0  0  0  0  0  0  0  0
  134.4276  119.1055  134.2392 C   0  0  0  0  0  0  0  0  0  0  0  0
  135.3071  118.0653  133.9493 C   0  0  0  0  0  0  0  0  0  0  0  0
  135.1030  116.8336  134.5236 C   0  0  0  0  0  0  0  0  0  0  0  0
  134.0465  116.6086  135.3814 C   0  0  0  0  0  0  0  0  0  0  0  0
  133.1665  117.6306  135.6779 C   0  0  0  0  0  0  0  0  0  0  0  0
  133.3829  118.8781  135.0886 C   0  0  0  0  0  0  0  0  0  0  0  0
 16 17  1  0  0  0
 17  7  1  0  0  0
  7  8  1  0  0  0
  8 10  1  0  0  0
 10 11  2  0  0  0
 11 12  1  0  0  0
 12 13  2  0  0  0
 13 14  1  0  0  0
 14 15  2  0  0  0
  8  1  1  0  0  0
  1 18  1  0  0  0
 18 20  1  0  0  0
 20 21  1  0  0  0
 18 19  2  0  0  0
  1  2  1  0  0  0
  2  3  1  0  0  0
  3  4  1  0  0  0
  4 22  1  0  0  0
 22 23  1  0  0  0
 23 24  1  0  0  0
 24 25  2  0  0  0
 25 26  1  0  0  0
 26 27  2  0  0  0
 27 28  1  0  0  0
 28 29  2  0  0  0
  4  5  1  0  0  0
  5  6  1  0  0  0
  7  9  2  0  0  0
 15 10  1  0  0  0
  6  1  1  0  0  0
 29 24  1  0  0  0
M  END
> <minimizedAffinity>
-8.82344

$$$$
Ugi_Design


 29 31  0  0  0  0  0  0  0  0999 V2000
  137.2205  122.9156  131.9336 C   0  0  0  0  0  0  0  0  0  0  0  0
  137.3131  123.0030  133.4094 C   0  0  0  0  0  0  0  0  0  0  0  0
  137.5107  121.6846  134.0825 C   0  0  0  0  0  0  0  0  0  0  0  0
  136.4681  120.8035  133.7557 N   0  0  0  0  0  0  0  0  0  0  0  0
  136.2599  120.5943  132.3450 C   0  0  0  0  0  0  0  0  0  0  0  0
  136.3488  121.7703  131.4749 C   0  0  0  0  0  0  0  0  0  0  0  0
  139.3953  124.0426  131.1867 C   0  0  0  0  0  0  0  0  0  0  0  0
  138.4336  123.0156  131.1737 N   0  0  0  0  0  0  0  0  0  0  0  0
  140.3254  124.0324  130.2926 O   0  0  0  0  0  0  0  0  0  0  0  0
  138.6728  121.9655  130.2245 C   0  0  0  0  0  0  0  0  0  0  0  0
  138.1872  122.0433  128.9545 C   0  0  0  0  0  0  0  0  0  0  0  0
  138.4270  121.0269  128.0345 C   0  0  0  0  0  0  0  0  0  0  0  0
  139.1759  119.9358  128.4626 C   0  0  0  0  0  0  0  0  0  0  0  0
  139.6608  119.8657  129.7454 C   0  0  0  0  0  0  0  0  0  0  0  0
  139.4023  120.8882  130.6169 C   0  0  0  0  0  0  0  0  0  0  0  0
  140.8764  125.8668  132.0374 C   0  0  0  0  0  0  0  0  0  0  0  0
  139.4997  125.1818  132.1165 C   0  0  0  0  0  0  0  0  0  0  0  0
  136.4189  124.1514  131.5335 C   0  0  0  0  0  0  0  0  0  0  0  0
  135.9588  124.1380  130.3709 O   0  0  0  0  0  0  0  0  0  0  0  0
  136.2074  125.2121  132.3644 O   0  0  0  0  0  0  0  0  0  0  0  0
  136.2796  126.5398  131.8667 C   0  0  0  0  0  0  0  0  0  0  0  0
  135.2682  120.8247  134.5128 C   0  0  0  0  0  0  0  0  0  0  0  0
  134.2109  120.0048  133.8087 C   0  0  0  0  0  0  0  0  0  0  0  0
  134.1134  118.6971  134.5125 C   0  0  0  0  0  0  0  0  0  0  0  0
  134.9878  117.6815  134.1334 C   0  0  0  0  0  0  0  0  0  0  0  0
  134.9075  116.4591  134.7562 C   0  0  0  0  0  0  0  0  0  0  0  0
  133.9803  116.2195  135.7488 C   0  0  0  0  0  0  0  0  0  0  0  0
  133.1070  117.2171  136.1350 C   0  0  0  0  0  0  0  0  0  0  0  0
  133.1968  118.4553  135.4955 C   0  0  0  0  0  0  0  0  0  0  0  0
 16 17  1  0  0  0
 17  7  1  0  0  0
  7  8  1  0  0  0
  8 10  1  0  0  0
 10 11  2  0  0  0
 11 12  1  0  0  0
 12 13  2  0  0  0
 13 14  1  0  0  0
 14 15  2  0  0  0
  8  1  1  0  0  0
  1 18  1  0  0  0
 18 20  1  0  0  0
 20 21  1  0  0  0
 18 19  2  0  0  0
  1  2  1  0  0  0
  2  3  1  0  0  0
  3  4  1  0  0  0
  4 22  1  0  0  0
 22 23  1  0  0  0
 23 24  1  0  0  0
 24 25  2  0  0  0
 25 26  1  0  0  0
 26 27  2  0  0  0
 27 28  1  0  0  0
 28 29  2  0  0  0
  4  5  1  0  0  0
  5  6  1  0  0  0
  7  9  2  0  0  0
 15 10  1  0  0  0
  6  1  1  0  0  0
 29 24  1  0  0  0
M  END
> <minimizedAffinity>
-8.74840

$$$$
Ugi_Design


 29 31  0  0  0  0  0  0  0  0999 V2000
  137.1337  122.0301  131.9754 C   0  0  0  0  0  0  0  0  0  0  0  0
  136.0256  123.0127  132.0002 C   0  0  0  0  0  0  0  0  0  0  0  0
  136.0772  124.0110  130.8905 C   0  0  0  0  0  0  0  0  0  0  0  0
  137.2923  124.7132  130.9157 N   0  0  0  0  0  0  0  0  0  0  0  0
  138.4767  123.8930  130.8770 C   0  0  0  0  0  0  0  0  0  0  0  0
  138.4706  122.6719  131.6874 C   0  0  0  0  0  0  0  0  0  0  0  0
  136.0093  119.7866  131.4655 C   0  0  0  0  0  0  0  0  0  0  0  0
  136.9422  120.8148  131.2369 N   0  0  0  0  0  0  0  0  0  0  0  0
  136.1204  118.6887  130.7968 O   0  0  0  0  0  0  0  0  0  0  0  0
  137.8626  120.5777  130.1610 C   0  0  0  0  0  0  0  0  0  0  0  0
  139.0600  119.9681  130.3830 C   0  0  0  0  0  0  0  0  0  0  0  0
  139.9470  119.7331  129.3366 C   0  0  0  0  0  0  0  0  0  0  0  0
  139.5639  120.1449  128.0645 C   0  0  0  0  0  0  0  0  0  0  0  0
  138.3548  120.7595  127.8502 C   0  0  0  0  0  0  0  0  0  0  0  0
  137.5126  120.9697  128.9077 C   0  0  0  0  0  0  0  0  0  0  0  0
  135.0075  118.6807  133.4702 C   0  0  0  0  0  0  0  0  0  0  0  0
  134.8704  119.7807  132.4014 C   0  0  0  0  0  0  0  0  0  0  0  0
  137.2656  121.5757  133.4266 C   0  0  0  0  0  0  0  0  0  0  0  0
  138.2769  120.8862  133.6821 O   0  0  0  0  0  0  0  0  0  0  0  0
  136.3568  121.8824  134.3962 O   0  0  0  0  0  0  0  0  0  0  0  0
  136.7899  122.3557  135.6627 C   0  0  0  0  0  0  0  0  0  0  0  0
  137.4211  125.8636  131.7362 C   0  0  0  0  0  0  0  0  0  0  0  0
  136.4451  126.9237  131.2785 C   0  0  0  0  0  0  0  0  0  0  0  0
  137.2203  127.9628  130.5473 C   0  0  0  0  0  0  0  0  0  0  0  0
  138.2929  128.5628  131.2024 C   0  0  0  0  0  0  0  0  0  0  0  0
  139.0148  129.5370  130.5556 C   0  0  0  0  0  0  0  0  0  0  0  0
  138.6989  129.9302  129.2718 C   0  0  0  0  0  0  0  0  0  0  0  0
  137.6381  129.3441  128.6100 C   0  0  0  0  0  0  0  0  0  0  0  0
  136.9109  128.3554  129.2766 C   0  0  0  0  0  0  0  0  0  0  0  0
 16 17  1  0  0  0
 17  7  1  0  0  0
  7  8  1  0  0  0
  8 10  1  0  0  0
 10 11  2  0  0  0
 11 12  1  0  0  0
 12 13  2  0  0  0
 13 14  1  0  0  0
 14 15  2  0  0  0
  8  1  1  0  0  0
  1 18  1  0  0  0
 18 20  1  0  0  0
 20 21  1  0  0  0
 18 19  2  0  0  0
  1  2  1  0  0  0
  2  3  1  0  0  0
  3  4  1  0  0  0
  4 22  1  0  0  0
 22 23  1  0  0  0
 23 24  1  0  0  0
 24 25  2  0  0  0
 25 26  1  0  0  0
 26 27  2  0  0  0
 27 28  1  0  0  0
 28 29  2  0  0  0
  4  5  1  0  0  0
  5  6  1  0  0  0
  7  9  2  0  0  0
 15 10  1  0  0  0
  6  1  1  0  0  0
 29 24  1  0  0  0
M  END
> <minimizedAffinity>
-8.60487

$$$$
Ugi_Design


 29 31  0  0  0  0  0  0  0  0999 V2000
  137.4063  120.9810  131.0064 C   0  0  0  0  0  0  0  0  0  0  0  0
  136.7894  119.8847  130.2243 C   0  0  0  0  0  0  0  0  0  0  0  0
  137.6927  118.7159  130.0042 C   0  0  0  0  0  0  0  0  0  0  0  0
  138.8685  119.1181  129.3516 N   0  0  0  0  0  0  0  0  0  0  0  0
  139.6022  120.1740  130.0027 C   0  0  0  0  0  0  0  0  0  0  0  0
  138.8224  121.2769  130.5716 C   0  0  0  0  0  0  0  0  0  0  0  0
  138.0128  121.6522  133.4021 C   0  0  0  0  0  0  0  0  0  0  0  0
  137.2694  120.9517  132.4345 N   0  0  0  0  0  0  0  0  0  0  0  0
  137.8547  121.3475  134.6459 O   0  0  0  0  0  0  0  0  0  0  0  0
  136.2910  120.0401  132.9566 C   0  0  0  0  0  0  0  0  0  0  0  0
  135.0394  120.4657  133.2842 C   0  0  0  0  0  0  0  0  0  0  0  0
  134.0908  119.5780  133.7833 C   0  0  0  0  0  0  0  0  0  0  0  0
  134.4711  118.2486  133.9342 C   0  0  0  0  0  0  0  0  0  0  0  0
  135.7356  117.8288  133.6020 C   0  0  0  0  0  0  0  0  0  0  0  0
  136.6365  118.7352  133.1135 C   0  0  0  0  0  0  0  0  0  0  0  0
  138.4367  124.1056  133.6185 C   0  0  0  0  0  0  0  0  0  0  0  0
  138.9918  122.7341  133.1920 C   0  0  0  0  0  0  0  0  0  0  0  0
  136.6375  122.2278  130.5769 C   0  0  0  0  0  0  0  0  0  0  0  0
  137.3395  123.2358  130.3431 O   0  0  0  0  0  0  0  0  0  0  0  0
  135.2798  122.2686  130.4528 O   0  0  0  0  0  0  0  0  0  0  0  0
  134.6817  122.7856  129.2736 C   0  0  0  0  0  0  0  0  0  0  0  0
  138.8936  119.1951  127.9350 C   0  0  0  0  0  0  0  0  0  0  0  0
  138.3257  120.5238  127.4902 C   0  0  0  0  0  0  0  0  0  0  0  0
  137.8782  120.3716  126.0789 C   0  0  0  0  0  0  0  0  0  0  0  0
  138.5325  119.4365  125.2807 C   0  0  0  0  0  0  0  0  0  0  0  0
  138.1496  119.2881  123.9692 C   0  0  0  0  0  0  0  0  0  0  0  0
  137.1305  120.0449  123.4296 C   0  0  0  0  0  0  0  0  0  0  0  0
  136.4728  120.9758  124.2093 C   0  0  0  0  0  0  0  0  0  0  0  0
  136.8700  121.1189  125.5404 C   0  0  0  0  0  0  0  0  0  0  0  0
 16 17  1  0  0  0
 17  7  1  0  0  0
  7  8  1  0  0  0
  8 10  1  0  0  0
 10 11  2  0  0  0
 11 12  1  0  0  0
 12 13  2  0  0  0
 13 14  1  0  0  0
 14 15  2  0  0  0
  8  1  1  0  0  0
  1 18  1  0  0  0
 18 20  1  0  0  0
 20 21  1  0  0  0
 18 19  2  0  0  0
  1  2  1  0  0  0
  2  3  1  0  0  0
  3  4  1  0  0  0
  4 22  1  0  0  0
 22 23  1  0  0  0
 23 24  1  0  0  0
 24 25  2  0  0  0
 25 26  1  0  0  0
 26 27  2  0  0  0
 27 28  1  0  0  0
 28 29  2  0  0  0
  4  5  1  0  0  0
  5  6  1  0  0  0
  7  9  2  0  0  0
 15 10  1  0  0  0
  6  1  1  0  0  0
 29 24  1  0  0  0
M  END
> <minimizedAffinity>
-8.47607

$$$$
Ugi_Design


 29 31  0  0  0  0  0  0  0  0999 V2000
  137.0226  121.4343  131.3179 C   0  0  0  0  0  0  0  0  0  0  0  0
  137.6753  122.5732  130.6315 C   0  0  0  0  0  0  0  0  0  0  0  0
  139.0980  122.7867  131.0328 C   0  0  0  0  0  0  0  0  0  0  0  0
  139.1937  122.9909  132.4182 N   0  0  0  0  0  0  0  0  0  0  0  0
  138.6173  121.9517  133.2336 C   0  0  0  0  0  0  0  0  0  0  0  0
  137.3358  121.3919  132.7952 C   0  0  0  0  0  0  0  0  0  0  0  0
  136.5964  118.9135  131.1720 C   0  0  0  0  0  0  0  0  0  0  0  0
  137.1060  120.1392  130.7057 N   0  0  0  0  0  0  0  0  0  0  0  0
  136.9370  117.8283  130.5626 O   0  0  0  0  0  0  0  0  0  0  0  0
  137.8641  120.0634  129.4889 C   0  0  0  0  0  0  0  0  0  0  0  0
  137.2803  120.3028  128.2820 C   0  0  0  0  0  0  0  0  0  0  0  0
  138.0197  120.2357  127.1049 C   0  0  0  0  0  0  0  0  0  0  0  0
  139.3690  119.9148  127.2107 C   0  0  0  0  0  0  0  0  0  0  0  0
  139.9489  119.6742  128.4319 C   0  0  0  0  0  0  0  0  0  0  0  0
  139.1849  119.7523  129.5642 C   0  0  0  0  0  0  0  0  0  0  0  0
  136.1963  117.5535  133.2301 C   0  0  0  0  0  0  0  0  0  0  0  0
  135.6878  118.6773  132.3085 C   0  0  0  0  0  0  0  0  0  0  0  0
  135.5355  121.7762  131.2821 C   0  0  0  0  0  0  0  0  0  0  0  0
  135.0576  122.2011  132.3566 O   0  0  0  0  0  0  0  0  0  0  0  0
  134.7576  121.6339  130.1708 O   0  0  0  0  0  0  0  0  0  0  0  0
  134.6124  122.7077  129.2535 C   0  0  0  0  0  0  0  0  0  0  0  0
  139.0202  124.2953  132.9488 C   0  0  0  0  0  0  0  0  0  0  0  0
  139.6316  125.3096  132.0089 C   0  0  0  0  0  0  0  0  0  0  0  0
  138.6272  126.3870  131.7952 C   0  0  0  0  0  0  0  0  0  0  0  0
  137.2927  126.0187  131.6438 C   0  0  0  0  0  0  0  0  0  0  0  0
  136.3475  126.9930  131.4287 C   0  0  0  0  0  0  0  0  0  0  0  0
  136.6945  128.3262  131.3614 C   0  0  0  0  0  0  0  0  0  0  0  0
  138.0139  128.7060  131.5096 C   0  0  0  0  0  0  0  0  0  0  0  0
  138.9662  127.7081  131.7275 C   0  0  0  0  0  0  0  0  0  0  0  0
 16 17  1  0  0  0
 17  7  1  0  0  0
  7  8  1  0  0  0
  8 10  1  0  0  0
 10 11  2  0  0  0
 11 12  1  0  0  0
 12 13  2  0  0  0
 13 14  1  0  0  0
 14 15  2  0  0  0
  8  1  1  0  0  0
  1 18  1  0  0  0
 18 20  1  0  0  0
 20 21  1  0  0  0
 18 19  2  0  0  0
  1  2  1  0  0  0
  2  3  1  0  0  0
  3  4  1  0  0  0
  4 22  1  0  0  0
 22 23  1  0  0  0
 23 24  1  0  0  0
 24 25  2  0  0  0
 25 26  1  0  0  0
 26 27  2  0  0  0
 27 28  1  0  0  0
 28 29  2  0  0  0
  4  5  1  0  0  0
  5  6  1  0  0  0
  7  9  2  0  0  0
 15 10  1  0  0  0
  6  1  1  0  0  0
 29 24  1  0  0  0
M  END
> <minimizedAffinity>
-8.30471

$$$$
Ugi_Design


 29 31  0  0  0  0  0  0  0  0999 V2000
  137.5548  126.4890  131.6220 C   0  0  0  0  0  0  0  0  0  0  0  0
  136.4757  125.5005  131.8509 C   0  0  0  0  0  0  0  0  0  0  0  0
  136.8919  124.3322  132.6830 C   0  0  0  0  0  0  0  0  0  0  0  0
  137.9806  123.6707  132.0937 N   0  0  0  0  0  0  0  0  0  0  0  0
  139.1288  124.4984  131.8225 C   0  0  0  0  0  0  0  0  0  0  0  0
  138.8749  125.8374  131.2834 C   0  0  0  0  0  0  0  0  0  0  0  0
  138.8129  128.3956  132.7795 C   0  0  0  0  0  0  0  0  0  0  0  0
  137.7016  127.5594  132.5664 N   0  0  0  0  0  0  0  0  0  0  0  0
  138.8113  129.1799  133.8040 O   0  0  0  0  0  0  0  0  0  0  0  0
  136.5980  127.7688  133.4603 C   0  0  0  0  0  0  0  0  0  0  0  0
  136.5479  127.1476  134.6713 C   0  0  0  0  0  0  0  0  0  0  0  0
  135.4802  127.3584  135.5387 C   0  0  0  0  0  0  0  0  0  0  0  0
  134.4730  128.2218  135.1205 C   0  0  0  0  0  0  0  0  0  0  0  0
  134.5317  128.8431  133.8974 C   0  0  0  0  0  0  0  0  0  0  0  0
  135.6006  128.6083  133.0764 C   0  0  0  0  0  0  0  0  0  0  0  0
  140.1605  129.8971  131.3048 C   0  0  0  0  0  0  0  0  0  0  0  0
  140.0359  128.5115  131.9648 C   0  0  0  0  0  0  0  0  0  0  0  0
  137.1595  127.1823  130.3209 C   0  0  0  0  0  0  0  0  0  0  0  0
  135.9494  127.1010  130.0169 O   0  0  0  0  0  0  0  0  0  0  0  0
  138.0445  127.8474  129.5241 O   0  0  0  0  0  0  0  0  0  0  0  0
  137.6079  128.9249  128.7092 C   0  0  0  0  0  0  0  0  0  0  0  0
  137.7479  122.6767  131.1082 C   0  0  0  0  0  0  0  0  0  0  0  0
  138.8929  121.6893  131.1051 C   0  0  0  0  0  0  0  0  0  0  0  0
  138.9211  121.0379  129.7671 C   0  0  0  0  0  0  0  0  0  0  0  0
  139.7720  119.9506  129.5849 C   0  0  0  0  0  0  0  0  0  0  0  0
  139.8293  119.3416  128.3542 C   0  0  0  0  0  0  0  0  0  0  0  0
  139.0604  119.7848  127.2984 C   0  0  0  0  0  0  0  0  0  0  0  0
  138.2122  120.8618  127.4645 C   0  0  0  0  0  0  0  0  0  0  0  0
  138.1620  121.4735  128.7189 C   0  0  0  0  0  0  0  0  0  0  0  0
 16 17  1  0  0  0
 17  7  1  0  0  0
  7  8  1  0  0  0
  8 10  1  0  0  0
 10 11  2  0  0  0
 11 12  1  0  0  0
 12 13  2  0  0  0
 13 14  1  0  0  0
 14 15  2  0  0  0
  8  1  1  0  0  0
  1 18  1  0  0  0
 18 20  1  0  0  0
 20 21  1  0  0  0
 18 19  2  0  0  0
  1  2  1  0  0  0
  2  3  1  0  0  0
  3  4  1  0  0  0
  4 22  1  0  0  0
 22 23  1  0  0  0
 23 24  1  0  0  0
 24 25  2  0  0  0
 25 26  1  0  0  0
 26 27  2  0  0  0
 27 28  1  0  0  0
 28 29  2  0  0  0
  4  5  1  0  0  0
  5  6  1  0  0  0
  7  9  2  0  0  0
 15 10  1  0  0  0
  6  1  1  0  0  0
 29 24  1  0  0  0
M  END
> <minimizedAffinity>
-8.26225

$$$$
Ugi_Design


 29 31  0  0  0  0  0  0  0  0999 V2000
  137.3876  121.8260  131.7784 C   0  0  0  0  0  0  0  0  0  0  0  0
  137.2821  120.3620  131.9781 C   0  0  0  0  0  0  0  0  0  0  0  0
  136.2635  119.7043  131.1062 C   0  0  0  0  0  0  0  0  0  0  0  0
  134.9967  120.2719  131.3142 N   0  0  0  0  0  0  0  0  0  0  0  0
  134.9271  121.7005  131.1375 C   0  0  0  0  0  0  0  0  0  0  0  0
  136.0372  122.4947  131.6713 C   0  0  0  0  0  0  0  0  0  0  0  0
  138.8945  123.5856  130.6873 C   0  0  0  0  0  0  0  0  0  0  0  0
  138.3143  122.3084  130.7947 N   0  0  0  0  0  0  0  0  0  0  0  0
  139.5632  123.8753  129.6225 O   0  0  0  0  0  0  0  0  0  0  0  0
  138.6483  121.3940  129.7396 C   0  0  0  0  0  0  0  0  0  0  0  0
  137.9874  121.4242  128.5491 C   0  0  0  0  0  0  0  0  0  0  0  0
  138.3185  120.5412  127.5256 C   0  0  0  0  0  0  0  0  0  0  0  0
  139.3433  119.6323  127.7672 C   0  0  0  0  0  0  0  0  0  0  0  0
  140.0035  119.6087  128.9710 C   0  0  0  0  0  0  0  0  0  0  0  0
  139.6463  120.4958  129.9493 C   0  0  0  0  0  0  0  0  0  0  0  0
  137.7369  125.7062  131.3265 C   0  0  0  0  0  0  0  0  0  0  0  0
  138.8474  124.6928  131.6594 C   0  0  0  0  0  0  0  0  0  0  0  0
  137.9354  122.3476  133.1041 C   0  0  0  0  0  0  0  0  0  0  0  0
  139.0915  121.9681  133.3923 O   0  0  0  0  0  0  0  0  0  0  0  0
  137.2333  123.1678  133.9375 O   0  0  0  0  0  0  0  0  0  0  0  0
  137.9093  123.9616  134.9011 C   0  0  0  0  0  0  0  0  0  0  0  0
  134.1734  119.7856  132.3625 C   0  0  0  0  0  0  0  0  0  0  0  0
  134.7520  120.2029  133.6955 C   0  0  0  0  0  0  0  0  0  0  0  0
  133.7456  121.0658  134.3720 C   0  0  0  0  0  0  0  0  0  0  0  0
  134.2013  122.0078  135.2911 C   0  0  0  0  0  0  0  0  0  0  0  0
  133.2913  122.8059  135.9420 C   0  0  0  0  0  0  0  0  0  0  0  0
  131.9377  122.6931  135.7017 C   0  0  0  0  0  0  0  0  0  0  0  0
  131.4715  121.7635  134.7931 C   0  0  0  0  0  0  0  0  0  0  0  0
  132.4047  120.9574  134.1376 C   0  0  0  0  0  0  0  0  0  0  0  0
 16 17  1  0  0  0
 17  7  1  0  0  0
  7  8  1  0  0  0
  8 10  1  0  0  0
 10 11  2  0  0  0
 11 12  1  0  0  0
 12 13  2  0  0  0
 13 14  1  0  0  0
 14 15  2  0  0  0
  8  1  1  0  0  0
  1 18  1  0  0  0
 18 20  1  0  0  0
 20 21  1  0  0  0
 18 19  2  0  0  0
  1  2  1  0  0  0
  2  3  1  0  0  0
  3  4  1  0  0  0
  4 22  1  0  0  0
 22 23  1  0  0  0
 23 24  1  0  0  0
 24 25  2  0  0  0
 25 26  1  0  0  0
 26 27  2  0  0  0
 27 28  1  0  0  0
 28 29  2  0  0  0
  4  5  1  0  0  0
  5  6  1  0  0  0
  7  9  2  0  0  0
 15 10  1  0  0  0
  6  1  1  0  0  0
 29 24  1  0  0  0
M  END
> <minimizedAffinity>
-8.12560

$$$$
