XXX


 29 31  0  0  0  0  0  0  0  0999 V2000
  136.9037  121.5167  131.2003 C   0  0  0  0  0  0  0  0  0  0  0  0
  137.3932  121.1760  132.5723 C   0  0  0  0  0  0  0  0  0  0  0  0
  136.8437  119.8611  133.1054 C   0  0  0  0  0  0  0  0  0  0  0  0
  135.4528  119.7704  132.8088 N   0  0  0  0  0  0  0  0  0  0  0  0
  135.0963  119.8712  131.4294 C   0  0  0  0  0  0  0  0  0  0  0  0
  136.2607  120.2808  130.5587 C   0  0  0  0  0  0  0  0  0  0  0  0
  138.6648  123.1653  130.6413 C   0  0  0  0  0  0  0  0  0  0  0  0
  139.5089  123.5605  129.7543 O   0  0  0  0  0  0  0  0  0  0  0  0
  137.9716  121.9791  130.3638 N   0  0  0  0  0  0  0  0  0  0  0  0
  138.3449  121.2352  129.1709 C   0  0  0  0  0  0  0  0  0  0  0  0
  137.6045  121.2937  128.0144 C   0  0  0  0  0  0  0  0  0  0  0  0
  137.9690  120.5841  126.8736 C   0  0  0  0  0  0  0  0  0  0  0  0
  139.0996  119.7908  126.8702 C   0  0  0  0  0  0  0  0  0  0  0  0
  139.8416  119.7309  128.0257 C   0  0  0  0  0  0  0  0  0  0  0  0
  139.4726  120.4379  129.1521 C   0  0  0  0  0  0  0  0  0  0  0  0
  139.1241  125.4047  131.5915 C   0  0  0  0  0  0  0  0  0  0  0  0
  138.5389  124.0029  131.8244 C   0  0  0  0  0  0  0  0  0  0  0  0
  135.8835  122.5899  131.3011 C   0  0  0  0  0  0  0  0  0  0  0  0
  135.3603  122.8804  132.4069 O   0  0  0  0  0  0  0  0  0  0  0  0
  135.4342  123.3397  130.2158 O   0  0  0  0  0  0  0  0  0  0  0  0
  134.5539  122.7852  129.2496 C   0  0  0  0  0  0  0  0  0  0  0  0
  134.7571  118.7164  133.5088 C   0  0  0  0  0  0  0  0  0  0  0  0
  134.4477  119.0645  134.9314 C   0  0  0  0  0  0  0  0  0  0  0  0
  133.6385  120.3023  135.0608 C   0  0  0  0  0  0  0  0  0  0  0  0
  134.1446  121.4434  135.6559 C   0  0  0  0  0  0  0  0  0  0  0  0
  133.4135  122.6033  135.7936 C   0  0  0  0  0  0  0  0  0  0  0  0
  132.1390  122.6501  135.3323 C   0  0  0  0  0  0  0  0  0  0  0  0
  131.5782  121.5550  134.7328 C   0  0  0  0  0  0  0  0  0  0  0  0
  132.3314  120.3864  134.6001 C   0  0  0  0  0  0  0  0  0  0  0  0
 16 17  1  0  0  0
 17  7  1  0  0  0
  7  8  2  0  0  0
  7  9  1  0  0  0
  9 10  1  0  0  0
 10 11  2  0  0  0
 11 12  1  0  0  0
 12 13  2  0  0  0
 13 14  1  0  0  0
 14 15  2  0  0  0
  9  1  1  0  0  0
  1 18  1  0  0  0
 18 19  2  0  0  0
 18 20  1  0  0  0
 20 21  1  0  0  0
  1  2  1  0  0  0
  2  3  1  0  0  0
  3  4  1  0  0  0
  4 22  1  0  0  0
 22 23  1  0  0  0
 23 24  1  0  0  0
 24 25  2  0  0  0
 25 26  1  0  0  0
 26 27  2  0  0  0
 27 28  1  0  0  0
 28 29  2  0  0  0
  4  5  1  0  0  0
  5  6  1  0  0  0
 15 10  1  0  0  0
  6  1  1  0  0  0
 29 24  1  0  0  0
M  END
> <minimizedAffinity>
-9.30985

$$$$
XXX


 29 31  0  0  0  0  0  0  0  0999 V2000
  137.2273  123.0689  131.9353 C   0  0  0  0  0  0  0  0  0  0  0  0
  137.5553  123.0925  133.3947 C   0  0  0  0  0  0  0  0  0  0  0  0
  136.7029  122.1445  134.2253 C   0  0  0  0  0  0  0  0  0  0  0  0
  135.3441  122.2327  133.8051 N   0  0  0  0  0  0  0  0  0  0  0  0
  135.0935  121.9585  132.4259 C   0  0  0  0  0  0  0  0  0  0  0  0
  136.3648  121.8408  131.6186 C   0  0  0  0  0  0  0  0  0  0  0  0
  139.3881  124.0349  131.2076 C   0  0  0  0  0  0  0  0  0  0  0  0
  140.3438  123.9764  130.3480 O   0  0  0  0  0  0  0  0  0  0  0  0
  138.4143  123.0297  131.1330 N   0  0  0  0  0  0  0  0  0  0  0  0
  138.6238  121.9474  130.1841 C   0  0  0  0  0  0  0  0  0  0  0  0
  138.1112  121.9865  128.9095 C   0  0  0  0  0  0  0  0  0  0  0  0
  138.3192  120.9505  128.0032 C   0  0  0  0  0  0  0  0  0  0  0  0
  139.0562  119.8391  128.3628 C   0  0  0  0  0  0  0  0  0  0  0  0
  139.5699  119.7979  129.6371 C   0  0  0  0  0  0  0  0  0  0  0  0
  139.3586  120.8297  130.5289 C   0  0  0  0  0  0  0  0  0  0  0  0
  140.7919  125.8731  132.0904 C   0  0  0  0  0  0  0  0  0  0  0  0
  139.4422  125.1406  132.1519 C   0  0  0  0  0  0  0  0  0  0  0  0
  136.4632  124.2934  131.5894 C   0  0  0  0  0  0  0  0  0  0  0  0
  136.0554  124.4891  130.4163 O   0  0  0  0  0  0  0  0  0  0  0  0
  136.1450  125.2955  132.5041 O   0  0  0  0  0  0  0  0  0  0  0  0
  136.2963  126.6687  132.1765 C   0  0  0  0  0  0  0  0  0  0  0  0
  134.3976  121.6079  134.6987 C   0  0  0  0  0  0  0  0  0  0  0  0
  133.5270  120.5994  134.0162 C   0  0  0  0  0  0  0  0  0  0  0  0
  133.8495  119.2024  134.4014 C   0  0  0  0  0  0  0  0  0  0  0  0
  133.0618  118.4922  135.2888 C   0  0  0  0  0  0  0  0  0  0  0  0
  133.3413  117.1970  135.6672 C   0  0  0  0  0  0  0  0  0  0  0  0
  134.4323  116.5717  135.1591 C   0  0  0  0  0  0  0  0  0  0  0  0
  135.2533  117.2187  134.2756 C   0  0  0  0  0  0  0  0  0  0  0  0
  134.9573  118.5312  133.9012 C   0  0  0  0  0  0  0  0  0  0  0  0
 16 17  1  0  0  0
 17  7  1  0  0  0
  7  8  2  0  0  0
  7  9  1  0  0  0
  9 10  1  0  0  0
 10 11  2  0  0  0
 11 12  1  0  0  0
 12 13  2  0  0  0
 13 14  1  0  0  0
 14 15  2  0  0  0
  9  1  1  0  0  0
  1 18  1  0  0  0
 18 19  2  0  0  0
 18 20  1  0  0  0
 20 21  1  0  0  0
  1  2  1  0  0  0
  2  3  1  0  0  0
  3  4  1  0  0  0
  4 22  1  0  0  0
 22 23  1  0  0  0
 23 24  1  0  0  0
 24 25  2  0  0  0
 25 26  1  0  0  0
 26 27  2  0  0  0
 27 28  1  0  0  0
 28 29  2  0  0  0
  4  5  1  0  0  0
  5  6  1  0  0  0
 15 10  1  0  0  0
  6  1  1  0  0  0
 29 24  1  0  0  0
M  END
> <minimizedAffinity>
-9.29565

$$$$
XXX


 29 31  0  0  0  0  0  0  0  0999 V2000
  135.4217  119.9519  133.2505 C   0  0  0  0  0  0  0  0  0  0  0  0
  136.7837  119.6911  133.8118 C   0  0  0  0  0  0  0  0  0  0  0  0
  137.8103  120.7487  133.4339 C   0  0  0  0  0  0  0  0  0  0  0  0
  137.6661  121.0824  132.0561 N   0  0  0  0  0  0  0  0  0  0  0  0
  136.3787  121.5532  131.6546 C   0  0  0  0  0  0  0  0  0  0  0  0
  135.3402  121.3960  132.7402 C   0  0  0  0  0  0  0  0  0  0  0  0
  134.1121  118.4664  134.7371 C   0  0  0  0  0  0  0  0  0  0  0  0
  133.0886  118.3698  135.5108 O   0  0  0  0  0  0  0  0  0  0  0  0
  134.4014  119.7426  134.2350 N   0  0  0  0  0  0  0  0  0  0  0  0
  133.6073  120.8610  134.7189 C   0  0  0  0  0  0  0  0  0  0  0  0
  132.3127  121.0678  134.3065 C   0  0  0  0  0  0  0  0  0  0  0  0
  131.5550  122.1367  134.7769 C   0  0  0  0  0  0  0  0  0  0  0  0
  132.0887  123.0319  135.6833 C   0  0  0  0  0  0  0  0  0  0  0  0
  133.3833  122.8270  136.0972 C   0  0  0  0  0  0  0  0  0  0  0  0
  134.1271  121.7643  135.6255 C   0  0  0  0  0  0  0  0  0  0  0  0
  134.2265  116.0445  135.2375 C   0  0  0  0  0  0  0  0  0  0  0  0
  134.8421  117.2336  134.4831 C   0  0  0  0  0  0  0  0  0  0  0  0
  135.1794  119.0278  132.1147 C   0  0  0  0  0  0  0  0  0  0  0  0
  134.1320  119.1149  131.4247 O   0  0  0  0  0  0  0  0  0  0  0  0
  136.0617  118.0197  131.7309 O   0  0  0  0  0  0  0  0  0  0  0  0
  136.6283  117.9910  130.4293 C   0  0  0  0  0  0  0  0  0  0  0  0
  138.7583  121.8507  131.5069 C   0  0  0  0  0  0  0  0  0  0  0  0
  138.4400  122.4477  130.1716 C   0  0  0  0  0  0  0  0  0  0  0  0
  138.6065  121.4853  129.0536 C   0  0  0  0  0  0  0  0  0  0  0  0
  137.6942  121.4095  128.0171 C   0  0  0  0  0  0  0  0  0  0  0  0
  137.8219  120.5222  126.9705 C   0  0  0  0  0  0  0  0  0  0  0  0
  138.8816  119.6765  126.9354 C   0  0  0  0  0  0  0  0  0  0  0  0
  139.8209  119.7005  127.9306 C   0  0  0  0  0  0  0  0  0  0  0  0
  139.6782  120.6053  128.9848 C   0  0  0  0  0  0  0  0  0  0  0  0
 16 17  1  0  0  0
 17  7  1  0  0  0
  7  8  2  0  0  0
  7  9  1  0  0  0
  9 10  1  0  0  0
 10 11  2  0  0  0
 11 12  1  0  0  0
 12 13  2  0  0  0
 13 14  1  0  0  0
 14 15  2  0  0  0
  9  1  1  0  0  0
  1 18  1  0  0  0
 18 19  2  0  0  0
 18 20  1  0  0  0
 20 21  1  0  0  0
  1  2  1  0  0  0
  2  3  1  0  0  0
  3  4  1  0  0  0
  4 22  1  0  0  0
 22 23  1  0  0  0
 23 24  1  0  0  0
 24 25  2  0  0  0
 25 26  1  0  0  0
 26 27  2  0  0  0
 27 28  1  0  0  0
 28 29  2  0  0  0
  4  5  1  0  0  0
  5  6  1  0  0  0
 15 10  1  0  0  0
  6  1  1  0  0  0
 29 24  1  0  0  0
M  END
> <minimizedAffinity>
-9.15071

$$$$
XXX


 29 31  0  0  0  0  0  0  0  0999 V2000
  137.1113  121.0030  131.6740 C   0  0  0  0  0  0  0  0  0  0  0  0
  137.9211  120.7705  132.9102 C   0  0  0  0  0  0  0  0  0  0  0  0
  137.2257  121.2201  134.1867 C   0  0  0  0  0  0  0  0  0  0  0  0
  136.6102  122.4875  133.9734 N   0  0  0  0  0  0  0  0  0  0  0  0
  135.6624  122.5546  132.9070 C   0  0  0  0  0  0  0  0  0  0  0  0
  135.6573  121.3057  132.0573 C   0  0  0  0  0  0  0  0  0  0  0  0
  136.4603  118.6786  131.1216 C   0  0  0  0  0  0  0  0  0  0  0  0
  136.6655  117.6721  130.3467 O   0  0  0  0  0  0  0  0  0  0  0  0
  137.1415  119.8624  130.8067 N   0  0  0  0  0  0  0  0  0  0  0  0
  137.9183  119.8949  129.5774 C   0  0  0  0  0  0  0  0  0  0  0  0
  139.2826  119.7289  129.5732 C   0  0  0  0  0  0  0  0  0  0  0  0
  140.0209  119.7554  128.3933 C   0  0  0  0  0  0  0  0  0  0  0  0
  139.3963  119.9516  127.1772 C   0  0  0  0  0  0  0  0  0  0  0  0
  138.0319  120.1178  127.1791 C   0  0  0  0  0  0  0  0  0  0  0  0
  137.3079  120.0900  128.3538 C   0  0  0  0  0  0  0  0  0  0  0  0
  136.1447  117.5206  133.2868 C   0  0  0  0  0  0  0  0  0  0  0  0
  135.5423  118.4584  132.2288 C   0  0  0  0  0  0  0  0  0  0  0  0
  137.6665  122.1685  130.9418 C   0  0  0  0  0  0  0  0  0  0  0  0
  136.9918  122.7561  130.0585 O   0  0  0  0  0  0  0  0  0  0  0  0
  138.9393  122.6912  131.1633 O   0  0  0  0  0  0  0  0  0  0  0  0
  139.5817  123.5051  130.1933 C   0  0  0  0  0  0  0  0  0  0  0  0
  136.1714  123.1522  135.1778 C   0  0  0  0  0  0  0  0  0  0  0  0
  135.4593  122.2371  136.1244 C   0  0  0  0  0  0  0  0  0  0  0  0
  134.0973  121.8716  135.6606 C   0  0  0  0  0  0  0  0  0  0  0  0
  133.8031  120.6027  135.1960 C   0  0  0  0  0  0  0  0  0  0  0  0
  132.5493  120.2388  134.7548 C   0  0  0  0  0  0  0  0  0  0  0  0
  131.5446  121.1497  134.7679 C   0  0  0  0  0  0  0  0  0  0  0  0
  131.7693  122.4233  135.2158 C   0  0  0  0  0  0  0  0  0  0  0  0
  133.0451  122.7775  135.6600 C   0  0  0  0  0  0  0  0  0  0  0  0
 16 17  1  0  0  0
 17  7  1  0  0  0
  7  8  2  0  0  0
  7  9  1  0  0  0
  9 10  1  0  0  0
 10 11  2  0  0  0
 11 12  1  0  0  0
 12 13  2  0  0  0
 13 14  1  0  0  0
 14 15  2  0  0  0
  9  1  1  0  0  0
  1 18  1  0  0  0
 18 19  2  0  0  0
 18 20  1  0  0  0
 20 21  1  0  0  0
  1  2  1  0  0  0
  2  3  1  0  0  0
  3  4  1  0  0  0
  4 22  1  0  0  0
 22 23  1  0  0  0
 23 24  1  0  0  0
 24 25  2  0  0  0
 25 26  1  0  0  0
 26 27  2  0  0  0
 27 28  1  0  0  0
 28 29  2  0  0  0
  4  5  1  0  0  0
  5  6  1  0  0  0
 15 10  1  0  0  0
  6  1  1  0  0  0
 29 24  1  0  0  0
M  END
> <minimizedAffinity>
-8.97221

$$$$
XXX


 29 31  0  0  0  0  0  0  0  0999 V2000
  137.2939  122.3777  131.5898 C   0  0  0  0  0  0  0  0  0  0  0  0
  136.0950  123.2721  131.5628 C   0  0  0  0  0  0  0  0  0  0  0  0
  136.4196  124.7144  131.2032 C   0  0  0  0  0  0  0  0  0  0  0  0
  137.5930  125.1267  131.8989 N   0  0  0  0  0  0  0  0  0  0  0  0
  138.7649  124.3414  131.6756 C   0  0  0  0  0  0  0  0  0  0  0  0
  138.4753  123.0754  130.9041 C   0  0  0  0  0  0  0  0  0  0  0  0
  136.0101  120.2740  131.3494 C   0  0  0  0  0  0  0  0  0  0  0  0
  135.9508  119.1236  130.7763 O   0  0  0  0  0  0  0  0  0  0  0  0
  137.0336  121.1336  130.9276 N   0  0  0  0  0  0  0  0  0  0  0  0
  137.8588  120.7116  129.8066 C   0  0  0  0  0  0  0  0  0  0  0  0
  139.0491  120.0487  129.9872 C   0  0  0  0  0  0  0  0  0  0  0  0
  139.8326  119.6420  128.9108 C   0  0  0  0  0  0  0  0  0  0  0  0
  139.4318  119.8957  127.6137 C   0  0  0  0  0  0  0  0  0  0  0  0
  138.2415  120.5585  127.4308 C   0  0  0  0  0  0  0  0  0  0  0  0
  137.4711  120.9580  128.5040 C   0  0  0  0  0  0  0  0  0  0  0  0
  134.9601  119.4240  133.4240 C   0  0  0  0  0  0  0  0  0  0  0  0
  135.0016  120.5368  132.3649 C   0  0  0  0  0  0  0  0  0  0  0  0
  137.6574  122.0953  133.0007 C   0  0  0  0  0  0  0  0  0  0  0  0
  138.5804  121.2883  133.2797 O   0  0  0  0  0  0  0  0  0  0  0  0
  137.0273  122.6798  134.0978 O   0  0  0  0  0  0  0  0  0  0  0  0
  136.8647  121.9729  135.3184 C   0  0  0  0  0  0  0  0  0  0  0  0
  137.8382  126.5494  131.8719 C   0  0  0  0  0  0  0  0  0  0  0  0
  136.8735  127.2926  131.0014 C   0  0  0  0  0  0  0  0  0  0  0  0
  137.4279  128.5679  130.4818 C   0  0  0  0  0  0  0  0  0  0  0  0
  137.4747  128.8425  129.1272 C   0  0  0  0  0  0  0  0  0  0  0  0
  137.9888  130.0153  128.6182 C   0  0  0  0  0  0  0  0  0  0  0  0
  138.4758  130.9560  129.4651 C   0  0  0  0  0  0  0  0  0  0  0  0
  138.4589  130.7464  130.8176 C   0  0  0  0  0  0  0  0  0  0  0  0
  137.9347  129.5530  131.3188 C   0  0  0  0  0  0  0  0  0  0  0  0
 16 17  1  0  0  0
 17  7  1  0  0  0
  7  8  2  0  0  0
  7  9  1  0  0  0
  9 10  1  0  0  0
 10 11  2  0  0  0
 11 12  1  0  0  0
 12 13  2  0  0  0
 13 14  1  0  0  0
 14 15  2  0  0  0
  9  1  1  0  0  0
  1 18  1  0  0  0
 18 19  2  0  0  0
 18 20  1  0  0  0
 20 21  1  0  0  0
  1  2  1  0  0  0
  2  3  1  0  0  0
  3  4  1  0  0  0
  4 22  1  0  0  0
 22 23  1  0  0  0
 23 24  1  0  0  0
 24 25  2  0  0  0
 25 26  1  0  0  0
 26 27  2  0  0  0
 27 28  1  0  0  0
 28 29  2  0  0  0
  4  5  1  0  0  0
  5  6  1  0  0  0
 15 10  1  0  0  0
  6  1  1  0  0  0
 29 24  1  0  0  0
M  END
> <minimizedAffinity>
-8.84268

$$$$
XXX


 29 31  0  0  0  0  0  0  0  0999 V2000
  136.8039  120.8865  131.6933 C   0  0  0  0  0  0  0  0  0  0  0  0
  136.1920  119.5995  131.2381 C   0  0  0  0  0  0  0  0  0  0  0  0
  137.1322  118.7392  130.4070 C   0  0  0  0  0  0  0  0  0  0  0  0
  137.8287  119.5595  129.4729 N   0  0  0  0  0  0  0  0  0  0  0  0
  138.5875  120.6362  130.0251 C   0  0  0  0  0  0  0  0  0  0  0  0
  138.3244  120.8336  131.4994 C   0  0  0  0  0  0  0  0  0  0  0  0
  137.4300  121.7980  133.9089 C   0  0  0  0  0  0  0  0  0  0  0  0
  137.1303  121.8552  135.1589 O   0  0  0  0  0  0  0  0  0  0  0  0
  136.5143  121.1443  133.0731 N   0  0  0  0  0  0  0  0  0  0  0  0
  135.2587  120.6974  133.6559 C   0  0  0  0  0  0  0  0  0  0  0  0
  135.1190  119.4507  134.2172 C   0  0  0  0  0  0  0  0  0  0  0  0
  133.9167  119.0298  134.7787 C   0  0  0  0  0  0  0  0  0  0  0  0
  132.8153  119.8631  134.7884 C   0  0  0  0  0  0  0  0  0  0  0  0
  132.9528  121.1105  134.2275 C   0  0  0  0  0  0  0  0  0  0  0  0
  134.1488  121.5194  133.6732 C   0  0  0  0  0  0  0  0  0  0  0  0
  138.6499  123.9451  133.7338 C   0  0  0  0  0  0  0  0  0  0  0  0
  138.6854  122.4234  133.5216 C   0  0  0  0  0  0  0  0  0  0  0  0
  136.2554  121.9997  130.8793 C   0  0  0  0  0  0  0  0  0  0  0  0
  135.1853  121.8604  130.2341 O   0  0  0  0  0  0  0  0  0  0  0  0
  136.8600  123.2501  130.7645 O   0  0  0  0  0  0  0  0  0  0  0  0
  136.1722  124.4383  131.1265 C   0  0  0  0  0  0  0  0  0  0  0  0
  138.5270  118.8324  128.4391 C   0  0  0  0  0  0  0  0  0  0  0  0
  139.1999  119.7285  127.4466 C   0  0  0  0  0  0  0  0  0  0  0  0
  138.3726  119.9785  126.2396 C   0  0  0  0  0  0  0  0  0  0  0  0
  138.6363  119.3533  125.0347 C   0  0  0  0  0  0  0  0  0  0  0  0
  137.8879  119.5714  123.8983 C   0  0  0  0  0  0  0  0  0  0  0  0
  136.8419  120.4335  123.9409 C   0  0  0  0  0  0  0  0  0  0  0  0
  136.5274  121.0850  125.1028 C   0  0  0  0  0  0  0  0  0  0  0  0
  137.2948  120.8538  126.2465 C   0  0  0  0  0  0  0  0  0  0  0  0
 16 17  1  0  0  0
 17  7  1  0  0  0
  7  8  2  0  0  0
  7  9  1  0  0  0
  9 10  1  0  0  0
 10 11  2  0  0  0
 11 12  1  0  0  0
 12 13  2  0  0  0
 13 14  1  0  0  0
 14 15  2  0  0  0
  9  1  1  0  0  0
  1 18  1  0  0  0
 18 19  2  0  0  0
 18 20  1  0  0  0
 20 21  1  0  0  0
  1  2  1  0  0  0
  2  3  1  0  0  0
  3  4  1  0  0  0
  4 22  1  0  0  0
 22 23  1  0  0  0
 23 24  1  0  0  0
 24 25  2  0  0  0
 25 26  1  0  0  0
 26 27  2  0  0  0
 27 28  1  0  0  0
 28 29  2  0  0  0
  4  5  1  0  0  0
  5  6  1  0  0  0
 15 10  1  0  0  0
  6  1  1  0  0  0
 29 24  1  0  0  0
M  END
> <minimizedAffinity>
-8.79437

$$$$
XXX


 29 31  0  0  0  0  0  0  0  0999 V2000
  137.0106  121.5695  131.2922 C   0  0  0  0  0  0  0  0  0  0  0  0
  136.0476  120.6151  130.6600 C   0  0  0  0  0  0  0  0  0  0  0  0
  134.6037  120.8361  131.0858 C   0  0  0  0  0  0  0  0  0  0  0  0
  134.5508  121.0657  132.4913 N   0  0  0  0  0  0  0  0  0  0  0  0
  135.3277  122.1605  132.9791 C   0  0  0  0  0  0  0  0  0  0  0  0
  136.2424  122.7370  131.9242 C   0  0  0  0  0  0  0  0  0  0  0  0
  138.4898  123.3691  130.4525 C   0  0  0  0  0  0  0  0  0  0  0  0
  139.2061  123.7845  129.4677 O   0  0  0  0  0  0  0  0  0  0  0  0
  137.9428  122.0842  130.3330 N   0  0  0  0  0  0  0  0  0  0  0  0
  138.3235  121.2866  129.1778 C   0  0  0  0  0  0  0  0  0  0  0  0
  139.4500  120.4992  129.1754 C   0  0  0  0  0  0  0  0  0  0  0  0
  139.8071  119.7334  128.0691 C   0  0  0  0  0  0  0  0  0  0  0  0
  139.0301  119.7423  126.9272 C   0  0  0  0  0  0  0  0  0  0  0  0
  137.9030  120.5291  126.9275 C   0  0  0  0  0  0  0  0  0  0  0  0
  137.5567  121.2851  128.0290 C   0  0  0  0  0  0  0  0  0  0  0  0
  139.7026  124.7161  132.1389 C   0  0  0  0  0  0  0  0  0  0  0  0
  138.3403  124.2897  131.5694 C   0  0  0  0  0  0  0  0  0  0  0  0
  137.7677  120.8627  132.3551 C   0  0  0  0  0  0  0  0  0  0  0  0
  137.6126  119.6297  132.5461 O   0  0  0  0  0  0  0  0  0  0  0  0
  138.6824  121.4848  133.2028 O   0  0  0  0  0  0  0  0  0  0  0  0
  138.3096  121.9125  134.5043 C   0  0  0  0  0  0  0  0  0  0  0  0
  133.2258  120.9994  133.0610 C   0  0  0  0  0  0  0  0  0  0  0  0
  133.2265  120.5673  134.4942 C   0  0  0  0  0  0  0  0  0  0  0  0
  133.6799  119.1653  134.6750 C   0  0  0  0  0  0  0  0  0  0  0  0
  133.0042  118.2826  135.4976 C   0  0  0  0  0  0  0  0  0  0  0  0
  133.4064  116.9783  135.6873 C   0  0  0  0  0  0  0  0  0  0  0  0
  134.5112  116.5189  135.0488 C   0  0  0  0  0  0  0  0  0  0  0  0
  135.2253  117.3415  134.2202 C   0  0  0  0  0  0  0  0  0  0  0  0
  134.8055  118.6609  134.0376 C   0  0  0  0  0  0  0  0  0  0  0  0
 16 17  1  0  0  0
 17  7  1  0  0  0
  7  8  2  0  0  0
  7  9  1  0  0  0
  9 10  1  0  0  0
 10 11  2  0  0  0
 11 12  1  0  0  0
 12 13  2  0  0  0
 13 14  1  0  0  0
 14 15  2  0  0  0
  9  1  1  0  0  0
  1 18  1  0  0  0
 18 19  2  0  0  0
 18 20  1  0  0  0
 20 21  1  0  0  0
  1  2  1  0  0  0
  2  3  1  0  0  0
  3  4  1  0  0  0
  4 22  1  0  0  0
 22 23  1  0  0  0
 23 24  1  0  0  0
 24 25  2  0  0  0
 25 26  1  0  0  0
 26 27  2  0  0  0
 27 28  1  0  0  0
 28 29  2  0  0  0
  4  5  1  0  0  0
  5  6  1  0  0  0
 15 10  1  0  0  0
  6  1  1  0  0  0
 29 24  1  0  0  0
M  END
> <minimizedAffinity>
-8.39495

$$$$
XXX


 29 31  0  0  0  0  0  0  0  0999 V2000
  137.6698  126.4392  132.0423 C   0  0  0  0  0  0  0  0  0  0  0  0
  136.6589  125.6418  132.8041 C   0  0  0  0  0  0  0  0  0  0  0  0
  137.0243  124.1716  132.9451 C   0  0  0  0  0  0  0  0  0  0  0  0
  137.5191  123.6819  131.7017 N   0  0  0  0  0  0  0  0  0  0  0  0
  138.6489  124.3678  131.1605 C   0  0  0  0  0  0  0  0  0  0  0  0
  138.9709  125.6373  131.9133 C   0  0  0  0  0  0  0  0  0  0  0  0
  136.9272  128.5827  133.0353 C   0  0  0  0  0  0  0  0  0  0  0  0
  137.2952  129.7305  133.4855 O   0  0  0  0  0  0  0  0  0  0  0  0
  137.9484  127.6867  132.6906 N   0  0  0  0  0  0  0  0  0  0  0  0
  139.3204  128.0734  132.9804 C   0  0  0  0  0  0  0  0  0  0  0  0
  139.8930  127.8596  134.2113 C   0  0  0  0  0  0  0  0  0  0  0  0
  141.2083  128.2265  134.4820 C   0  0  0  0  0  0  0  0  0  0  0  0
  141.9862  128.8234  133.5093 C   0  0  0  0  0  0  0  0  0  0  0  0
  141.4155  129.0382  132.2774 C   0  0  0  0  0  0  0  0  0  0  0  0
  140.1106  128.6711  132.0180 C   0  0  0  0  0  0  0  0  0  0  0  0
  134.7860  128.6559  134.2757 C   0  0  0  0  0  0  0  0  0  0  0  0
  135.4922  128.3605  132.9430 C   0  0  0  0  0  0  0  0  0  0  0  0
  137.1431  126.7199  130.6834 C   0  0  0  0  0  0  0  0  0  0  0  0
  136.0147  126.2939  130.3285 O   0  0  0  0  0  0  0  0  0  0  0  0
  137.8317  127.4534  129.7191 O   0  0  0  0  0  0  0  0  0  0  0  0
  137.3103  128.6703  129.2059 C   0  0  0  0  0  0  0  0  0  0  0  0
  137.6246  122.2440  131.6219 C   0  0  0  0  0  0  0  0  0  0  0  0
  138.9902  121.7793  131.2218 C   0  0  0  0  0  0  0  0  0  0  0  0
  139.0045  121.0922  129.9060 C   0  0  0  0  0  0  0  0  0  0  0  0
  139.8110  119.9944  129.6673 C   0  0  0  0  0  0  0  0  0  0  0  0
  139.8475  119.3417  128.4543 C   0  0  0  0  0  0  0  0  0  0  0  0
  139.0662  119.7783  127.4353 C   0  0  0  0  0  0  0  0  0  0  0  0
  138.2448  120.8598  127.6059 C   0  0  0  0  0  0  0  0  0  0  0  0
  138.2183  121.5111  128.8410 C   0  0  0  0  0  0  0  0  0  0  0  0
 16 17  1  0  0  0
 17  7  1  0  0  0
  7  8  2  0  0  0
  7  9  1  0  0  0
  9 10  1  0  0  0
 10 11  2  0  0  0
 11 12  1  0  0  0
 12 13  2  0  0  0
 13 14  1  0  0  0
 14 15  2  0  0  0
  9  1  1  0  0  0
  1 18  1  0  0  0
 18 19  2  0  0  0
 18 20  1  0  0  0
 20 21  1  0  0  0
  1  2  1  0  0  0
  2  3  1  0  0  0
  3  4  1  0  0  0
  4 22  1  0  0  0
 22 23  1  0  0  0
 23 24  1  0  0  0
 24 25  2  0  0  0
 25 26  1  0  0  0
 26 27  2  0  0  0
 27 28  1  0  0  0
 28 29  2  0  0  0
  4  5  1  0  0  0
  5  6  1  0  0  0
 15 10  1  0  0  0
  6  1  1  0  0  0
 29 24  1  0  0  0
M  END
> <minimizedAffinity>
-8.34511

$$$$
XXX


 29 31  0  0  0  0  0  0  0  0999 V2000
  136.5461  120.8086  132.0636 C   0  0  0  0  0  0  0  0  0  0  0  0
  137.9937  120.4405  131.9790 C   0  0  0  0  0  0  0  0  0  0  0  0
  138.7159  121.0783  130.8015 C   0  0  0  0  0  0  0  0  0  0  0  0
  137.8969  120.9956  129.6382 N   0  0  0  0  0  0  0  0  0  0  0  0
  136.6024  121.5908  129.7372 C   0  0  0  0  0  0  0  0  0  0  0  0
  136.2627  122.0069  131.1491 C   0  0  0  0  0  0  0  0  0  0  0  0
  137.0210  121.8600  134.2546 C   0  0  0  0  0  0  0  0  0  0  0  0
  136.6443  121.9847  135.4786 O   0  0  0  0  0  0  0  0  0  0  0  0
  136.1685  121.1413  133.4055 N   0  0  0  0  0  0  0  0  0  0  0  0
  134.8865  120.7057  133.9370 C   0  0  0  0  0  0  0  0  0  0  0  0
  133.7611  121.4909  133.8597 C   0  0  0  0  0  0  0  0  0  0  0  0
  132.5351  121.0672  134.3650 C   0  0  0  0  0  0  0  0  0  0  0  0
  132.4121  119.8299  134.9662 C   0  0  0  0  0  0  0  0  0  0  0  0
  133.5363  119.0429  135.0446 C   0  0  0  0  0  0  0  0  0  0  0  0
  134.7478  119.4712  134.5408 C   0  0  0  0  0  0  0  0  0  0  0  0
  138.1634  124.0150  133.8307 C   0  0  0  0  0  0  0  0  0  0  0  0
  138.2882  122.4851  133.9072 C   0  0  0  0  0  0  0  0  0  0  0  0
  135.7252  119.6571  131.6131 C   0  0  0  0  0  0  0  0  0  0  0  0
  134.5575  119.8282  131.1794 O   0  0  0  0  0  0  0  0  0  0  0  0
  136.1639  118.3345  131.6331 O   0  0  0  0  0  0  0  0  0  0  0  0
  136.6109  117.6875  130.4509 C   0  0  0  0  0  0  0  0  0  0  0  0
  138.5781  121.2985  128.4016 C   0  0  0  0  0  0  0  0  0  0  0  0
  138.8446  120.0839  127.5682 C   0  0  0  0  0  0  0  0  0  0  0  0
  138.1969  120.1449  126.2339 C   0  0  0  0  0  0  0  0  0  0  0  0
  138.6549  119.3923  125.1679 C   0  0  0  0  0  0  0  0  0  0  0  0
  138.0757  119.4341  123.9181 C   0  0  0  0  0  0  0  0  0  0  0  0
  137.0083  120.2422  123.7017 C   0  0  0  0  0  0  0  0  0  0  0  0
  136.5057  121.0130  124.7148 C   0  0  0  0  0  0  0  0  0  0  0  0
  137.1029  120.9601  125.9761 C   0  0  0  0  0  0  0  0  0  0  0  0
 16 17  1  0  0  0
 17  7  1  0  0  0
  7  8  2  0  0  0
  7  9  1  0  0  0
  9 10  1  0  0  0
 10 11  2  0  0  0
 11 12  1  0  0  0
 12 13  2  0  0  0
 13 14  1  0  0  0
 14 15  2  0  0  0
  9  1  1  0  0  0
  1 18  1  0  0  0
 18 19  2  0  0  0
 18 20  1  0  0  0
 20 21  1  0  0  0
  1  2  1  0  0  0
  2  3  1  0  0  0
  3  4  1  0  0  0
  4 22  1  0  0  0
 22 23  1  0  0  0
 23 24  1  0  0  0
 24 25  2  0  0  0
 25 26  1  0  0  0
 26 27  2  0  0  0
 27 28  1  0  0  0
 28 29  2  0  0  0
  4  5  1  0  0  0
  5  6  1  0  0  0
 15 10  1  0  0  0
  6  1  1  0  0  0
 29 24  1  0  0  0
M  END
> <minimizedAffinity>
-8.05519

$$$$
