#       Name:                CT1002167954
#       Creating user name   hitesit
#       Creation time:       Sun Apr 16 20:16:46 2023


#       File generated by GOLD software.
#

@<TRIPOS>MOLECULE
CT1002167954|ligand_prepared|mol2|1|dock7
    29    30     1
SMALL
NO_CHARGES


@<TRIPOS>ATOM
      1 C1         123.4604 245.3447 356.0412 C.3            1 RES1               0.0000
      2 C2         122.2899 245.6221 357.0065 C.ar           1 RES1               0.0000
      3 C3         124.6905 246.0031 356.6589 C.2            1 RES1               0.0000
      4 C4         123.5620 243.8284 355.9184 C.2            1 RES1               0.0000
      5 C5         123.2521 245.9259 354.6233 C.3            1 RES1               0.0000
      6 C6         121.0382 245.9833 356.5172 C.ar           1 RES1               0.0000
      7 C7         122.4456 245.5185 358.3862 C.ar           1 RES1               0.0000
      8 N8         125.6258 245.1883 357.2256 N.am           1 RES1               0.0000
      9 O9         124.8189 247.2210 356.6836 O.2            1 RES1               0.0000
     10 N10        124.6876 243.2186 356.4072 N.am           1 RES1               0.0000
     11 O11        122.6700 243.1545 355.4179 O.2            1 RES1               0.0000
     12 C12        124.4607 245.7715 353.7137 C.3            1 RES1               0.0000
     13 C13        119.9796 246.2290 357.3758 C.ar           1 RES1               0.0000
     14 C14        121.3857 245.7649 359.2432 C.ar           1 RES1               0.0000
     15 C15        125.7103 243.8266 357.0828 C.2            1 RES1               0.0000
     16 C16        120.1524 246.1196 358.7392 C.ar           1 RES1               0.0000
     17 O17        126.6635 243.2025 357.5402 O.2            1 RES1               0.0000
     18 H18        122.3941 245.4245 354.1587 H              1 RES1               0.0000
     19 H19        123.0101 246.9923 354.7109 H              1 RES1               0.0000
     20 H20        120.8839 246.0767 355.4474 H              1 RES1               0.0000
     21 H21        123.4071 245.2419 358.8052 H              1 RES1               0.0000
     22 H22        126.3272 245.6324 357.8096 H              1 RES1               0.0000
     23 H23        124.7708 242.2188 356.2529 H              1 RES1               0.0000
     24 H24        124.2613 246.1957 352.7319 H              1 RES1               0.0000
     25 H25        125.3265 246.2799 354.1329 H              1 RES1               0.0000
     26 H26        124.7142 244.7213 353.5840 H              1 RES1               0.0000
     27 H27        119.0114 246.5092 356.9742 H              1 RES1               0.0000
     28 H28        121.5264 245.6782 360.3155 H              1 RES1               0.0000
     29 H29        119.3229 246.3119 359.4116 H              1 RES1               0.0000
@<TRIPOS>BOND
    1    1    2 1     
    2    1    3 1     
    3    1    4 1     
    4    1    5 1     
    5    2    6 ar    
    6    2    7 ar    
    7    3    8 1     
    8    3    9 2     
    9    4   10 1     
   10    4   11 2     
   11    5   12 1     
   12    5   18 1     
   13    5   19 1     
   14    6   13 ar    
   15    6   20 1     
   16    7   14 ar    
   17    7   21 1     
   18    8   15 1     
   19    8   22 1     
   20   10   15 1     
   21   10   23 1     
   22   12   24 1     
   23   12   25 1     
   24   12   26 1     
   25   13   16 ar    
   26   13   27 1     
   27   14   16 ar    
   28   14   28 1     
   29   15   17 2     
   30   16   29 1     
@<TRIPOS>SUBSTRUCTURE
      1 RES1           1
@<TRIPOS>SET
DONOR_HYDROGENS      STATIC     ATOMS    <user>   **** ""
2 22 23
ATOM$RED        STATIC     ATOMS    COLORGROUP SYSTEM
2 22 23
@<TRIPOS>COMMENT
> <Gold.Version>
2022.3.0

> <Gold.Id.Protein>
unknown|4uh5_clean|pdb

> <Gold.Protein.RotatedTorsions>
[ 9141 9120 9119 9117 ] final   22.92 input   60.01 | X-H torsion
[ 9040 9030 9029 9026 ] final  111.49 input   59.99 | X-H torsion
[ 8396 8366 8365 8363 ] final   13.36 input   60.01 | X-H torsion

> <Gold.Protein.ActiveResidues>
 MET341  TRP414  CYS420  VAL421  GLY422  LEU429  LEU460  SER462  ALA463  ILE464 
 SER482  GLN483  LEU484  ILE485  ARG486  TYR487  ASP500  ALA502  ASN503  TRP566 
 TYR567  LEU569  PRO570  ALA571  VAL572  SER573  ASN574  PRO588  PHE589  SER590 
 GLY591  TRP592  TYR593  MET594  GLY595  THR596  GLU597  ILE598  ARG601  ASP602 
 ASP605  ARG608  ILE653  VAL654  TRP683  PRO687  SER691  PHE696  HIS697  TYR711 
 HEM750  H4B760 

> <Gold.Protein.RotatedAtoms>
  125.3028  242.9729  360.1855 H   0  0  0  0  0  0  0  0  0  0  0  0  # atno 8396 bound_to 8366
  115.5184  244.2066  366.4926 H   0  0  0  0  0  0  0  0  0  0  0  0  # atno 9040 bound_to 9030
  122.8767  242.2274  358.4662 H   0  0  0  0  0  0  0  0  0  0  0  0  # atno 9141 bound_to 9120
  123.6824  240.8207  358.6073 LP  0  0  0  0  0  0  0  0  0  0  0  0  # atno 13532 bound_to 9120
  123.0145  241.5181  359.9242 LP  0  0  0  0  0  0  0  0  0  0  0  0  # atno 13533 bound_to 9120
  114.8355  245.6544  366.2002 LP  0  0  0  0  0  0  0  0  0  0  0  0  # atno 13546 bound_to 9030
  115.9694  245.5037  367.3656 LP  0  0  0  0  0  0  0  0  0  0  0  0  # atno 13547 bound_to 9030
  126.2149  241.9419  359.3181 LP  0  0  0  0  0  0  0  0  0  0  0  0  # atno 13558 bound_to 8366
  126.8890  242.8237  360.5159 LP  0  0  0  0  0  0  0  0  0  0  0  0  # atno 13559 bound_to 8366

> <Gold.Score>
     Fitness  S(hb_ext) S(vdw_ext)  S(hb_int)    S(int)      intcor
     35.17       4.42      23.11       0.00      -1.02      -0.76

> <Gold.Goldscore.Fitness>
35.1742

> <Gold.Goldscore.Internal.Vdw>
-1.3576

> <Gold.Goldscore.Internal.Torsion>
-0.4222

> <Gold.Goldscore.External.Vdw>
23.1113

> <Gold.Goldscore.Internal.HBond>
0.0000

> <Gold.Goldscore.External.HBond>
4.4164

> <Gold.Goldscore.Internal.Correction>
-0.7595

> <Gold.Goldscore.Hbonds>
donor molecule, donor type, donor heavy atom, donor atom, acceptor molecule, acceptor atom, score
      P1  H  9561  9595       L1    17  0.04
      L1  H    10    23       P1  9396  0.70

> <Gold.Goldscore.Internal.Vdw.Weighted>
-1.3576

> <Gold.Goldscore.Internal.Torsion.Weighted>
-0.4222

> <Gold.Goldscore.External.Vdw.Weighted>
31.7780

> <Gold.Goldscore.Internal.HBond.Weighted>
0.0000

> <Gold.Goldscore.External.HBond.Weighted>
4.4164

> <Gold.Goldscore.Internal.Correction.Weighted>
-0.7595

> <Gold.Rescore>
     Score     S(PLP)   S(hbond)     S(cho)   S(metal)  DE(clash)   DE(tors)     intcor
     29.38     -28.26       0.69       0.00       0.00       0.00       0.47       ----

> <Gold.PLP.Fitness>
29.3793

> <Gold.PLP.PLP>
-28.2602

> <Gold.PLP.part.hbond>
-5.5962

> <Gold.PLP.part.metal>
0.0000

> <Gold.PLP.part.buried>
3.6868

> <Gold.PLP.part.nonpolar>
-28.4413

> <Gold.PLP.part.repulsive>
0.7683

> <Gold.PLP.ligand.clash>
0.0000

> <Gold.PLP.ligand.torsion>
0.4724

> <Gold.PLP.Chemscore.Hbond>
0.6880

> <Gold.PLP.Chemscore.CHOScore>
0.0000

> <Gold.PLP.Chemscore.Metal>
0.0000

> <Gold.Chemscore.Hbonds>
donor molecule, donor type, donor heavy atom, donor atom, acceptor molecule, acceptor atom, score
      L1  H    10    23       P1  9396  0.60
      P1  H  9561  9595       L1    17  0.11

> <Gold.PLP.Chemscore.Internal.Correction>
   9.000000E+99

