#       Name:                CT1002167954
#       Creating user name   hitesit
#       Creation time:       Sun Apr 16 20:16:43 2023


#       File generated by GOLD software.
#

@<TRIPOS>MOLECULE
CT1002167954|ligand_prepared|mol2|1|dock3
    29    30     1
SMALL
NO_CHARGES


@<TRIPOS>ATOM
      1 C1         123.4066 244.5491 356.1198 C.3            1 RES1               0.0000
      2 C2         122.5395 244.9062 357.3443 C.ar           1 RES1               0.0000
      3 C3         124.0691 245.8481 355.6704 C.2            1 RES1               0.0000
      4 C4         124.3876 243.4803 356.5889 C.2            1 RES1               0.0000
      5 C5         122.6025 243.9712 354.9319 C.3            1 RES1               0.0000
      6 C6         121.2380 245.3708 357.1797 C.ar           1 RES1               0.0000
      7 C7         123.0254 244.7741 358.6424 C.ar           1 RES1               0.0000
      8 N8         125.3980 246.0038 355.9341 N.am           1 RES1               0.0000
      9 O9         123.4265 246.7388 355.1281 O.2            1 RES1               0.0000
     10 N10        125.7205 243.7976 356.6114 N.am           1 RES1               0.0000
     11 O11        124.0169 242.3718 356.9550 O.2            1 RES1               0.0000
     12 C12        123.4701 243.3498 353.8487 C.3            1 RES1               0.0000
     13 C13        120.4498 245.6889 358.2732 C.ar           1 RES1               0.0000
     14 C14        122.2355 245.0931 359.7345 C.ar           1 RES1               0.0000
     15 C15        126.2672 245.0210 356.3345 C.2            1 RES1               0.0000
     16 C16        120.9477 245.5499 359.5512 C.ar           1 RES1               0.0000
     17 O17        127.4707 245.2440 356.4298 O.2            1 RES1               0.0000
     18 H18        121.9111 243.2087 355.3113 H              1 RES1               0.0000
     19 H19        122.0036 244.7751 354.4866 H              1 RES1               0.0000
     20 H20        120.8299 245.4889 356.1815 H              1 RES1               0.0000
     21 H21        124.0360 244.4176 358.8105 H              1 RES1               0.0000
     22 H22        125.7809 246.9373 355.8235 H              1 RES1               0.0000
     23 H23        126.3648 243.0528 356.8573 H              1 RES1               0.0000
     24 H24        122.8564 242.9599 353.0394 H              1 RES1               0.0000
     25 H25        124.1530 244.0868 353.4314 H              1 RES1               0.0000
     26 H26        124.0611 242.5296 354.2512 H              1 RES1               0.0000
     27 H27        119.4374 246.0493 358.1235 H              1 RES1               0.0000
     28 H28        122.6318 244.9827 360.7385 H              1 RES1               0.0000
     29 H29        120.3299 245.7988 360.4077 H              1 RES1               0.0000
@<TRIPOS>BOND
    1    1    2 1     
    2    1    3 1     
    3    1    4 1     
    4    1    5 1     
    5    2    6 ar    
    6    2    7 ar    
    7    3    8 1     
    8    3    9 2     
    9    4   10 1     
   10    4   11 2     
   11    5   12 1     
   12    5   18 1     
   13    5   19 1     
   14    6   13 ar    
   15    6   20 1     
   16    7   14 ar    
   17    7   21 1     
   18    8   15 1     
   19    8   22 1     
   20   10   15 1     
   21   10   23 1     
   22   12   24 1     
   23   12   25 1     
   24   12   26 1     
   25   13   16 ar    
   26   13   27 1     
   27   14   16 ar    
   28   14   28 1     
   29   15   17 2     
   30   16   29 1     
@<TRIPOS>SUBSTRUCTURE
      1 RES1           1
@<TRIPOS>SET
DONOR_HYDROGENS      STATIC     ATOMS    <user>   **** ""
2 22 23
ATOM$RED        STATIC     ATOMS    COLORGROUP SYSTEM
2 22 23
@<TRIPOS>COMMENT
> <Gold.Version>
2022.3.0

> <Gold.Id.Protein>
unknown|4uh5_clean|pdb

> <Gold.Protein.RotatedTorsions>
[ 9141 9120 9119 9117 ] final  -12.43 input   60.01 | X-H torsion
[ 9040 9030 9029 9026 ] final   84.15 input   59.99 | X-H torsion
[ 8396 8366 8365 8363 ] final  -65.10 input   60.01 | X-H torsion

> <Gold.Protein.ActiveResidues>
 MET341  TRP414  CYS420  VAL421  GLY422  LEU429  LEU460  SER462  ALA463  ILE464 
 SER482  GLN483  LEU484  ILE485  ARG486  TYR487  ASP500  ALA502  ASN503  TRP566 
 TYR567  LEU569  PRO570  ALA571  VAL572  SER573  ASN574  PRO588  PHE589  SER590 
 GLY591  TRP592  TYR593  MET594  GLY595  THR596  GLU597  ILE598  ARG601  ASP602 
 ASP605  ARG608  ILE653  VAL654  TRP683  PRO687  SER691  PHE696  HIS697  TYR711 
 HEM750  H4B760 

> <Gold.Protein.RotatedAtoms>
  125.5885  242.1629  359.3709 H   0  0  0  0  0  0  0  0  0  0  0  0  # atno 8396 bound_to 8366
  115.2113  244.3483  366.2071 H   0  0  0  0  0  0  0  0  0  0  0  0  # atno 9040 bound_to 9030
  123.1558  241.8663  358.1274 H   0  0  0  0  0  0  0  0  0  0  0  0  # atno 9141 bound_to 9120
  123.6380  240.7114  359.1674 LP  0  0  0  0  0  0  0  0  0  0  0  0  # atno 13532 bound_to 9120
  122.7778  241.9911  359.7052 LP  0  0  0  0  0  0  0  0  0  0  0  0  # atno 13533 bound_to 9120
  115.0231  245.9405  366.4859 LP  0  0  0  0  0  0  0  0  0  0  0  0  # atno 13546 bound_to 9030
  116.0909  245.0749  367.3674 LP  0  0  0  0  0  0  0  0  0  0  0  0  # atno 13547 bound_to 9030
  127.0503  242.3662  360.0557 LP  0  0  0  0  0  0  0  0  0  0  0  0  # atno 13558 bound_to 8366
  125.7657  243.2154  360.5990 LP  0  0  0  0  0  0  0  0  0  0  0  0  # atno 13559 bound_to 8366

> <Gold.Score>
     Fitness  S(hb_ext) S(vdw_ext)  S(hb_int)    S(int)      intcor
     39.20       0.94      28.35       0.00      -0.72      -0.76

> <Gold.Goldscore.Fitness>
39.2028

> <Gold.Goldscore.Internal.Vdw>
-0.8879

> <Gold.Goldscore.Internal.Torsion>
-0.5950

> <Gold.Goldscore.External.Vdw>
28.3512

> <Gold.Goldscore.Internal.HBond>
0.0000

> <Gold.Goldscore.External.HBond>
0.9433

> <Gold.Goldscore.Internal.Correction>
-0.7595

> <Gold.Goldscore.Hbonds>
donor molecule, donor type, donor heavy atom, donor atom, acceptor molecule, acceptor atom, score
      P1  H  9120  9141       L1    11  0.40
      P1  H  8366  8396       L1    11  0.08

> <Gold.Goldscore.Internal.Vdw.Weighted>
-0.8879

> <Gold.Goldscore.Internal.Torsion.Weighted>
-0.5950

> <Gold.Goldscore.External.Vdw.Weighted>
38.9829

> <Gold.Goldscore.Internal.HBond.Weighted>
0.0000

> <Gold.Goldscore.External.HBond.Weighted>
0.9433

> <Gold.Goldscore.Internal.Correction.Weighted>
-0.7595

> <Gold.Rescore>
     Score     S(PLP)   S(hbond)     S(cho)   S(metal)  DE(clash)   DE(tors)     intcor
     30.28     -28.98       0.99       0.00       0.00       0.01       0.83       ----

> <Gold.PLP.Fitness>
30.2775

> <Gold.PLP.PLP>
-28.9809

> <Gold.PLP.part.hbond>
-4.3725

> <Gold.PLP.part.metal>
0.0000

> <Gold.PLP.part.buried>
-1.4885

> <Gold.PLP.part.nonpolar>
-30.2296

> <Gold.PLP.part.repulsive>
5.3626

> <Gold.PLP.ligand.clash>
0.0136

> <Gold.PLP.ligand.torsion>
0.8318

> <Gold.PLP.Chemscore.Hbond>
0.9913

> <Gold.PLP.Chemscore.CHOScore>
0.0000

> <Gold.PLP.Chemscore.Metal>
0.0000

> <Gold.Chemscore.Hbonds>
donor molecule, donor type, donor heavy atom, donor atom, acceptor molecule, acceptor atom, score
      L1  H    10    23       P1  9395  0.02
      P1  H  9120  9141       L1    11  0.84

> <Gold.PLP.Chemscore.Internal.Correction>
   9.000000E+99

