#       Name:                CT1002167954
#       Creating user name   hitesit
#       Creation time:       Sun Apr 16 20:16:44 2023


#       File generated by GOLD software.
#

@<TRIPOS>MOLECULE
CT1002167954|ligand_prepared|mol2|1|dock5
    29    30     1
SMALL
NO_CHARGES


@<TRIPOS>ATOM
      1 C1         124.3774 245.2653 355.6287 C.3            1 RES1               0.0000
      2 C2         124.9833 245.2906 354.2105 C.ar           1 RES1               0.0000
      3 C3         124.2759 246.7202 356.0772 C.2            1 RES1               0.0000
      4 C4         123.0328 244.5570 355.5055 C.2            1 RES1               0.0000
      5 C5         125.2321 244.4919 356.6596 C.3            1 RES1               0.0000
      6 C6         126.3388 245.5443 354.0235 C.ar           1 RES1               0.0000
      7 C7         124.2013 245.0598 353.0819 C.ar           1 RES1               0.0000
      8 N8         123.0364 247.2883 356.1034 N.am           1 RES1               0.0000
      9 O9         125.2727 247.3709 356.3657 O.2            1 RES1               0.0000
     10 N10        121.8984 245.2860 355.7495 N.am           1 RES1               0.0000
     11 O11        122.9447 243.3786 355.1833 O.2            1 RES1               0.0000
     12 C12        124.5507 244.3082 358.0065 C.3            1 RES1               0.0000
     13 C13        126.8931 245.5637 352.7544 C.ar           1 RES1               0.0000
     14 C14        124.7577 245.0799 351.8136 C.ar           1 RES1               0.0000
     15 C15        121.8379 246.6273 356.0128 C.2            1 RES1               0.0000
     16 C16        126.1032 245.3311 351.6488 C.ar           1 RES1               0.0000
     17 O17        120.7757 247.2234 356.1670 O.2            1 RES1               0.0000
     18 H18        125.4733 243.5040 356.2482 H              1 RES1               0.0000
     19 H19        126.1753 245.0310 356.8118 H              1 RES1               0.0000
     20 H20        126.9756 245.7320 354.8816 H              1 RES1               0.0000
     21 H21        123.1402 244.8611 353.1875 H              1 RES1               0.0000
     22 H22        122.9970 248.2981 356.1991 H              1 RES1               0.0000
     23 H23        121.0175 244.7820 355.7334 H              1 RES1               0.0000
     24 H24        125.1931 243.7598 358.6922 H              1 RES1               0.0000
     25 H25        124.3191 245.2714 358.4562 H              1 RES1               0.0000
     26 H26        123.6212 243.7534 357.8960 H              1 RES1               0.0000
     27 H27        127.9523 245.7632 352.6300 H              1 RES1               0.0000
     28 H28        124.1321 244.8969 350.9462 H              1 RES1               0.0000
     29 H29        126.5378 245.3460 350.6547 H              1 RES1               0.0000
@<TRIPOS>BOND
    1    1    2 1     
    2    1    3 1     
    3    1    4 1     
    4    1    5 1     
    5    2    6 ar    
    6    2    7 ar    
    7    3    8 1     
    8    3    9 2     
    9    4   10 1     
   10    4   11 2     
   11    5   12 1     
   12    5   18 1     
   13    5   19 1     
   14    6   13 ar    
   15    6   20 1     
   16    7   14 ar    
   17    7   21 1     
   18    8   15 1     
   19    8   22 1     
   20   10   15 1     
   21   10   23 1     
   22   12   24 1     
   23   12   25 1     
   24   12   26 1     
   25   13   16 ar    
   26   13   27 1     
   27   14   16 ar    
   28   14   28 1     
   29   15   17 2     
   30   16   29 1     
@<TRIPOS>SUBSTRUCTURE
      1 RES1           1
@<TRIPOS>SET
DONOR_HYDROGENS      STATIC     ATOMS    <user>   **** ""
2 22 23
ATOM$RED        STATIC     ATOMS    COLORGROUP SYSTEM
2 22 23
@<TRIPOS>COMMENT
> <Gold.Version>
2022.3.0

> <Gold.Id.Protein>
unknown|4uh5_clean|pdb

> <Gold.Protein.RotatedTorsions>
[ 9141 9120 9119 9117 ] final  -44.61 input   60.01 | X-H torsion
[ 9040 9030 9029 9026 ] final  152.18 input   59.99 | X-H torsion
[ 8396 8366 8365 8363 ] final   75.17 input   60.01 | X-H torsion

> <Gold.Protein.ActiveResidues>
 MET341  TRP414  CYS420  VAL421  GLY422  LEU429  LEU460  SER462  ALA463  ILE464 
 SER482  GLN483  LEU484  ILE485  ARG486  TYR487  ASP500  ALA502  ASN503  TRP566 
 TYR567  LEU569  PRO570  ALA571  VAL572  SER573  ASN574  PRO588  PHE589  SER590 
 GLY591  TRP592  TYR593  MET594  GLY595  THR596  GLU597  ILE598  ARG601  ASP602 
 ASP605  ARG608  ILE653  VAL654  TRP683  PRO687  SER691  PHE696  HIS697  TYR711 
 HEM750  H4B760 

> <Gold.Protein.RotatedAtoms>
  126.0815  243.2107  360.6969 H   0  0  0  0  0  0  0  0  0  0  0  0  # atno 8396 bound_to 8366
  115.9239  244.3710  366.9746 H   0  0  0  0  0  0  0  0  0  0  0  0  # atno 9040 bound_to 9030
  123.4235  241.4229  358.0969 H   0  0  0  0  0  0  0  0  0  0  0  0  # atno 9141 bound_to 9120
  123.4526  240.8736  359.6284 LP  0  0  0  0  0  0  0  0  0  0  0  0  # atno 13532 bound_to 9120
  122.6936  242.2756  359.2750 LP  0  0  0  0  0  0  0  0  0  0  0  0  # atno 13533 bound_to 9120
  114.8114  245.0342  365.9894 LP  0  0  0  0  0  0  0  0  0  0  0  0  # atno 13546 bound_to 9030
  115.5851  245.9584  367.0912 LP  0  0  0  0  0  0  0  0  0  0  0  0  # atno 13547 bound_to 9030
  125.3620  242.3573  359.5131 LP  0  0  0  0  0  0  0  0  0  0  0  0  # atno 13558 bound_to 8366
  126.9574  242.1687  359.8057 LP  0  0  0  0  0  0  0  0  0  0  0  0  # atno 13559 bound_to 8366

> <Gold.Score>
     Fitness  S(hb_ext) S(vdw_ext)  S(hb_int)    S(int)      intcor
     35.48       5.16      22.97       0.00      -1.26      -0.76

> <Gold.Goldscore.Fitness>
35.4841

> <Gold.Goldscore.Internal.Vdw>
-1.5621

> <Gold.Goldscore.Internal.Torsion>
-0.4575

> <Gold.Goldscore.External.Vdw>
22.9667

> <Gold.Goldscore.Internal.HBond>
0.0000

> <Gold.Goldscore.External.HBond>
5.1649

> <Gold.Goldscore.Internal.Correction>
-0.7595

> <Gold.Goldscore.Hbonds>
donor molecule, donor type, donor heavy atom, donor atom, acceptor molecule, acceptor atom, score
      L1  H    10    23       P1  9234  0.86

> <Gold.Goldscore.Internal.Vdw.Weighted>
-1.5621

> <Gold.Goldscore.Internal.Torsion.Weighted>
-0.4575

> <Gold.Goldscore.External.Vdw.Weighted>
31.5793

> <Gold.Goldscore.Internal.HBond.Weighted>
0.0000

> <Gold.Goldscore.External.HBond.Weighted>
5.1649

> <Gold.Goldscore.Internal.Correction.Weighted>
-0.7595

> <Gold.Rescore>
     Score     S(PLP)   S(hbond)     S(cho)   S(metal)  DE(clash)   DE(tors)     intcor
     29.67     -30.35       0.33       0.00       0.00       0.88       0.39       ----

> <Gold.PLP.Fitness>
29.6715

> <Gold.PLP.PLP>
-30.3529

> <Gold.PLP.part.hbond>
-2.7569

> <Gold.PLP.part.metal>
0.0000

> <Gold.PLP.part.buried>
-6.4533

> <Gold.PLP.part.nonpolar>
-22.3941

> <Gold.PLP.part.repulsive>
0.5557

> <Gold.PLP.ligand.clash>
0.8821

> <Gold.PLP.ligand.torsion>
0.3910

> <Gold.PLP.Chemscore.Hbond>
0.3276

> <Gold.PLP.Chemscore.CHOScore>
0.0000

> <Gold.PLP.Chemscore.Metal>
0.0000

> <Gold.Chemscore.Hbonds>
donor molecule, donor type, donor heavy atom, donor atom, acceptor molecule, acceptor atom, score
      L1  H    10    23       P1  9234  1.00

> <Gold.PLP.Chemscore.Internal.Correction>
   9.000000E+99

