#       Name:                CT1002167954
#       Creating user name   hitesit
#       Creation time:       Sun Apr 16 20:16:40 2023


#       File generated by GOLD software.
#

@<TRIPOS>MOLECULE
CT1002167954|ligand_prepared|mol2|1|dock1
    29    30     1
SMALL
NO_CHARGES


@<TRIPOS>ATOM
      1 C1         124.0558 244.9117 356.2137 C.3            1 RES1               0.0000
      2 C2         122.7694 245.2210 357.0062 C.ar           1 RES1               0.0000
      3 C3         123.9181 243.4755 355.7169 C.2            1 RES1               0.0000
      4 C4         124.1311 245.9506 355.1003 C.2            1 RES1               0.0000
      5 C5         125.3490 245.0186 357.0551 C.3            1 RES1               0.0000
      6 C6         121.5768 245.4940 356.3429 C.ar           1 RES1               0.0000
      7 C7         122.7590 245.2344 358.3985 C.ar           1 RES1               0.0000
      8 N8         123.6579 243.2877 354.3914 N.am           1 RES1               0.0000
      9 O9         123.9975 242.5238 356.4838 O.2            1 RES1               0.0000
     10 N10        124.0178 245.5143 353.8062 N.am           1 RES1               0.0000
     11 O11        124.2709 247.1451 355.3326 O.2            1 RES1               0.0000
     12 C12        126.6247 244.9418 356.2311 C.3            1 RES1               0.0000
     13 C13        120.4152 245.7675 357.0458 C.ar           1 RES1               0.0000
     14 C14        121.5962 245.5084 359.0995 C.ar           1 RES1               0.0000
     15 C15        123.7539 244.2337 353.4028 C.2            1 RES1               0.0000
     16 C16        120.4240 245.7745 358.4244 C.ar           1 RES1               0.0000
     17 O17        123.6117 243.9287 352.2221 O.2            1 RES1               0.0000
     18 H18        125.3377 245.9702 357.6006 H              1 RES1               0.0000
     19 H19        125.3570 244.2083 357.7946 H              1 RES1               0.0000
     20 H20        121.5512 245.4954 355.2583 H              1 RES1               0.0000
     21 H21        123.6698 245.0290 358.9506 H              1 RES1               0.0000
     22 H22        123.3646 242.3578 354.1092 H              1 RES1               0.0000
     23 H23        124.1419 246.2084 353.0760 H              1 RES1               0.0000
     24 H24        127.5018 245.0217 356.8699 H              1 RES1               0.0000
     25 H25        126.6811 243.9969 355.6947 H              1 RES1               0.0000
     26 H26        126.6619 245.7484 355.5018 H              1 RES1               0.0000
     27 H27        119.4955 245.9776 356.5098 H              1 RES1               0.0000
     28 H28        121.6079 245.5134 360.1844 H              1 RES1               0.0000
     29 H29        119.5138 245.9884 358.9749 H              1 RES1               0.0000
@<TRIPOS>BOND
    1    1    2 1     
    2    1    3 1     
    3    1    4 1     
    4    1    5 1     
    5    2    6 ar    
    6    2    7 ar    
    7    3    8 1     
    8    3    9 2     
    9    4   10 1     
   10    4   11 2     
   11    5   12 1     
   12    5   18 1     
   13    5   19 1     
   14    6   13 ar    
   15    6   20 1     
   16    7   14 ar    
   17    7   21 1     
   18    8   15 1     
   19    8   22 1     
   20   10   15 1     
   21   10   23 1     
   22   12   24 1     
   23   12   25 1     
   24   12   26 1     
   25   13   16 ar    
   26   13   27 1     
   27   14   16 ar    
   28   14   28 1     
   29   15   17 2     
   30   16   29 1     
@<TRIPOS>SUBSTRUCTURE
      1 RES1           1
@<TRIPOS>SET
DONOR_HYDROGENS      STATIC     ATOMS    <user>   **** ""
2 22 23
ATOM$RED        STATIC     ATOMS    COLORGROUP SYSTEM
2 22 23
@<TRIPOS>COMMENT
> <Gold.Version>
2022.3.0

> <Gold.Id.Protein>
unknown|4uh5_clean|pdb

> <Gold.Protein.RotatedTorsions>
[ 9141 9120 9119 9117 ] final  -13.65 input   60.01 | X-H torsion
[ 9040 9030 9029 9026 ] final   68.91 input   59.99 | X-H torsion
[ 8396 8366 8365 8363 ] final  -23.01 input   60.01 | X-H torsion

> <Gold.Protein.ActiveResidues>
 MET341  TRP414  CYS420  VAL421  GLY422  LEU429  LEU460  SER462  ALA463  ILE464 
 SER482  GLN483  LEU484  ILE485  ARG486  TYR487  ASP500  ALA502  ASN503  TRP566 
 TYR567  LEU569  PRO570  ALA571  VAL572  SER573  ASN574  PRO588  PHE589  SER590 
 GLY591  TRP592  TYR593  MET594  GLY595  THR596  GLU597  ILE598  ARG601  ASP602 
 ASP605  ARG608  ILE653  VAL654  TRP683  PRO687  SER691  PHE696  HIS697  TYR711 
 HEM750  H4B760 

> <Gold.Protein.RotatedAtoms>
  125.2354  242.5965  359.7439 H   0  0  0  0  0  0  0  0  0  0  0  0  # atno 8396 bound_to 8366
  115.0585  244.5059  366.0910 H   0  0  0  0  0  0  0  0  0  0  0  0  # atno 9040 bound_to 9030
  123.1663  241.8505  358.1210 H   0  0  0  0  0  0  0  0  0  0  0  0  # atno 9141 bound_to 9120
  123.6332  240.7131  359.1870 LP  0  0  0  0  0  0  0  0  0  0  0  0  # atno 13532 bound_to 9120
  122.7720  242.0053  359.6921 LP  0  0  0  0  0  0  0  0  0  0  0  0  # atno 13533 bound_to 9120
  115.1718  246.0228  366.6692 LP  0  0  0  0  0  0  0  0  0  0  0  0  # atno 13546 bound_to 9030
  116.0961  244.8340  367.3009 LP  0  0  0  0  0  0  0  0  0  0  0  0  # atno 13547 bound_to 9030
  126.7440  242.0138  359.5654 LP  0  0  0  0  0  0  0  0  0  0  0  0  # atno 13558 bound_to 8366
  126.4276  243.1310  360.7136 LP  0  0  0  0  0  0  0  0  0  0  0  0  # atno 13559 bound_to 8366

> <Gold.Score>
     Fitness  S(hb_ext) S(vdw_ext)  S(hb_int)    S(int)      intcor
     37.03       2.49      25.16       0.00      -0.05      -0.76

> <Gold.Goldscore.Fitness>
37.0323

> <Gold.Goldscore.Internal.Vdw>
-0.2986

> <Gold.Goldscore.Internal.Torsion>
-0.5091

> <Gold.Goldscore.External.Vdw>
25.1568

> <Gold.Goldscore.Internal.HBond>
0.0000

> <Gold.Goldscore.External.HBond>
2.4899

> <Gold.Goldscore.Internal.Correction>
-0.7595

> <Gold.Goldscore.Hbonds>
donor molecule, donor type, donor heavy atom, donor atom, acceptor molecule, acceptor atom, score
      P1  H  9120  9141       L1     9  0.98
      L1  H     8    22       P1  9230  0.26

> <Gold.Goldscore.Internal.Vdw.Weighted>
-0.2986

> <Gold.Goldscore.Internal.Torsion.Weighted>
-0.5091

> <Gold.Goldscore.External.Vdw.Weighted>
34.5906

> <Gold.Goldscore.Internal.HBond.Weighted>
0.0000

> <Gold.Goldscore.External.HBond.Weighted>
2.4899

> <Gold.Goldscore.Internal.Correction.Weighted>
-0.7595

> <Gold.Rescore>
     Score     S(PLP)   S(hbond)     S(cho)   S(metal)  DE(clash)   DE(tors)     intcor
     34.82     -33.13       1.00       0.00       0.00       0.00       0.66       ----

> <Gold.PLP.Fitness>
34.8162

> <Gold.PLP.PLP>
-33.1314

> <Gold.PLP.part.hbond>
-2.2190

> <Gold.PLP.part.metal>
0.0000

> <Gold.PLP.part.buried>
-6.9272

> <Gold.PLP.part.nonpolar>
-28.5677

> <Gold.PLP.part.repulsive>
3.1367

> <Gold.PLP.ligand.clash>
0.0000

> <Gold.PLP.ligand.torsion>
0.6596

> <Gold.PLP.Chemscore.Hbond>
1.0013

> <Gold.PLP.Chemscore.CHOScore>
0.0000

> <Gold.PLP.Chemscore.Metal>
0.0000

> <Gold.Chemscore.Hbonds>
donor molecule, donor type, donor heavy atom, donor atom, acceptor molecule, acceptor atom, score
      L1  H     8    22       P1  9230  0.47
      P1  H  9120  9141       L1     9  1.00

> <Gold.PLP.Chemscore.Internal.Correction>
   9.000000E+99

