#       Name:                CT1002167954
#       Creating user name   hitesit
#       Creation time:       Sun Apr 16 20:16:49 2023


#       File generated by GOLD software.
#

@<TRIPOS>MOLECULE
CT1002167954|ligand_prepared|mol2|1|dock10
    29    30     1
SMALL
NO_CHARGES


@<TRIPOS>ATOM
      1 C1         124.3819 245.3518 356.4462 C.3            1 RES1               0.0000
      2 C2         125.7038 246.0749 356.1168 C.ar           1 RES1               0.0000
      3 C3         123.3889 245.7595 355.3618 C.2            1 RES1               0.0000
      4 C4         124.7043 243.8617 356.4662 C.2            1 RES1               0.0000
      5 C5         123.7887 245.7308 357.8231 C.3            1 RES1               0.0000
      6 C6         126.8115 245.3590 355.6726 C.ar           1 RES1               0.0000
      7 C7         125.8298 247.4551 356.2495 C.ar           1 RES1               0.0000
      8 N8         123.0742 244.8324 354.4124 N.am           1 RES1               0.0000
      9 O9         122.9194 246.8899 355.3176 O.2            1 RES1               0.0000
     10 N10        124.1318 243.0680 355.5070 N.am           1 RES1               0.0000
     11 O11        125.4620 243.3705 357.2938 O.2            1 RES1               0.0000
     12 C12        122.6299 244.8464 358.2559 C.3            1 RES1               0.0000
     13 C13        128.0012 246.0001 355.3692 C.ar           1 RES1               0.0000
     14 C14        127.0206 248.0942 355.9457 C.ar           1 RES1               0.0000
     15 C15        123.3557 243.4907 354.4624 C.2            1 RES1               0.0000
     16 C16        128.1064 247.3679 355.5051 C.ar           1 RES1               0.0000
     17 O17        122.9219 242.7231 353.6082 O.2            1 RES1               0.0000
     18 H18        124.5817 245.6685 358.5785 H              1 RES1               0.0000
     19 H19        123.4434 246.7713 357.7845 H              1 RES1               0.0000
     20 H20        126.7483 244.2816 355.5619 H              1 RES1               0.0000
     21 H21        124.9890 248.0467 356.5956 H              1 RES1               0.0000
     22 H22        122.5842 245.1676 353.5890 H              1 RES1               0.0000
     23 H23        124.2996 242.0694 355.5784 H              1 RES1               0.0000
     24 H24        122.2511 245.1552 359.2279 H              1 RES1               0.0000
     25 H25        121.8126 244.9036 357.5399 H              1 RES1               0.0000
     26 H26        122.9442 243.8073 358.3292 H              1 RES1               0.0000
     27 H27        128.8533 245.4238 355.0241 H              1 RES1               0.0000
     28 H28        127.0991 249.1708 356.0548 H              1 RES1               0.0000
     29 H29        129.0384 247.8699 355.2669 H              1 RES1               0.0000
@<TRIPOS>BOND
    1    1    2 1     
    2    1    3 1     
    3    1    4 1     
    4    1    5 1     
    5    2    6 ar    
    6    2    7 ar    
    7    3    8 1     
    8    3    9 2     
    9    4   10 1     
   10    4   11 2     
   11    5   12 1     
   12    5   18 1     
   13    5   19 1     
   14    6   13 ar    
   15    6   20 1     
   16    7   14 ar    
   17    7   21 1     
   18    8   15 1     
   19    8   22 1     
   20   10   15 1     
   21   10   23 1     
   22   12   24 1     
   23   12   25 1     
   24   12   26 1     
   25   13   16 ar    
   26   13   27 1     
   27   14   16 ar    
   28   14   28 1     
   29   15   17 2     
   30   16   29 1     
@<TRIPOS>SUBSTRUCTURE
      1 RES1           1
@<TRIPOS>SET
DONOR_HYDROGENS      STATIC     ATOMS    <user>   **** ""
2 22 23
ATOM$RED        STATIC     ATOMS    COLORGROUP SYSTEM
2 22 23
@<TRIPOS>COMMENT
> <Gold.Version>
2022.3.0

> <Gold.Id.Protein>
unknown|4uh5_clean|pdb

> <Gold.Protein.RotatedTorsions>
[ 9141 9120 9119 9117 ] final  174.14 input   60.01 | X-H torsion
[ 9040 9030 9029 9026 ] final  -16.43 input   59.99 | X-H torsion
[ 8396 8366 8365 8363 ] final -113.32 input   60.01 | X-H torsion

> <Gold.Protein.ActiveResidues>
 MET341  TRP414  CYS420  VAL421  GLY422  LEU429  LEU460  SER462  ALA463  ILE464 
 SER482  GLN483  LEU484  ILE485  ARG486  TYR487  ASP500  ALA502  ASN503  TRP566 
 TYR567  LEU569  PRO570  ALA571  VAL572  SER573  ASN574  PRO588  PHE589  SER590 
 GLY591  TRP592  TYR593  MET594  GLY595  THR596  GLU597  ILE598  ARG601  ASP602 
 ASP605  ARG608  ILE653  VAL654  TRP683  PRO687  SER691  PHE696  HIS697  TYR711 
 HEM750  H4B760 

> <Gold.Protein.RotatedAtoms>
  126.3194  241.9390  359.3513 H   0  0  0  0  0  0  0  0  0  0  0  0  # atno 8396 bound_to 8366
  114.8832  245.7493  366.2751 H   0  0  0  0  0  0  0  0  0  0  0  0  # atno 9040 bound_to 9030
  123.2787  241.0981  359.8270 H   0  0  0  0  0  0  0  0  0  0  0  0  # atno 9141 bound_to 9120
  122.7221  242.3395  358.9344 LP  0  0  0  0  0  0  0  0  0  0  0  0  # atno 13532 bound_to 9120
  123.5699  241.1367  358.2265 LP  0  0  0  0  0  0  0  0  0  0  0  0  # atno 13533 bound_to 9120
  116.0185  245.3845  367.3824 LP  0  0  0  0  0  0  0  0  0  0  0  0  # atno 13546 bound_to 9030
  115.4259  244.2205  366.4024 LP  0  0  0  0  0  0  0  0  0  0  0  0  # atno 13547 bound_to 9030
  126.8222  242.8917  360.5707 LP  0  0  0  0  0  0  0  0  0  0  0  0  # atno 13558 bound_to 8366
  125.2575  242.9155  360.1037 LP  0  0  0  0  0  0  0  0  0  0  0  0  # atno 13559 bound_to 8366

> <Gold.Score>
     Fitness  S(hb_ext) S(vdw_ext)  S(hb_int)    S(int)      intcor
     31.52       3.90      21.96       0.00      -2.58      -0.76

> <Gold.Goldscore.Fitness>
31.5230

> <Gold.Goldscore.Internal.Vdw>
-2.8060

> <Gold.Goldscore.Internal.Torsion>
-0.5298

> <Gold.Goldscore.External.Vdw>
21.9603

> <Gold.Goldscore.Internal.HBond>
0.0000

> <Gold.Goldscore.External.HBond>
3.9049

> <Gold.Goldscore.Internal.Correction>
-0.7585

> <Gold.Goldscore.Hbonds>
donor molecule, donor type, donor heavy atom, donor atom, acceptor molecule, acceptor atom, score
      L1  H     8    22       P1 13325  0.01
      L1  H    10    23       P1  9396  0.64

> <Gold.Goldscore.Internal.Vdw.Weighted>
-2.8060

> <Gold.Goldscore.Internal.Torsion.Weighted>
-0.5298

> <Gold.Goldscore.External.Vdw.Weighted>
30.1953

> <Gold.Goldscore.Internal.HBond.Weighted>
0.0000

> <Gold.Goldscore.External.HBond.Weighted>
3.9049

> <Gold.Goldscore.Internal.Correction.Weighted>
-0.7585

> <Gold.Rescore>
     Score     S(PLP)   S(hbond)     S(cho)   S(metal)  DE(clash)   DE(tors)     intcor
     15.33     -11.59       1.99       0.00       0.00       2.12       0.06       ----

> <Gold.PLP.Fitness>
15.3343

> <Gold.PLP.PLP>
-11.5860

> <Gold.PLP.part.hbond>
-3.5916

> <Gold.PLP.part.metal>
0.0000

> <Gold.PLP.part.buried>
3.0797

> <Gold.PLP.part.nonpolar>
-15.2623

> <Gold.PLP.part.repulsive>
2.9881

> <Gold.PLP.ligand.clash>
2.1158

> <Gold.PLP.ligand.torsion>
0.0559

> <Gold.PLP.Chemscore.Hbond>
1.9920

> <Gold.PLP.Chemscore.CHOScore>
0.0000

> <Gold.PLP.Chemscore.Metal>
0.0000

> <Gold.Chemscore.Hbonds>
donor molecule, donor type, donor heavy atom, donor atom, acceptor molecule, acceptor atom, score
      L1  H    10    23       P1  9396  0.90

> <Gold.PLP.Chemscore.Internal.Correction>
   9.000000E+99

