#       Name:                CT1002167954
#       Creating user name   hitesit
#       Creation time:       Sun Apr 16 20:16:47 2023


#       File generated by GOLD software.
#

@<TRIPOS>MOLECULE
CT1002167954|ligand_prepared|mol2|1|dock8
    29    30     1
SMALL
NO_CHARGES


@<TRIPOS>ATOM
      1 C1         124.0508 245.1462 355.3619 C.3            1 RES1               0.0000
      2 C2         122.9632 245.3264 356.4405 C.ar           1 RES1               0.0000
      3 C3         123.8689 243.7390 354.8009 C.2            1 RES1               0.0000
      4 C4         123.8274 246.2566 354.3412 C.2            1 RES1               0.0000
      5 C5         125.4940 245.2770 355.9019 C.3            1 RES1               0.0000
      6 C6         123.0207 246.3919 357.3338 C.ar           1 RES1               0.0000
      7 C7         121.8967 244.4383 356.5527 C.ar           1 RES1               0.0000
      8 N8         123.3257 243.6206 353.5555 N.am           1 RES1               0.0000
      9 O9         124.1609 242.7468 355.4570 O.2            1 RES1               0.0000
     10 N10        123.4454 245.8976 353.0751 N.am           1 RES1               0.0000
     11 O11        123.9626 247.4401 354.6265 O.2            1 RES1               0.0000
     12 C12        125.7311 244.5301 357.2050 C.3            1 RES1               0.0000
     13 C13        122.0459 246.5652 358.3023 C.ar           1 RES1               0.0000
     14 C14        120.9230 244.6132 357.5222 C.ar           1 RES1               0.0000
     15 C15        123.1546 244.6318 352.6445 C.2            1 RES1               0.0000
     16 C16        120.9963 245.6763 358.3969 C.ar           1 RES1               0.0000
     17 O17        122.7642 244.3946 351.5050 O.2            1 RES1               0.0000
     18 H18        126.1902 244.8958 355.1447 H              1 RES1               0.0000
     19 H19        125.7176 246.3395 356.0583 H              1 RES1               0.0000
     20 H20        123.8405 247.1002 357.2763 H              1 RES1               0.0000
     21 H21        121.8193 243.5941 355.8760 H              1 RES1               0.0000
     22 H22        123.0181 242.6946 353.2758 H              1 RES1               0.0000
     23 H23        123.3711 246.6430 352.3902 H              1 RES1               0.0000
     24 H24        126.7588 244.6548 357.5396 H              1 RES1               0.0000
     25 H25        125.0725 244.9011 357.9876 H              1 RES1               0.0000
     26 H26        125.5423 243.4659 357.0794 H              1 RES1               0.0000
     27 H27        122.1088 247.4027 358.9892 H              1 RES1               0.0000
     28 H28        120.0991 243.9109 357.5933 H              1 RES1               0.0000
     29 H29        120.2325 245.8125 359.1554 H              1 RES1               0.0000
@<TRIPOS>BOND
    1    1    2 1     
    2    1    3 1     
    3    1    4 1     
    4    1    5 1     
    5    2    6 ar    
    6    2    7 ar    
    7    3    8 1     
    8    3    9 2     
    9    4   10 1     
   10    4   11 2     
   11    5   12 1     
   12    5   18 1     
   13    5   19 1     
   14    6   13 ar    
   15    6   20 1     
   16    7   14 ar    
   17    7   21 1     
   18    8   15 1     
   19    8   22 1     
   20   10   15 1     
   21   10   23 1     
   22   12   24 1     
   23   12   25 1     
   24   12   26 1     
   25   13   16 ar    
   26   13   27 1     
   27   14   16 ar    
   28   14   28 1     
   29   15   17 2     
   30   16   29 1     
@<TRIPOS>SUBSTRUCTURE
      1 RES1           1
@<TRIPOS>SET
DONOR_HYDROGENS      STATIC     ATOMS    <user>   **** ""
2 22 23
ATOM$RED        STATIC     ATOMS    COLORGROUP SYSTEM
2 22 23
@<TRIPOS>COMMENT
> <Gold.Version>
2022.3.0

> <Gold.Id.Protein>
unknown|4uh5_clean|pdb

> <Gold.Protein.RotatedTorsions>
[ 9141 9120 9119 9117 ] final  -15.99 input   60.01 | X-H torsion
[ 9040 9030 9029 9026 ] final  122.39 input   59.99 | X-H torsion
[ 8396 8366 8365 8363 ] final  124.01 input   60.01 | X-H torsion

> <Gold.Protein.ActiveResidues>
 MET341  TRP414  CYS420  VAL421  GLY422  LEU429  LEU460  SER462  ALA463  ILE464 
 SER482  GLN483  LEU484  ILE485  ARG486  TYR487  ASP500  ALA502  ASN503  TRP566 
 TYR567  LEU569  PRO570  ALA571  VAL572  SER573  ASN574  PRO588  PHE589  SER590 
 GLY591  TRP592  TYR593  MET594  GLY595  THR596  GLU597  ILE598  ARG601  ASP602 
 ASP605  ARG608  ILE653  VAL654  TRP683  PRO687  SER691  PHE696  HIS697  TYR711 
 HEM750  H4B760 

> <Gold.Protein.RotatedAtoms>
  126.7875  242.9136  360.5877 H   0  0  0  0  0  0  0  0  0  0  0  0  # atno 8396 bound_to 8366
  115.6400  244.2067  366.6224 H   0  0  0  0  0  0  0  0  0  0  0  0  # atno 9040 bound_to 9030
  123.1865  241.8200  358.1099 H   0  0  0  0  0  0  0  0  0  0  0  0  # atno 9141 bound_to 9120
  123.6235  240.7173  359.2240 LP  0  0  0  0  0  0  0  0  0  0  0  0  # atno 13532 bound_to 9120
  122.7614  242.0318  359.6663 LP  0  0  0  0  0  0  0  0  0  0  0  0  # atno 13533 bound_to 9120
  114.7970  245.5024  366.1137 LP  0  0  0  0  0  0  0  0  0  0  0  0  # atno 13546 bound_to 9030
  115.8854  245.6556  367.3214 LP  0  0  0  0  0  0  0  0  0  0  0  0  # atno 13547 bound_to 9030
  125.2450  242.8894  360.0706 LP  0  0  0  0  0  0  0  0  0  0  0  0  # atno 13558 bound_to 8366
  126.3631  241.9359  359.3583 LP  0  0  0  0  0  0  0  0  0  0  0  0  # atno 13559 bound_to 8366

> <Gold.Score>
     Fitness  S(hb_ext) S(vdw_ext)  S(hb_int)    S(int)      intcor
     30.99       0.85      24.20       0.00      -3.13      -0.76

> <Gold.Goldscore.Fitness>
30.9929

> <Gold.Goldscore.Internal.Vdw>
-3.1588

> <Gold.Goldscore.Internal.Torsion>
-0.7320

> <Gold.Goldscore.External.Vdw>
24.2028

> <Gold.Goldscore.Internal.HBond>
0.0000

> <Gold.Goldscore.External.HBond>
0.8462

> <Gold.Goldscore.Internal.Correction>
-0.7585

> <Gold.Goldscore.Hbonds>
donor molecule, donor type, donor heavy atom, donor atom, acceptor molecule, acceptor atom, score
      P1  H  9120  9141       L1     9  0.20
      L1  H     8    22       P1  9230  0.15
      L1  H    10    23       P1 13460  0.02

> <Gold.Goldscore.Internal.Vdw.Weighted>
-3.1588

> <Gold.Goldscore.Internal.Torsion.Weighted>
-0.7320

> <Gold.Goldscore.External.Vdw.Weighted>
33.2789

> <Gold.Goldscore.Internal.HBond.Weighted>
0.0000

> <Gold.Goldscore.External.HBond.Weighted>
0.8462

> <Gold.Goldscore.Internal.Correction.Weighted>
-0.7585

> <Gold.Rescore>
     Score     S(PLP)   S(hbond)     S(cho)   S(metal)  DE(clash)   DE(tors)     intcor
     27.05     -25.70       1.00       0.00       0.00       1.38       0.13       ----

> <Gold.PLP.Fitness>
27.0499

> <Gold.PLP.PLP>
-25.7008

> <Gold.PLP.part.hbond>
-2.0000

> <Gold.PLP.part.metal>
0.0000

> <Gold.PLP.part.buried>
-2.8672

> <Gold.PLP.part.nonpolar>
-24.0158

> <Gold.PLP.part.repulsive>
2.9976

> <Gold.PLP.ligand.clash>
1.3818

> <Gold.PLP.ligand.torsion>
0.1345

> <Gold.PLP.Chemscore.Hbond>
1.0000

> <Gold.PLP.Chemscore.CHOScore>
0.0000

> <Gold.PLP.Chemscore.Metal>
0.0000

> <Gold.Chemscore.Hbonds>
donor molecule, donor type, donor heavy atom, donor atom, acceptor molecule, acceptor atom, score
      L1  H     8    22       P1  9230  0.25

> <Gold.PLP.Chemscore.Internal.Correction>
   9.000000E+99

