#       Name:                CT1002167954
#       Creating user name   hitesit
#       Creation time:       Sun Apr 16 20:16:45 2023


#       File generated by GOLD software.
#

@<TRIPOS>MOLECULE
CT1002167954|ligand_prepared|mol2|1|dock6
    29    30     1
SMALL
NO_CHARGES


@<TRIPOS>ATOM
      1 C1         124.0711 244.8831 355.9379 C.3            1 RES1               0.0000
      2 C2         124.0031 244.9195 354.3975 C.ar           1 RES1               0.0000
      3 C3         123.4121 246.1698 356.4263 C.2            1 RES1               0.0000
      4 C4         123.3472 243.6117 356.3669 C.2            1 RES1               0.0000
      5 C5         125.5112 244.8253 356.4985 C.3            1 RES1               0.0000
      6 C6         124.9328 245.6507 353.6642 C.ar           1 RES1               0.0000
      7 C7         123.0199 244.2260 353.6968 C.ar           1 RES1               0.0000
      8 N8         122.1701 246.0724 356.9811 N.am           1 RES1               0.0000
      9 O9         123.9572 247.2582 356.2907 O.2            1 RES1               0.0000
     10 N10        122.1846 243.7443 357.0802 N.am           1 RES1               0.0000
     11 O11        123.7642 242.4965 356.0795 O.2            1 RES1               0.0000
     12 C12        125.5819 244.4428 357.9685 C.3            1 RES1               0.0000
     13 C13        124.8833 245.6850 352.2805 C.ar           1 RES1               0.0000
     14 C14        122.9720 244.2618 352.3130 C.ar           1 RES1               0.0000
     15 C15        121.5471 244.9173 357.3802 C.2            1 RES1               0.0000
     16 C16        123.9033 244.9904 351.6040 C.ar           1 RES1               0.0000
     17 O17        120.4756 244.9529 357.9783 O.2            1 RES1               0.0000
     18 H18        126.0880 244.0965 355.9158 H              1 RES1               0.0000
     19 H19        125.9812 245.8077 356.3664 H              1 RES1               0.0000
     20 H20        125.7098 246.2056 354.1793 H              1 RES1               0.0000
     21 H21        122.2762 243.6470 354.2338 H              1 RES1               0.0000
     22 H22        121.6570 246.9385 357.1112 H              1 RES1               0.0000
     23 H23        121.7548 242.8895 357.4189 H              1 RES1               0.0000
     24 H24        126.6142 244.4170 358.3111 H              1 RES1               0.0000
     25 H25        125.0396 245.1606 358.5804 H              1 RES1               0.0000
     26 H26        125.1457 243.4596 358.1326 H              1 RES1               0.0000
     27 H27        125.6177 246.2610 351.7272 H              1 RES1               0.0000
     28 H28        122.1986 243.7141 351.7847 H              1 RES1               0.0000
     29 H29        123.8649 245.0172 350.5200 H              1 RES1               0.0000
@<TRIPOS>BOND
    1    1    2 1     
    2    1    3 1     
    3    1    4 1     
    4    1    5 1     
    5    2    6 ar    
    6    2    7 ar    
    7    3    8 1     
    8    3    9 2     
    9    4   10 1     
   10    4   11 2     
   11    5   12 1     
   12    5   18 1     
   13    5   19 1     
   14    6   13 ar    
   15    6   20 1     
   16    7   14 ar    
   17    7   21 1     
   18    8   15 1     
   19    8   22 1     
   20   10   15 1     
   21   10   23 1     
   22   12   24 1     
   23   12   25 1     
   24   12   26 1     
   25   13   16 ar    
   26   13   27 1     
   27   14   16 ar    
   28   14   28 1     
   29   15   17 2     
   30   16   29 1     
@<TRIPOS>SUBSTRUCTURE
      1 RES1           1
@<TRIPOS>SET
DONOR_HYDROGENS      STATIC     ATOMS    <user>   **** ""
2 22 23
ATOM$RED        STATIC     ATOMS    COLORGROUP SYSTEM
2 22 23
@<TRIPOS>COMMENT
> <Gold.Version>
2022.3.0

> <Gold.Id.Protein>
unknown|4uh5_clean|pdb

> <Gold.Protein.RotatedTorsions>
[ 9141 9120 9119 9117 ] final  -13.91 input   60.01 | X-H torsion
[ 9040 9030 9029 9026 ] final  -82.78 input   59.99 | X-H torsion
[ 8396 8366 8365 8363 ] final -150.45 input   60.01 | X-H torsion

> <Gold.Protein.ActiveResidues>
 MET341  TRP414  CYS420  VAL421  GLY422  LEU429  LEU460  SER462  ALA463  ILE464 
 SER482  GLN483  LEU484  ILE485  ARG486  TYR487  ASP500  ALA502  ASN503  TRP566 
 TYR567  LEU569  PRO570  ALA571  VAL572  SER573  ASN574  PRO588  PHE589  SER590 
 GLY591  TRP592  TYR593  MET594  GLY595  THR596  GLU597  ILE598  ARG601  ASP602 
 ASP605  ARG608  ILE653  VAL654  TRP683  PRO687  SER691  PHE696  HIS697  TYR711 
 HEM750  H4B760 

> <Gold.Protein.RotatedAtoms>
  126.8230  242.0606  359.6460 H   0  0  0  0  0  0  0  0  0  0  0  0  # atno 8396 bound_to 8366
  115.5295  245.9838  367.0350 H   0  0  0  0  0  0  0  0  0  0  0  0  # atno 9040 bound_to 9030
  123.1686  241.8471  358.1197 H   0  0  0  0  0  0  0  0  0  0  0  0  # atno 9141 bound_to 9120
  123.6321  240.7135  359.1911 LP  0  0  0  0  0  0  0  0  0  0  0  0  # atno 13532 bound_to 9120
  122.7708  242.0083  359.6893 LP  0  0  0  0  0  0  0  0  0  0  0  0  # atno 13533 bound_to 9120
  115.9626  244.4151  367.0334 LP  0  0  0  0  0  0  0  0  0  0  0  0  # atno 13546 bound_to 9030
  114.8311  244.9538  365.9864 LP  0  0  0  0  0  0  0  0  0  0  0  0  # atno 13547 bound_to 9030
  126.3118  243.1701  360.7207 LP  0  0  0  0  0  0  0  0  0  0  0  0  # atno 13558 bound_to 8366
  125.2606  242.5146  359.6568 LP  0  0  0  0  0  0  0  0  0  0  0  0  # atno 13559 bound_to 8366

> <Gold.Score>
     Fitness  S(hb_ext) S(vdw_ext)  S(hb_int)    S(int)      intcor
     33.97       1.31      24.46       0.00      -0.98      -0.76

> <Gold.Goldscore.Fitness>
33.9653

> <Gold.Goldscore.Internal.Vdw>
-1.0590

> <Gold.Goldscore.Internal.Torsion>
-0.6823

> <Gold.Goldscore.External.Vdw>
24.4645

> <Gold.Goldscore.Internal.HBond>
0.0000

> <Gold.Goldscore.External.HBond>
1.3083

> <Gold.Goldscore.Internal.Correction>
-0.7595

> <Gold.Goldscore.Hbonds>
donor molecule, donor type, donor heavy atom, donor atom, acceptor molecule, acceptor atom, score
      P1  H  9120  9141       L1    11  0.65

> <Gold.Goldscore.Internal.Vdw.Weighted>
-1.0590

> <Gold.Goldscore.Internal.Torsion.Weighted>
-0.6823

> <Gold.Goldscore.External.Vdw.Weighted>
33.6387

> <Gold.Goldscore.Internal.HBond.Weighted>
0.0000

> <Gold.Goldscore.External.HBond.Weighted>
1.3083

> <Gold.Goldscore.Internal.Correction.Weighted>
-0.7595

> <Gold.Rescore>
     Score     S(PLP)   S(hbond)     S(cho)   S(metal)  DE(clash)   DE(tors)     intcor
     33.41     -31.93       1.02       0.00       0.00       1.35       0.12       ----

> <Gold.PLP.Fitness>
33.4141

> <Gold.PLP.PLP>
-31.9309

> <Gold.PLP.part.hbond>
-3.0517

> <Gold.PLP.part.metal>
0.0000

> <Gold.PLP.part.buried>
-6.8902

> <Gold.PLP.part.nonpolar>
-23.4386

> <Gold.PLP.part.repulsive>
0.4807

> <Gold.PLP.ligand.clash>
1.3450

> <Gold.PLP.ligand.torsion>
0.1171

> <Gold.PLP.Chemscore.Hbond>
1.0208

> <Gold.PLP.Chemscore.CHOScore>
0.0000

> <Gold.PLP.Chemscore.Metal>
0.0000

> <Gold.Chemscore.Hbonds>
donor molecule, donor type, donor heavy atom, donor atom, acceptor molecule, acceptor atom, score
      P1  H  9120  9141       L1    11  0.28

> <Gold.PLP.Chemscore.Internal.Correction>
   9.000000E+99

