#       Name:                CT1002167954
#       Creating user name   hitesit
#       Creation time:       Sun Apr 16 20:16:41 2023


#       File generated by GOLD software.
#

@<TRIPOS>MOLECULE
CT1002167954|ligand_prepared|mol2|1|dock2
    29    30     1
SMALL
NO_CHARGES


@<TRIPOS>ATOM
      1 C1         123.3505 244.4893 356.0514 C.3            1 RES1               0.0000
      2 C2         123.5029 244.7632 354.5412 C.ar           1 RES1               0.0000
      3 C3         123.8053 243.0499 356.2737 C.2            1 RES1               0.0000
      4 C4         124.2087 245.5298 356.7624 C.2            1 RES1               0.0000
      5 C5         121.9002 244.6317 356.5690 C.3            1 RES1               0.0000
      6 C6         122.4483 244.5188 353.6668 C.ar           1 RES1               0.0000
      7 C7         124.6890 245.2620 354.0091 C.ar           1 RES1               0.0000
      8 N8         125.0149 242.8548 356.8728 N.am           1 RES1               0.0000
      9 O9         123.1310 242.1007 355.8935 O.2            1 RES1               0.0000
     10 N10        125.3001 245.0904 357.4649 N.am           1 RES1               0.0000
     11 O11        123.9591 246.7277 356.7069 O.2            1 RES1               0.0000
     12 C12        121.7903 244.6592 358.0853 C.3            1 RES1               0.0000
     13 C13        122.5737 244.7667 352.3099 C.ar           1 RES1               0.0000
     14 C14        124.8123 245.5090 352.6518 C.ar           1 RES1               0.0000
     15 C15        125.7597 243.8031 357.5269 C.2            1 RES1               0.0000
     16 C16        123.7554 245.2624 351.8016 C.ar           1 RES1               0.0000
     17 O17        126.7805 243.4942 358.1349 O.2            1 RES1               0.0000
     18 H18        121.4711 245.5578 356.1670 H              1 RES1               0.0000
     19 H19        121.3051 243.7930 356.1871 H              1 RES1               0.0000
     20 H20        121.5114 244.1264 354.0481 H              1 RES1               0.0000
     21 H21        125.5340 245.4625 354.6590 H              1 RES1               0.0000
     22 H22        125.4014 241.9172 356.8305 H              1 RES1               0.0000
     23 H23        125.8180 245.7876 357.9904 H              1 RES1               0.0000
     24 H24        120.7523 244.7604 358.3950 H              1 RES1               0.0000
     25 H25        122.1850 243.7420 358.5174 H              1 RES1               0.0000
     26 H26        122.3501 245.4963 358.4974 H              1 RES1               0.0000
     27 H27        121.7394 244.5696 351.6448 H              1 RES1               0.0000
     28 H28        125.7445 245.8985 352.2561 H              1 RES1               0.0000
     29 H29        123.8533 245.4569 350.7387 H              1 RES1               0.0000
@<TRIPOS>BOND
    1    1    2 1     
    2    1    3 1     
    3    1    4 1     
    4    1    5 1     
    5    2    6 ar    
    6    2    7 ar    
    7    3    8 1     
    8    3    9 2     
    9    4   10 1     
   10    4   11 2     
   11    5   12 1     
   12    5   18 1     
   13    5   19 1     
   14    6   13 ar    
   15    6   20 1     
   16    7   14 ar    
   17    7   21 1     
   18    8   15 1     
   19    8   22 1     
   20   10   15 1     
   21   10   23 1     
   22   12   24 1     
   23   12   25 1     
   24   12   26 1     
   25   13   16 ar    
   26   13   27 1     
   27   14   16 ar    
   28   14   28 1     
   29   15   17 2     
   30   16   29 1     
@<TRIPOS>SUBSTRUCTURE
      1 RES1           1
@<TRIPOS>SET
DONOR_HYDROGENS      STATIC     ATOMS    <user>   **** ""
2 22 23
ATOM$RED        STATIC     ATOMS    COLORGROUP SYSTEM
2 22 23
@<TRIPOS>COMMENT
> <Gold.Version>
2022.3.0

> <Gold.Id.Protein>
unknown|4uh5_clean|pdb

> <Gold.Protein.RotatedTorsions>
[ 9141 9120 9119 9117 ] final  155.48 input   60.01 | X-H torsion
[ 9040 9030 9029 9026 ] final   97.48 input   59.99 | X-H torsion
[ 8396 8366 8365 8363 ] final  111.67 input   60.01 | X-H torsion

> <Gold.Protein.ActiveResidues>
 MET341  TRP414  CYS420  VAL421  GLY422  LEU429  LEU460  SER462  ALA463  ILE464 
 SER482  GLN483  LEU484  ILE485  ARG486  TYR487  ASP500  ALA502  ASN503  TRP566 
 TYR567  LEU569  PRO570  ALA571  VAL572  SER573  ASN574  PRO588  PHE589  SER590 
 GLY591  TRP592  TYR593  MET594  GLY595  THR596  GLU597  ILE598  ARG601  ASP602 
 ASP605  ARG608  ILE653  VAL654  TRP683  PRO687  SER691  PHE696  HIS697  TYR711 
 HEM750  H4B760 

> <Gold.Protein.RotatedAtoms>
  126.6355  243.0226  360.6615 H   0  0  0  0  0  0  0  0  0  0  0  0  # atno 8396 bound_to 8366
  115.3588  244.2547  366.3365 H   0  0  0  0  0  0  0  0  0  0  0  0  # atno 9040 bound_to 9030
  123.1185  241.3411  359.9133 H   0  0  0  0  0  0  0  0  0  0  0  0  # atno 9141 bound_to 9120
  122.8001  242.3041  358.6408 LP  0  0  0  0  0  0  0  0  0  0  0  0  # atno 13532 bound_to 9120
  123.6533  240.9274  358.4332 LP  0  0  0  0  0  0  0  0  0  0  0  0  # atno 13533 bound_to 9120
  114.9167  245.8208  366.3366 LP  0  0  0  0  0  0  0  0  0  0  0  0  # atno 13546 bound_to 9030
  116.0488  245.2890  367.3864 LP  0  0  0  0  0  0  0  0  0  0  0  0  # atno 13547 bound_to 9030
  125.2125  242.7612  359.9171 LP  0  0  0  0  0  0  0  0  0  0  0  0  # atno 13558 bound_to 8366
  126.5487  241.9543  359.4374 LP  0  0  0  0  0  0  0  0  0  0  0  0  # atno 13559 bound_to 8366

> <Gold.Score>
     Fitness  S(hb_ext) S(vdw_ext)  S(hb_int)    S(int)      intcor
     36.66       0.15      26.98       0.00      -0.60      -0.76

> <Gold.Goldscore.Fitness>
36.6569

> <Gold.Goldscore.Internal.Vdw>
-0.7553

> <Gold.Goldscore.Internal.Torsion>
-0.6024

> <Gold.Goldscore.External.Vdw>
26.9844

> <Gold.Goldscore.Internal.HBond>
0.0000

> <Gold.Goldscore.External.HBond>
0.1516

> <Gold.Goldscore.Internal.Correction>
-0.7595

> <Gold.Goldscore.Hbonds>
donor molecule, donor type, donor heavy atom, donor atom, acceptor molecule, acceptor atom, score
      L1  H     8    22       P1  9396  0.02
      L1  H    10    23       P1  5623  0.02

> <Gold.Goldscore.Internal.Vdw.Weighted>
-0.7553

> <Gold.Goldscore.Internal.Torsion.Weighted>
-0.6024

> <Gold.Goldscore.External.Vdw.Weighted>
37.1036

> <Gold.Goldscore.Internal.HBond.Weighted>
0.0000

> <Gold.Goldscore.External.HBond.Weighted>
0.1516

> <Gold.Goldscore.Internal.Correction.Weighted>
-0.7595

> <Gold.Rescore>
     Score     S(PLP)   S(hbond)     S(cho)   S(metal)  DE(clash)   DE(tors)     intcor
     27.99     -27.52       0.80       0.00       0.00       1.14       0.39       ----

> <Gold.PLP.Fitness>
27.9865

> <Gold.PLP.PLP>
-27.5191

> <Gold.PLP.part.hbond>
-4.8151

> <Gold.PLP.part.metal>
0.0000

> <Gold.PLP.part.buried>
-0.3084

> <Gold.PLP.part.nonpolar>
-24.7104

> <Gold.PLP.part.repulsive>
0.7689

> <Gold.PLP.ligand.clash>
1.1391

> <Gold.PLP.ligand.torsion>
0.3946

> <Gold.PLP.Chemscore.Hbond>
0.7986

> <Gold.PLP.Chemscore.CHOScore>
0.0000

> <Gold.PLP.Chemscore.Metal>
0.0000

> <Gold.Chemscore.Hbonds>
donor molecule, donor type, donor heavy atom, donor atom, acceptor molecule, acceptor atom, score
      L1  H     8    22       P1  9396  0.11

> <Gold.PLP.Chemscore.Internal.Correction>
   9.000000E+99

