#       Name:                GA Fitting Points
#       Creating user name   hitesit
#       Creation time:       Sun Apr 16 02:21:12 2023


#       Fitting Points Used by GA Software.
#

@<TRIPOS>MOLECULE
GA Fitting Points
 12078    0    0
SMALL
NO_CHARGES


@<TRIPOS>ATOM
      1 ****         9.0000  21.0000  20.2500 Du        
      2 ****         9.0000  21.0000  20.5000 Du        
      3 ****         9.2500  20.7500  20.2500 Du        
      4 ****         9.2500  20.7500  20.5000 Du        
      5 ****         9.2500  20.7500  20.7500 Du        
      6 ****         9.2500  21.0000  20.0000 Du        
      7 ****         9.2500  21.0000  20.2500 Du        
      8 ****         9.2500  21.0000  20.5000 Du        
      9 ****         9.2500  21.2500  20.0000 Du        
     10 ****         9.2500  21.2500  20.2500 Du        
     11 ****         9.5000  20.7500  20.2500 Du        
     12 ****         9.5000  20.7500  20.5000 Du        
     13 ****         9.5000  20.7500  20.7500 Du        
     14 ****         9.5000  21.0000  20.0000 Du        
     15 ****         9.5000  21.0000  20.2500 Du        
     16 ****         9.5000  21.0000  20.5000 Du        
     17 ****         9.5000  21.0000  20.7500 Du        
     18 ****         9.5000  21.2500  20.0000 Du        
     19 ****         9.5000  21.2500  20.2500 Du        
     20 ****         9.5000  21.2500  20.5000 Du        
     21 ****         9.7500  20.7500  20.0000 Du        
     22 ****         9.7500  20.7500  20.2500 Du        
     23 ****         9.7500  20.7500  20.5000 Du        
     24 ****         9.7500  20.7500  20.7500 Du        
     25 ****         9.7500  21.0000  19.7500 Du        
     26 ****         9.7500  21.0000  20.0000 Du        
     27 ****         9.7500  21.0000  20.2500 Du        
     28 ****         9.7500  21.0000  20.5000 Du        
     29 ****         9.7500  21.0000  20.7500 Du        
     30 ****         9.7500  21.2500  19.7500 Du        
     31 ****         9.7500  21.2500  20.0000 Du        
     32 ****         9.7500  21.2500  20.2500 Du        
     33 ****         9.7500  21.2500  20.5000 Du        
     34 ****         9.7500  21.5000  19.7500 Du        
     35 ****         9.7500  21.5000  20.0000 Du        
     36 ****         9.7500  21.5000  20.2500 Du        
     37 ****        10.0000  20.7500  19.7500 Du        
     38 ****        10.0000  20.7500  20.0000 Du        
     39 ****        10.0000  20.7500  20.2500 Du        
     40 ****        10.0000  20.7500  20.5000 Du        
     41 ****        10.0000  20.7500  20.7500 Du        
     42 ****        10.0000  21.0000  19.5000 Du        
     43 ****        10.0000  21.0000  19.7500 Du        
     44 ****        10.0000  21.0000  20.0000 Du        
     45 ****        10.0000  21.0000  20.2500 Du        
     46 ****        10.0000  21.0000  20.5000 Du        
     47 ****        10.0000  21.0000  20.7500 Du        
     48 ****        10.0000  21.2500  19.5000 Du        
     49 ****        10.0000  21.2500  19.7500 Du        
     50 ****        10.0000  21.2500  20.0000 Du        
     51 ****        10.0000  21.2500  20.2500 Du        
     52 ****        10.0000  21.2500  20.5000 Du        
     53 ****        10.0000  21.2500  20.7500 Du        
     54 ****        10.0000  21.5000  19.5000 Du        
     55 ****        10.0000  21.5000  19.7500 Du        
     56 ****        10.0000  21.5000  20.0000 Du        
     57 ****        10.0000  21.5000  20.2500 Du        
     58 ****        10.0000  21.5000  20.5000 Du        
     59 ****        10.0000  21.7500  19.5000 Du        
     60 ****        10.0000  21.7500  19.7500 Du        
     61 ****        10.0000  21.7500  20.0000 Du        
     62 ****        10.0000  21.7500  20.2500 Du        
     63 ****        10.0000  22.0000  19.7500 Du        
     64 ****        10.2500  20.7500  19.2500 Du        
     65 ****        10.2500  20.7500  19.5000 Du        
     66 ****        10.2500  20.7500  19.7500 Du        
     67 ****        10.2500  20.7500  20.0000 Du        
     68 ****        10.2500  20.7500  20.2500 Du        
     69 ****        10.2500  20.7500  20.5000 Du        
     70 ****        10.2500  20.7500  20.7500 Du        
     71 ****        10.2500  21.0000  19.2500 Du        
     72 ****        10.2500  21.0000  19.5000 Du        
     73 ****        10.2500  21.0000  19.7500 Du        
     74 ****        10.2500  21.0000  20.0000 Du        
     75 ****        10.2500  21.0000  20.2500 Du        
     76 ****        10.2500  21.0000  20.5000 Du        
     77 ****        10.2500  21.0000  20.7500 Du        
     78 ****        10.2500  21.2500  19.2500 Du        
     79 ****        10.2500  21.2500  19.5000 Du        
     80 ****        10.2500  21.2500  19.7500 Du        
     81 ****        10.2500  21.2500  20.0000 Du        
     82 ****        10.2500  21.2500  20.2500 Du        
     83 ****        10.2500  21.2500  20.5000 Du        
     84 ****        10.2500  21.2500  20.7500 Du        
     85 ****        10.2500  21.5000  19.2500 Du        
     86 ****        10.2500  21.5000  19.5000 Du        
     87 ****        10.2500  21.5000  19.7500 Du        
     88 ****        10.2500  21.5000  20.0000 Du        
     89 ****        10.2500  21.5000  20.2500 Du        
     90 ****        10.2500  21.5000  20.5000 Du        
     91 ****        10.2500  21.7500  19.2500 Du        
     92 ****        10.2500  21.7500  19.5000 Du        
     93 ****        10.2500  21.7500  19.7500 Du        
     94 ****        10.2500  21.7500  20.0000 Du        
     95 ****        10.2500  21.7500  20.2500 Du        
     96 ****        10.2500  22.0000  19.2500 Du        
     97 ****        10.2500  22.0000  19.5000 Du        
     98 ****        10.2500  22.0000  19.7500 Du        
     99 ****        10.2500  22.0000  20.0000 Du        
    100 ****        10.2500  22.0000  20.2500 Du        
    101 ****        10.2500  22.2500  19.5000 Du        
    102 ****        10.2500  22.2500  19.7500 Du        
    103 ****        10.5000  20.7500  19.0000 Du        
    104 ****        10.5000  20.7500  19.2500 Du        
    105 ****        10.5000  20.7500  19.5000 Du        
    106 ****        10.5000  20.7500  19.7500 Du        
    107 ****        10.5000  20.7500  20.0000 Du        
    108 ****        10.5000  20.7500  20.2500 Du        
    109 ****        10.5000  20.7500  20.5000 Du        
    110 ****        10.5000  21.0000  19.0000 Du        
    111 ****        10.5000  21.0000  19.2500 Du        
    112 ****        10.5000  21.0000  19.5000 Du        
    113 ****        10.5000  21.0000  19.7500 Du        
    114 ****        10.5000  21.0000  20.0000 Du        
    115 ****        10.5000  21.0000  20.2500 Du        
    116 ****        10.5000  21.0000  20.5000 Du        
    117 ****        10.5000  21.0000  20.7500 Du        
    118 ****        10.5000  21.2500  19.0000 Du        
    119 ****        10.5000  21.2500  19.2500 Du        
    120 ****        10.5000  21.2500  19.5000 Du        
    121 ****        10.5000  21.2500  19.7500 Du        
    122 ****        10.5000  21.2500  20.0000 Du        
    123 ****        10.5000  21.2500  20.2500 Du        
    124 ****        10.5000  21.2500  20.5000 Du        
    125 ****        10.5000  21.2500  20.7500 Du        
    126 ****        10.5000  21.5000  19.0000 Du        
    127 ****        10.5000  21.5000  19.2500 Du        
    128 ****        10.5000  21.5000  19.5000 Du        
    129 ****        10.5000  21.5000  19.7500 Du        
    130 ****        10.5000  21.5000  20.0000 Du        
    131 ****        10.5000  21.5000  20.2500 Du        
    132 ****        10.5000  21.5000  20.5000 Du        
    133 ****        10.5000  21.5000  20.7500 Du        
    134 ****        10.5000  21.7500  19.0000 Du        
    135 ****        10.5000  21.7500  19.2500 Du        
    136 ****        10.5000  21.7500  19.5000 Du        
    137 ****        10.5000  21.7500  19.7500 Du        
    138 ****        10.5000  21.7500  20.0000 Du        
    139 ****        10.5000  21.7500  20.2500 Du        
    140 ****        10.5000  21.7500  20.5000 Du        
    141 ****        10.5000  22.0000  19.0000 Du        
    142 ****        10.5000  22.0000  19.2500 Du        
    143 ****        10.5000  22.0000  19.5000 Du        
    144 ****        10.5000  22.0000  19.7500 Du        
    145 ****        10.5000  22.0000  20.0000 Du        
    146 ****        10.5000  22.0000  20.2500 Du        
    147 ****        10.5000  22.2500  19.0000 Du        
    148 ****        10.5000  22.2500  19.2500 Du        
    149 ****        10.5000  22.2500  19.5000 Du        
    150 ****        10.5000  22.2500  19.7500 Du        
    151 ****        10.5000  22.2500  20.0000 Du        
    152 ****        10.5000  22.5000  19.2500 Du        
    153 ****        10.5000  22.5000  19.5000 Du        
    154 ****        10.5000  22.5000  19.7500 Du        
    155 ****        10.5000  22.7500  19.2500 Du        
    156 ****        10.5000  22.7500  19.5000 Du        
    157 ****        10.5000  22.7500  19.7500 Du        
    158 ****        10.5000  23.0000  19.0000 Du        
    159 ****        10.5000  23.0000  19.2500 Du        
    160 ****        10.5000  23.0000  19.5000 Du        
    161 ****        10.5000  23.2500  19.0000 Du        
    162 ****        10.7500  20.5000  19.5000 Du        
    163 ****        10.7500  20.7500  18.7500 Du        
    164 ****        10.7500  20.7500  19.0000 Du        
    165 ****        10.7500  20.7500  19.2500 Du        
    166 ****        10.7500  20.7500  19.5000 Du        
    167 ****        10.7500  20.7500  19.7500 Du        
    168 ****        10.7500  20.7500  20.0000 Du        
    169 ****        10.7500  20.7500  20.2500 Du        
    170 ****        10.7500  20.7500  20.5000 Du        
    171 ****        10.7500  21.0000  18.7500 Du        
    172 ****        10.7500  21.0000  19.0000 Du        
    173 ****        10.7500  21.0000  19.2500 Du        
    174 ****        10.7500  21.0000  19.5000 Du        
    175 ****        10.7500  21.0000  19.7500 Du        
    176 ****        10.7500  21.0000  20.0000 Du        
    177 ****        10.7500  21.0000  20.2500 Du        
    178 ****        10.7500  21.0000  20.5000 Du        
    179 ****        10.7500  21.0000  20.7500 Du        
    180 ****        10.7500  21.2500  18.7500 Du        
    181 ****        10.7500  21.2500  19.0000 Du        
    182 ****        10.7500  21.2500  19.2500 Du        
    183 ****        10.7500  21.2500  19.5000 Du        
    184 ****        10.7500  21.2500  19.7500 Du        
    185 ****        10.7500  21.2500  20.0000 Du        
    186 ****        10.7500  21.2500  20.2500 Du        
    187 ****        10.7500  21.2500  20.5000 Du        
    188 ****        10.7500  21.2500  20.7500 Du        
    189 ****        10.7500  21.5000  18.7500 Du        
    190 ****        10.7500  21.5000  19.0000 Du        
    191 ****        10.7500  21.5000  19.2500 Du        
    192 ****        10.7500  21.5000  19.5000 Du        
    193 ****        10.7500  21.5000  19.7500 Du        
    194 ****        10.7500  21.5000  20.0000 Du        
    195 ****        10.7500  21.5000  20.2500 Du        
    196 ****        10.7500  21.5000  20.5000 Du        
    197 ****        10.7500  21.5000  20.7500 Du        
    198 ****        10.7500  21.7500  18.7500 Du        
    199 ****        10.7500  21.7500  19.0000 Du        
    200 ****        10.7500  21.7500  19.2500 Du        
    201 ****        10.7500  21.7500  19.5000 Du        
    202 ****        10.7500  21.7500  19.7500 Du        
    203 ****        10.7500  21.7500  20.0000 Du        
    204 ****        10.7500  21.7500  20.2500 Du        
    205 ****        10.7500  21.7500  20.5000 Du        
    206 ****        10.7500  22.0000  18.7500 Du        
    207 ****        10.7500  22.0000  19.0000 Du        
    208 ****        10.7500  22.0000  19.2500 Du        
    209 ****        10.7500  22.0000  19.5000 Du        
    210 ****        10.7500  22.0000  19.7500 Du        
    211 ****        10.7500  22.0000  20.0000 Du        
    212 ****        10.7500  22.0000  20.2500 Du        
    213 ****        10.7500  22.0000  20.5000 Du        
    214 ****        10.7500  22.2500  18.7500 Du        
    215 ****        10.7500  22.2500  19.0000 Du        
    216 ****        10.7500  22.2500  19.2500 Du        
    217 ****        10.7500  22.2500  19.5000 Du        
    218 ****        10.7500  22.2500  19.7500 Du        
    219 ****        10.7500  22.2500  20.0000 Du        
    220 ****        10.7500  22.2500  20.2500 Du        
    221 ****        10.7500  22.5000  18.7500 Du        
    222 ****        10.7500  22.5000  19.0000 Du        
    223 ****        10.7500  22.5000  19.2500 Du        
    224 ****        10.7500  22.5000  19.5000 Du        
    225 ****        10.7500  22.5000  19.7500 Du        
    226 ****        10.7500  22.5000  20.0000 Du        
    227 ****        10.7500  22.7500  18.7500 Du        
    228 ****        10.7500  22.7500  19.0000 Du        
    229 ****        10.7500  22.7500  19.2500 Du        
    230 ****        10.7500  22.7500  19.5000 Du        
    231 ****        10.7500  22.7500  19.7500 Du        
    232 ****        10.7500  22.7500  20.0000 Du        
    233 ****        10.7500  23.0000  18.5000 Du        
    234 ****        10.7500  23.0000  18.7500 Du        
    235 ****        10.7500  23.0000  19.0000 Du        
    236 ****        10.7500  23.0000  19.2500 Du        
    237 ****        10.7500  23.0000  19.5000 Du        
    238 ****        10.7500  23.0000  19.7500 Du        
    239 ****        10.7500  23.2500  18.5000 Du        
    240 ****        10.7500  23.2500  18.7500 Du        
    241 ****        10.7500  23.2500  19.0000 Du        
    242 ****        10.7500  23.2500  19.2500 Du        
    243 ****        10.7500  23.2500  19.5000 Du        
    244 ****        10.7500  23.2500  19.7500 Du        
    245 ****        10.7500  23.5000  19.0000 Du        
    246 ****        10.7500  23.5000  19.2500 Du        
    247 ****        10.7500  23.7500  19.2500 Du        
    248 ****        11.0000  20.7500  18.7500 Du        
    249 ****        11.0000  20.7500  19.0000 Du        
    250 ****        11.0000  20.7500  19.2500 Du        
    251 ****        11.0000  20.7500  19.5000 Du        
    252 ****        11.0000  20.7500  19.7500 Du        
    253 ****        11.0000  20.7500  20.0000 Du        
    254 ****        11.0000  20.7500  20.2500 Du        
    255 ****        11.0000  20.7500  20.5000 Du        
    256 ****        11.0000  21.0000  18.5000 Du        
    257 ****        11.0000  21.0000  18.7500 Du        
    258 ****        11.0000  21.0000  19.0000 Du        
    259 ****        11.0000  21.0000  19.2500 Du        
    260 ****        11.0000  21.0000  19.5000 Du        
    261 ****        11.0000  21.0000  19.7500 Du        
    262 ****        11.0000  21.0000  20.0000 Du        
    263 ****        11.0000  21.0000  20.2500 Du        
    264 ****        11.0000  21.0000  20.5000 Du        
    265 ****        11.0000  21.0000  20.7500 Du        
    266 ****        11.0000  21.2500  18.5000 Du        
    267 ****        11.0000  21.2500  18.7500 Du        
    268 ****        11.0000  21.2500  19.0000 Du        
    269 ****        11.0000  21.2500  19.2500 Du        
    270 ****        11.0000  21.2500  19.5000 Du        
    271 ****        11.0000  21.2500  19.7500 Du        
    272 ****        11.0000  21.2500  20.0000 Du        
    273 ****        11.0000  21.2500  20.2500 Du        
    274 ****        11.0000  21.2500  20.5000 Du        
    275 ****        11.0000  21.2500  20.7500 Du        
    276 ****        11.0000  21.5000  18.5000 Du        
    277 ****        11.0000  21.5000  18.7500 Du        
    278 ****        11.0000  21.5000  19.0000 Du        
    279 ****        11.0000  21.5000  19.2500 Du        
    280 ****        11.0000  21.5000  19.5000 Du        
    281 ****        11.0000  21.5000  19.7500 Du        
    282 ****        11.0000  21.5000  20.0000 Du        
    283 ****        11.0000  21.5000  20.2500 Du        
    284 ****        11.0000  21.5000  20.5000 Du        
    285 ****        11.0000  21.5000  20.7500 Du        
    286 ****        11.0000  21.7500  18.2500 Du        
    287 ****        11.0000  21.7500  18.5000 Du        
    288 ****        11.0000  21.7500  18.7500 Du        
    289 ****        11.0000  21.7500  19.0000 Du        
    290 ****        11.0000  21.7500  19.2500 Du        
    291 ****        11.0000  21.7500  19.5000 Du        
    292 ****        11.0000  21.7500  19.7500 Du        
    293 ****        11.0000  21.7500  20.0000 Du        
    294 ****        11.0000  21.7500  20.2500 Du        
    295 ****        11.0000  21.7500  20.5000 Du        
    296 ****        11.0000  22.0000  18.2500 Du        
    297 ****        11.0000  22.0000  18.5000 Du        
    298 ****        11.0000  22.0000  18.7500 Du        
    299 ****        11.0000  22.0000  19.0000 Du        
    300 ****        11.0000  22.0000  19.2500 Du        
    301 ****        11.0000  22.0000  19.5000 Du        
    302 ****        11.0000  22.0000  19.7500 Du        
    303 ****        11.0000  22.0000  20.0000 Du        
    304 ****        11.0000  22.0000  20.2500 Du        
    305 ****        11.0000  22.0000  20.5000 Du        
    306 ****        11.0000  22.2500  18.2500 Du        
    307 ****        11.0000  22.2500  18.5000 Du        
    308 ****        11.0000  22.2500  18.7500 Du        
    309 ****        11.0000  22.2500  19.0000 Du        
    310 ****        11.0000  22.2500  19.2500 Du        
    311 ****        11.0000  22.2500  19.5000 Du        
    312 ****        11.0000  22.2500  19.7500 Du        
    313 ****        11.0000  22.2500  20.0000 Du        
    314 ****        11.0000  22.2500  20.2500 Du        
    315 ****        11.0000  22.2500  20.5000 Du        
    316 ****        11.0000  22.5000  18.2500 Du        
    317 ****        11.0000  22.5000  18.5000 Du        
    318 ****        11.0000  22.5000  18.7500 Du        
    319 ****        11.0000  22.5000  19.0000 Du        
    320 ****        11.0000  22.5000  19.2500 Du        
    321 ****        11.0000  22.5000  19.5000 Du        
    322 ****        11.0000  22.5000  19.7500 Du        
    323 ****        11.0000  22.5000  20.0000 Du        
    324 ****        11.0000  22.5000  20.2500 Du        
    325 ****        11.0000  22.7500  18.0000 Du        
    326 ****        11.0000  22.7500  18.2500 Du        
    327 ****        11.0000  22.7500  18.5000 Du        
    328 ****        11.0000  22.7500  18.7500 Du        
    329 ****        11.0000  22.7500  19.0000 Du        
    330 ****        11.0000  22.7500  19.2500 Du        
    331 ****        11.0000  22.7500  19.5000 Du        
    332 ****        11.0000  22.7500  19.7500 Du        
    333 ****        11.0000  22.7500  20.0000 Du        
    334 ****        11.0000  22.7500  20.2500 Du        
    335 ****        11.0000  23.0000  16.5000 Du        
    336 ****        11.0000  23.0000  16.7500 Du        
    337 ****        11.0000  23.0000  17.0000 Du        
    338 ****        11.0000  23.0000  18.0000 Du        
    339 ****        11.0000  23.0000  18.2500 Du        
    340 ****        11.0000  23.0000  18.5000 Du        
    341 ****        11.0000  23.0000  18.7500 Du        
    342 ****        11.0000  23.0000  19.0000 Du        
    343 ****        11.0000  23.0000  19.2500 Du        
    344 ****        11.0000  23.0000  19.5000 Du        
    345 ****        11.0000  23.0000  19.7500 Du        
    346 ****        11.0000  23.0000  20.0000 Du        
    347 ****        11.0000  23.0000  20.2500 Du        
    348 ****        11.0000  23.2500  16.2500 Du        
    349 ****        11.0000  23.2500  16.5000 Du        
    350 ****        11.0000  23.2500  16.7500 Du        
    351 ****        11.0000  23.2500  17.0000 Du        
    352 ****        11.0000  23.2500  18.5000 Du        
    353 ****        11.0000  23.2500  18.7500 Du        
    354 ****        11.0000  23.2500  19.0000 Du        
    355 ****        11.0000  23.2500  19.2500 Du        
    356 ****        11.0000  23.2500  19.5000 Du        
    357 ****        11.0000  23.2500  19.7500 Du        
    358 ****        11.0000  23.2500  20.0000 Du        
    359 ****        11.0000  23.5000  16.2500 Du        
    360 ****        11.0000  23.5000  16.5000 Du        
    361 ****        11.0000  23.5000  19.2500 Du        
    362 ****        11.2500  20.7500  19.0000 Du        
    363 ****        11.2500  20.7500  19.2500 Du        
    364 ****        11.2500  20.7500  19.5000 Du        
    365 ****        11.2500  20.7500  19.7500 Du        
    366 ****        11.2500  20.7500  20.0000 Du        
    367 ****        11.2500  20.7500  20.2500 Du        
    368 ****        11.2500  21.0000  18.7500 Du        
    369 ****        11.2500  21.0000  19.0000 Du        
    370 ****        11.2500  21.0000  19.2500 Du        
    371 ****        11.2500  21.0000  19.5000 Du        
    372 ****        11.2500  21.0000  19.7500 Du        
    373 ****        11.2500  21.0000  20.0000 Du        
    374 ****        11.2500  21.0000  20.2500 Du        
    375 ****        11.2500  21.0000  20.5000 Du        
    376 ****        11.2500  21.0000  20.7500 Du        
    377 ****        11.2500  21.2500  18.5000 Du        
    378 ****        11.2500  21.2500  18.7500 Du        
    379 ****        11.2500  21.2500  19.0000 Du        
    380 ****        11.2500  21.2500  19.2500 Du        
    381 ****        11.2500  21.2500  19.5000 Du        
    382 ****        11.2500  21.2500  19.7500 Du        
    383 ****        11.2500  21.2500  20.0000 Du        
    384 ****        11.2500  21.2500  20.2500 Du        
    385 ****        11.2500  21.2500  20.5000 Du        
    386 ****        11.2500  21.2500  20.7500 Du        
    387 ****        11.2500  21.5000  18.2500 Du        
    388 ****        11.2500  21.5000  18.5000 Du        
    389 ****        11.2500  21.5000  18.7500 Du        
    390 ****        11.2500  21.5000  19.0000 Du        
    391 ****        11.2500  21.5000  19.2500 Du        
    392 ****        11.2500  21.5000  19.5000 Du        
    393 ****        11.2500  21.5000  19.7500 Du        
    394 ****        11.2500  21.5000  20.0000 Du        
    395 ****        11.2500  21.5000  20.2500 Du        
    396 ****        11.2500  21.5000  20.5000 Du        
    397 ****        11.2500  21.5000  20.7500 Du        
    398 ****        11.2500  21.7500  18.0000 Du        
    399 ****        11.2500  21.7500  18.2500 Du        
    400 ****        11.2500  21.7500  18.5000 Du        
    401 ****        11.2500  21.7500  18.7500 Du        
    402 ****        11.2500  21.7500  19.0000 Du        
    403 ****        11.2500  21.7500  19.2500 Du        
    404 ****        11.2500  21.7500  19.5000 Du        
    405 ****        11.2500  21.7500  19.7500 Du        
    406 ****        11.2500  21.7500  20.0000 Du        
    407 ****        11.2500  21.7500  20.2500 Du        
    408 ****        11.2500  21.7500  20.5000 Du        
    409 ****        11.2500  22.0000  18.0000 Du        
    410 ****        11.2500  22.0000  18.2500 Du        
    411 ****        11.2500  22.0000  18.5000 Du        
    412 ****        11.2500  22.0000  18.7500 Du        
    413 ****        11.2500  22.0000  19.0000 Du        
    414 ****        11.2500  22.0000  19.2500 Du        
    415 ****        11.2500  22.0000  19.5000 Du        
    416 ****        11.2500  22.0000  19.7500 Du        
    417 ****        11.2500  22.0000  20.0000 Du        
    418 ****        11.2500  22.0000  20.2500 Du        
    419 ****        11.2500  22.0000  20.5000 Du        
    420 ****        11.2500  22.2500  17.7500 Du        
    421 ****        11.2500  22.2500  18.0000 Du        
    422 ****        11.2500  22.2500  18.2500 Du        
    423 ****        11.2500  22.2500  18.5000 Du        
    424 ****        11.2500  22.2500  18.7500 Du        
    425 ****        11.2500  22.2500  19.0000 Du        
    426 ****        11.2500  22.2500  19.2500 Du        
    427 ****        11.2500  22.2500  19.5000 Du        
    428 ****        11.2500  22.2500  19.7500 Du        
    429 ****        11.2500  22.2500  20.0000 Du        
    430 ****        11.2500  22.2500  20.2500 Du        
    431 ****        11.2500  22.2500  20.5000 Du        
    432 ****        11.2500  22.5000  17.2500 Du        
    433 ****        11.2500  22.5000  17.5000 Du        
    434 ****        11.2500  22.5000  17.7500 Du        
    435 ****        11.2500  22.5000  18.0000 Du        
    436 ****        11.2500  22.5000  18.2500 Du        
    437 ****        11.2500  22.5000  18.5000 Du        
    438 ****        11.2500  22.5000  18.7500 Du        
    439 ****        11.2500  22.5000  19.0000 Du        
    440 ****        11.2500  22.5000  19.2500 Du        
    441 ****        11.2500  22.5000  19.5000 Du        
    442 ****        11.2500  22.5000  19.7500 Du        
    443 ****        11.2500  22.5000  20.0000 Du        
    444 ****        11.2500  22.5000  20.2500 Du        
    445 ****        11.2500  22.5000  20.5000 Du        
    446 ****        11.2500  22.7500  16.7500 Du        
    447 ****        11.2500  22.7500  17.0000 Du        
    448 ****        11.2500  22.7500  17.2500 Du        
    449 ****        11.2500  22.7500  17.5000 Du        
    450 ****        11.2500  22.7500  17.7500 Du        
    451 ****        11.2500  22.7500  18.0000 Du        
    452 ****        11.2500  22.7500  18.2500 Du        
    453 ****        11.2500  22.7500  18.5000 Du        
    454 ****        11.2500  22.7500  18.7500 Du        
    455 ****        11.2500  22.7500  19.0000 Du        
    456 ****        11.2500  22.7500  19.2500 Du        
    457 ****        11.2500  22.7500  19.5000 Du        
    458 ****        11.2500  22.7500  19.7500 Du        
    459 ****        11.2500  22.7500  20.0000 Du        
    460 ****        11.2500  22.7500  20.2500 Du        
    461 ****        11.2500  22.7500  20.5000 Du        
    462 ****        11.2500  23.0000  16.2500 Du        
    463 ****        11.2500  23.0000  16.5000 Du        
    464 ****        11.2500  23.0000  16.7500 Du        
    465 ****        11.2500  23.0000  17.0000 Du        
    466 ****        11.2500  23.0000  17.2500 Du        
    467 ****        11.2500  23.0000  18.7500 Du        
    468 ****        11.2500  23.0000  19.0000 Du        
    469 ****        11.2500  23.0000  19.2500 Du        
    470 ****        11.2500  23.0000  19.5000 Du        
    471 ****        11.2500  23.0000  19.7500 Du        
    472 ****        11.2500  23.0000  20.0000 Du        
    473 ****        11.2500  23.0000  20.2500 Du        
    474 ****        11.2500  23.2500  16.2500 Du        
    475 ****        11.2500  23.2500  16.5000 Du        
    476 ****        11.2500  23.2500  16.7500 Du        
    477 ****        11.2500  23.2500  19.2500 Du        
    478 ****        11.2500  23.2500  19.5000 Du        
    479 ****        11.2500  23.2500  19.7500 Du        
    480 ****        11.2500  23.2500  20.0000 Du        
    481 ****        11.2500  23.2500  20.2500 Du        
    482 ****        11.2500  23.5000  16.2500 Du        
    483 ****        11.2500  25.2500  20.5000 Du        
    484 ****        11.2500  25.2500  20.7500 Du        
    485 ****        11.2500  25.5000  20.5000 Du        
    486 ****        11.2500  25.5000  20.7500 Du        
    487 ****        11.2500  25.5000  21.0000 Du        
    488 ****        11.2500  25.7500  20.5000 Du        
    489 ****        11.2500  25.7500  20.7500 Du        
    490 ****        11.2500  25.7500  21.0000 Du        
    491 ****        11.2500  25.7500  21.2500 Du        
    492 ****        11.2500  26.0000  21.0000 Du        
    493 ****        11.2500  26.0000  21.2500 Du        
    494 ****        11.2500  26.2500  21.2500 Du        
    495 ****        11.5000  20.7500  19.5000 Du        
    496 ****        11.5000  20.7500  19.7500 Du        
    497 ****        11.5000  20.7500  20.0000 Du        
    498 ****        11.5000  20.7500  20.2500 Du        
    499 ****        11.5000  21.0000  19.0000 Du        
    500 ****        11.5000  21.0000  19.2500 Du        
    501 ****        11.5000  21.0000  19.5000 Du        
    502 ****        11.5000  21.0000  19.7500 Du        
    503 ****        11.5000  21.0000  20.0000 Du        
    504 ****        11.5000  21.0000  20.2500 Du        
    505 ****        11.5000  21.0000  20.5000 Du        
    506 ****        11.5000  21.2500  18.5000 Du        
    507 ****        11.5000  21.2500  18.7500 Du        
    508 ****        11.5000  21.2500  19.0000 Du        
    509 ****        11.5000  21.2500  19.2500 Du        
    510 ****        11.5000  21.2500  19.5000 Du        
    511 ****        11.5000  21.2500  19.7500 Du        
    512 ****        11.5000  21.2500  20.0000 Du        
    513 ****        11.5000  21.2500  20.2500 Du        
    514 ****        11.5000  21.2500  20.5000 Du        
    515 ****        11.5000  21.2500  20.7500 Du        
    516 ****        11.5000  21.5000  18.5000 Du        
    517 ****        11.5000  21.5000  18.7500 Du        
    518 ****        11.5000  21.5000  19.0000 Du        
    519 ****        11.5000  21.5000  19.2500 Du        
    520 ****        11.5000  21.5000  19.5000 Du        
    521 ****        11.5000  21.5000  19.7500 Du        
    522 ****        11.5000  21.5000  20.0000 Du        
    523 ****        11.5000  21.5000  20.2500 Du        
    524 ****        11.5000  21.5000  20.5000 Du        
    525 ****        11.5000  21.7500  18.2500 Du        
    526 ****        11.5000  21.7500  18.5000 Du        
    527 ****        11.5000  21.7500  18.7500 Du        
    528 ****        11.5000  21.7500  19.0000 Du        
    529 ****        11.5000  21.7500  19.2500 Du        
    530 ****        11.5000  21.7500  19.5000 Du        
    531 ****        11.5000  21.7500  19.7500 Du        
    532 ****        11.5000  21.7500  20.0000 Du        
    533 ****        11.5000  21.7500  20.2500 Du        
    534 ****        11.5000  21.7500  20.5000 Du        
    535 ****        11.5000  21.7500  34.0000 Du        
    536 ****        11.5000  22.0000  18.0000 Du        
    537 ****        11.5000  22.0000  18.2500 Du        
    538 ****        11.5000  22.0000  18.5000 Du        
    539 ****        11.5000  22.0000  18.7500 Du        
    540 ****        11.5000  22.0000  19.0000 Du        
    541 ****        11.5000  22.0000  19.2500 Du        
    542 ****        11.5000  22.0000  19.5000 Du        
    543 ****        11.5000  22.0000  19.7500 Du        
    544 ****        11.5000  22.0000  20.0000 Du        
    545 ****        11.5000  22.0000  20.2500 Du        
    546 ****        11.5000  22.0000  20.5000 Du        
    547 ****        11.5000  22.0000  34.0000 Du        
    548 ****        11.5000  22.2500  17.7500 Du        
    549 ****        11.5000  22.2500  18.0000 Du        
    550 ****        11.5000  22.2500  18.2500 Du        
    551 ****        11.5000  22.2500  18.5000 Du        
    552 ****        11.5000  22.2500  18.7500 Du        
    553 ****        11.5000  22.2500  19.0000 Du        
    554 ****        11.5000  22.2500  19.2500 Du        
    555 ****        11.5000  22.2500  19.5000 Du        
    556 ****        11.5000  22.2500  19.7500 Du        
    557 ****        11.5000  22.2500  20.0000 Du        
    558 ****        11.5000  22.2500  20.2500 Du        
    559 ****        11.5000  22.2500  20.5000 Du        
    560 ****        11.5000  22.5000  19.7500 Du        
    561 ****        11.5000  22.5000  20.0000 Du        
    562 ****        11.5000  22.5000  20.2500 Du        
    563 ****        11.5000  22.7500  16.7500 Du        
    564 ****        11.5000  22.7500  17.0000 Du        
    565 ****        11.5000  22.7500  19.7500 Du        
    566 ****        11.5000  22.7500  20.0000 Du        
    567 ****        11.5000  22.7500  20.2500 Du        
    568 ****        11.5000  23.0000  16.2500 Du        
    569 ****        11.5000  23.0000  16.5000 Du        
    570 ****        11.5000  23.0000  20.0000 Du        
    571 ****        11.5000  23.0000  20.2500 Du        
    572 ****        11.5000  23.2500  16.2500 Du        
    573 ****        11.5000  24.7500  20.7500 Du        
    574 ****        11.5000  25.0000  20.5000 Du        
    575 ****        11.5000  25.0000  20.7500 Du        
    576 ****        11.5000  25.0000  21.0000 Du        
    577 ****        11.5000  25.2500  20.5000 Du        
    578 ****        11.5000  25.2500  20.7500 Du        
    579 ****        11.5000  25.2500  21.0000 Du        
    580 ****        11.5000  25.2500  21.2500 Du        
    581 ****        11.5000  25.5000  20.7500 Du        
    582 ****        11.5000  25.5000  21.0000 Du        
    583 ****        11.5000  25.5000  21.5000 Du        
    584 ****        11.5000  25.7500  20.7500 Du        
    585 ****        11.5000  25.7500  21.0000 Du        
    586 ****        11.5000  25.7500  21.2500 Du        
    587 ****        11.5000  25.7500  21.5000 Du        
    588 ****        11.5000  26.0000  20.7500 Du        
    589 ****        11.5000  26.0000  21.0000 Du        
    590 ****        11.5000  26.0000  21.2500 Du        
    591 ****        11.5000  26.0000  21.5000 Du        
    592 ****        11.7500  20.7500  20.0000 Du        
    593 ****        11.7500  20.7500  20.2500 Du        
    594 ****        11.7500  20.7500  20.5000 Du        
    595 ****        11.7500  21.0000  19.2500 Du        
    596 ****        11.7500  21.0000  19.5000 Du        
    597 ****        11.7500  21.0000  19.7500 Du        
    598 ****        11.7500  21.0000  20.0000 Du        
    599 ****        11.7500  21.0000  20.2500 Du        
    600 ****        11.7500  21.0000  20.5000 Du        
    601 ****        11.7500  21.0000  20.7500 Du        
    602 ****        11.7500  21.2500  18.7500 Du        
    603 ****        11.7500  21.2500  19.0000 Du        
    604 ****        11.7500  21.2500  19.2500 Du        
    605 ****        11.7500  21.2500  19.5000 Du        
    606 ****        11.7500  21.2500  19.7500 Du        
    607 ****        11.7500  21.2500  20.0000 Du        
    608 ****        11.7500  21.2500  20.2500 Du        
    609 ****        11.7500  21.2500  20.5000 Du        
    610 ****        11.7500  21.2500  20.7500 Du        
    611 ****        11.7500  21.2500  33.2500 Du        
    612 ****        11.7500  21.2500  33.5000 Du        
    613 ****        11.7500  21.2500  33.7500 Du        
    614 ****        11.7500  21.2500  34.0000 Du        
    615 ****        11.7500  21.5000  18.7500 Du        
    616 ****        11.7500  21.5000  19.0000 Du        
    617 ****        11.7500  21.5000  19.2500 Du        
    618 ****        11.7500  21.5000  19.5000 Du        
    619 ****        11.7500  21.5000  19.7500 Du        
    620 ****        11.7500  21.5000  20.0000 Du        
    621 ****        11.7500  21.5000  20.2500 Du        
    622 ****        11.7500  21.5000  20.5000 Du        
    623 ****        11.7500  21.5000  20.7500 Du        
    624 ****        11.7500  21.5000  33.2500 Du        
    625 ****        11.7500  21.5000  33.5000 Du        
    626 ****        11.7500  21.5000  33.7500 Du        
    627 ****        11.7500  21.5000  34.0000 Du        
    628 ****        11.7500  21.7500  18.7500 Du        
    629 ****        11.7500  21.7500  19.0000 Du        
    630 ****        11.7500  21.7500  19.2500 Du        
    631 ****        11.7500  21.7500  19.5000 Du        
    632 ****        11.7500  21.7500  19.7500 Du        
    633 ****        11.7500  21.7500  20.0000 Du        
    634 ****        11.7500  21.7500  20.2500 Du        
    635 ****        11.7500  21.7500  20.5000 Du        
    636 ****        11.7500  21.7500  20.7500 Du        
    637 ****        11.7500  21.7500  33.2500 Du        
    638 ****        11.7500  21.7500  33.5000 Du        
    639 ****        11.7500  21.7500  33.7500 Du        
    640 ****        11.7500  21.7500  34.0000 Du        
    641 ****        11.7500  22.0000  19.7500 Du        
    642 ****        11.7500  22.0000  20.0000 Du        
    643 ****        11.7500  22.0000  20.2500 Du        
    644 ****        11.7500  22.0000  20.5000 Du        
    645 ****        11.7500  22.0000  33.5000 Du        
    646 ****        11.7500  22.0000  33.7500 Du        
    647 ****        11.7500  22.0000  34.0000 Du        
    648 ****        11.7500  22.2500  20.0000 Du        
    649 ****        11.7500  22.2500  20.2500 Du        
    650 ****        11.7500  22.2500  20.5000 Du        
    651 ****        11.7500  24.2500  20.7500 Du        
    652 ****        11.7500  24.5000  21.0000 Du        
    653 ****        11.7500  24.7500  20.7500 Du        
    654 ****        11.7500  24.7500  21.0000 Du        
    655 ****        11.7500  24.7500  21.2500 Du        
    656 ****        11.7500  25.0000  20.7500 Du        
    657 ****        11.7500  25.0000  21.0000 Du        
    658 ****        11.7500  25.0000  21.2500 Du        
    659 ****        11.7500  25.0000  21.5000 Du        
    660 ****        11.7500  25.2500  20.7500 Du        
    661 ****        11.7500  25.2500  21.0000 Du        
    662 ****        11.7500  25.2500  21.2500 Du        
    663 ****        11.7500  25.2500  21.5000 Du        
    664 ****        11.7500  25.5000  20.7500 Du        
    665 ****        11.7500  25.5000  21.0000 Du        
    666 ****        11.7500  25.5000  21.2500 Du        
    667 ****        11.7500  25.5000  21.5000 Du        
    668 ****        11.7500  25.5000  21.7500 Du        
    669 ****        11.7500  25.7500  20.7500 Du        
    670 ****        11.7500  25.7500  21.0000 Du        
    671 ****        11.7500  25.7500  21.2500 Du        
    672 ****        11.7500  25.7500  21.5000 Du        
    673 ****        11.7500  25.7500  21.7500 Du        
    674 ****        11.7500  26.0000  20.7500 Du        
    675 ****        11.7500  26.0000  21.0000 Du        
    676 ****        11.7500  26.0000  21.2500 Du        
    677 ****        11.7500  26.0000  21.5000 Du        
    678 ****        11.7500  26.0000  21.7500 Du        
    679 ****        11.7500  26.2500  21.2500 Du        
    680 ****        11.7500  26.2500  21.5000 Du        
    681 ****        11.7500  26.2500  21.7500 Du        
    682 ****        12.0000  20.7500  20.2500 Du        
    683 ****        12.0000  20.7500  20.5000 Du        
    684 ****        12.0000  21.0000  19.7500 Du        
    685 ****        12.0000  21.0000  20.0000 Du        
    686 ****        12.0000  21.0000  20.2500 Du        
    687 ****        12.0000  21.0000  20.5000 Du        
    688 ****        12.0000  21.0000  20.7500 Du        
    689 ****        12.0000  21.0000  33.0000 Du        
    690 ****        12.0000  21.0000  33.2500 Du        
    691 ****        12.0000  21.2500  19.2500 Du        
    692 ****        12.0000  21.2500  19.5000 Du        
    693 ****        12.0000  21.2500  19.7500 Du        
    694 ****        12.0000  21.2500  20.0000 Du        
    695 ****        12.0000  21.2500  20.2500 Du        
    696 ****        12.0000  21.2500  20.5000 Du        
    697 ****        12.0000  21.2500  20.7500 Du        
    698 ****        12.0000  21.2500  33.0000 Du        
    699 ****        12.0000  21.2500  33.2500 Du        
    700 ****        12.0000  21.2500  33.5000 Du        
    701 ****        12.0000  21.2500  33.7500 Du        
    702 ****        12.0000  21.2500  34.0000 Du        
    703 ****        12.0000  21.5000  19.7500 Du        
    704 ****        12.0000  21.5000  20.0000 Du        
    705 ****        12.0000  21.5000  20.2500 Du        
    706 ****        12.0000  21.5000  20.5000 Du        
    707 ****        12.0000  21.5000  20.7500 Du        
    708 ****        12.0000  21.5000  33.2500 Du        
    709 ****        12.0000  21.5000  33.5000 Du        
    710 ****        12.0000  21.5000  33.7500 Du        
    711 ****        12.0000  21.5000  34.0000 Du        
    712 ****        12.0000  21.7500  20.0000 Du        
    713 ****        12.0000  21.7500  20.2500 Du        
    714 ****        12.0000  21.7500  20.5000 Du        
    715 ****        12.0000  21.7500  20.7500 Du        
    716 ****        12.0000  21.7500  33.2500 Du        
    717 ****        12.0000  21.7500  33.5000 Du        
    718 ****        12.0000  21.7500  33.7500 Du        
    719 ****        12.0000  21.7500  34.0000 Du        
    720 ****        12.0000  22.0000  20.5000 Du        
    721 ****        12.0000  22.0000  33.5000 Du        
    722 ****        12.0000  22.0000  33.7500 Du        
    723 ****        12.0000  22.0000  34.0000 Du        
    724 ****        12.0000  24.2500  21.2500 Du        
    725 ****        12.0000  24.5000  21.0000 Du        
    726 ****        12.0000  24.5000  21.2500 Du        
    727 ****        12.0000  24.7500  21.0000 Du        
    728 ****        12.0000  24.7500  21.2500 Du        
    729 ****        12.0000  24.7500  21.5000 Du        
    730 ****        12.0000  25.0000  20.7500 Du        
    731 ****        12.0000  25.0000  21.0000 Du        
    732 ****        12.0000  25.0000  21.2500 Du        
    733 ****        12.0000  25.0000  21.5000 Du        
    734 ****        12.0000  25.0000  21.7500 Du        
    735 ****        12.0000  25.2500  20.7500 Du        
    736 ****        12.0000  25.2500  21.0000 Du        
    737 ****        12.0000  25.2500  21.2500 Du        
    738 ****        12.0000  25.2500  21.5000 Du        
    739 ****        12.0000  25.2500  21.7500 Du        
    740 ****        12.0000  25.5000  21.0000 Du        
    741 ****        12.0000  25.5000  21.2500 Du        
    742 ****        12.0000  25.5000  21.5000 Du        
    743 ****        12.0000  25.5000  21.7500 Du        
    744 ****        12.0000  25.5000  22.0000 Du        
    745 ****        12.0000  25.7500  21.0000 Du        
    746 ****        12.0000  25.7500  21.2500 Du        
    747 ****        12.0000  25.7500  21.5000 Du        
    748 ****        12.0000  25.7500  21.7500 Du        
    749 ****        12.0000  25.7500  22.0000 Du        
    750 ****        12.0000  26.0000  21.0000 Du        
    751 ****        12.0000  26.0000  21.2500 Du        
    752 ****        12.0000  26.0000  21.5000 Du        
    753 ****        12.0000  26.0000  21.7500 Du        
    754 ****        12.0000  26.0000  22.0000 Du        
    755 ****        12.0000  26.0000  22.2500 Du        
    756 ****        12.0000  26.2500  21.2500 Du        
    757 ****        12.0000  26.2500  21.5000 Du        
    758 ****        12.0000  26.2500  21.7500 Du        
    759 ****        12.0000  26.2500  22.0000 Du        
    760 ****        12.2500  20.7500  20.5000 Du        
    761 ****        12.2500  21.0000  20.0000 Du        
    762 ****        12.2500  21.0000  20.2500 Du        
    763 ****        12.2500  21.0000  20.5000 Du        
    764 ****        12.2500  21.0000  20.7500 Du        
    765 ****        12.2500  21.0000  33.0000 Du        
    766 ****        12.2500  21.2500  20.0000 Du        
    767 ****        12.2500  21.2500  20.2500 Du        
    768 ****        12.2500  21.2500  20.5000 Du        
    769 ****        12.2500  21.2500  20.7500 Du        
    770 ****        12.2500  21.2500  33.0000 Du        
    771 ****        12.2500  21.2500  33.2500 Du        
    772 ****        12.2500  21.2500  33.5000 Du        
    773 ****        12.2500  21.2500  33.7500 Du        
    774 ****        12.2500  21.2500  34.0000 Du        
    775 ****        12.2500  21.5000  20.2500 Du        
    776 ****        12.2500  21.5000  20.5000 Du        
    777 ****        12.2500  21.5000  20.7500 Du        
    778 ****        12.2500  21.5000  33.2500 Du        
    779 ****        12.2500  21.5000  33.5000 Du        
    780 ****        12.2500  21.5000  33.7500 Du        
    781 ****        12.2500  21.5000  34.0000 Du        
    782 ****        12.2500  21.7500  33.2500 Du        
    783 ****        12.2500  21.7500  33.5000 Du        
    784 ****        12.2500  21.7500  33.7500 Du        
    785 ****        12.2500  21.7500  34.0000 Du        
    786 ****        12.2500  22.0000  33.5000 Du        
    787 ****        12.2500  22.0000  33.7500 Du        
    788 ****        12.2500  22.0000  34.0000 Du        
    789 ****        12.2500  24.5000  21.5000 Du        
    790 ****        12.2500  24.7500  21.2500 Du        
    791 ****        12.2500  24.7500  21.5000 Du        
    792 ****        12.2500  24.7500  21.7500 Du        
    793 ****        12.2500  25.0000  21.0000 Du        
    794 ****        12.2500  25.0000  21.2500 Du        
    795 ****        12.2500  25.0000  21.5000 Du        
    796 ****        12.2500  25.0000  21.7500 Du        
    797 ****        12.2500  25.0000  22.0000 Du        
    798 ****        12.2500  25.2500  21.0000 Du        
    799 ****        12.2500  25.2500  21.2500 Du        
    800 ****        12.2500  25.2500  21.5000 Du        
    801 ****        12.2500  25.2500  21.7500 Du        
    802 ****        12.2500  25.2500  22.0000 Du        
    803 ****        12.2500  25.5000  21.0000 Du        
    804 ****        12.2500  25.5000  21.2500 Du        
    805 ****        12.2500  25.5000  21.5000 Du        
    806 ****        12.2500  25.5000  21.7500 Du        
    807 ****        12.2500  25.5000  22.0000 Du        
    808 ****        12.2500  25.5000  22.2500 Du        
    809 ****        12.2500  25.7500  21.0000 Du        
    810 ****        12.2500  25.7500  21.2500 Du        
    811 ****        12.2500  25.7500  21.5000 Du        
    812 ****        12.2500  25.7500  21.7500 Du        
    813 ****        12.2500  25.7500  22.0000 Du        
    814 ****        12.2500  25.7500  22.2500 Du        
    815 ****        12.2500  26.0000  21.2500 Du        
    816 ****        12.2500  26.0000  21.5000 Du        
    817 ****        12.2500  26.0000  21.7500 Du        
    818 ****        12.2500  26.0000  22.0000 Du        
    819 ****        12.2500  26.2500  21.5000 Du        
    820 ****        12.2500  26.2500  21.7500 Du        
    821 ****        12.2500  26.2500  22.0000 Du        
    822 ****        12.5000  20.0000  26.5000 Du        
    823 ****        12.5000  20.2500  26.5000 Du        
    824 ****        12.5000  20.2500  26.7500 Du        
    825 ****        12.5000  20.2500  27.0000 Du        
    826 ****        12.5000  20.5000  26.7500 Du        
    827 ****        12.5000  20.5000  27.0000 Du        
    828 ****        12.5000  21.0000  20.2500 Du        
    829 ****        12.5000  21.0000  20.5000 Du        
    830 ****        12.5000  21.0000  20.7500 Du        
    831 ****        12.5000  21.2500  20.5000 Du        
    832 ****        12.5000  21.2500  20.7500 Du        
    833 ****        12.5000  21.2500  33.2500 Du        
    834 ****        12.5000  21.2500  33.5000 Du        
    835 ****        12.5000  21.2500  33.7500 Du        
    836 ****        12.5000  21.5000  33.2500 Du        
    837 ****        12.5000  21.5000  33.5000 Du        
    838 ****        12.5000  21.5000  33.7500 Du        
    839 ****        12.5000  21.5000  34.0000 Du        
    840 ****        12.5000  21.7500  33.5000 Du        
    841 ****        12.5000  21.7500  33.7500 Du        
    842 ****        12.5000  21.7500  34.0000 Du        
    843 ****        12.5000  22.0000  33.7500 Du        
    844 ****        12.5000  22.0000  34.0000 Du        
    845 ****        12.5000  24.7500  21.5000 Du        
    846 ****        12.5000  24.7500  21.7500 Du        
    847 ****        12.5000  25.0000  21.5000 Du        
    848 ****        12.5000  25.0000  21.7500 Du        
    849 ****        12.5000  25.0000  22.0000 Du        
    850 ****        12.5000  25.2500  21.2500 Du        
    851 ****        12.5000  25.2500  21.5000 Du        
    852 ****        12.5000  25.2500  21.7500 Du        
    853 ****        12.5000  25.2500  22.0000 Du        
    854 ****        12.5000  25.2500  22.2500 Du        
    855 ****        12.5000  25.5000  21.5000 Du        
    856 ****        12.5000  25.5000  21.7500 Du        
    857 ****        12.5000  25.5000  22.0000 Du        
    858 ****        12.5000  25.7500  21.7500 Du        
    859 ****        12.5000  25.7500  22.0000 Du        
    860 ****        12.7500  19.7500  26.0000 Du        
    861 ****        12.7500  19.7500  26.2500 Du        
    862 ****        12.7500  19.7500  26.5000 Du        
    863 ****        12.7500  20.0000  26.0000 Du        
    864 ****        12.7500  20.0000  26.2500 Du        
    865 ****        12.7500  20.0000  26.5000 Du        
    866 ****        12.7500  20.0000  26.7500 Du        
    867 ****        12.7500  20.2500  26.2500 Du        
    868 ****        12.7500  20.2500  26.5000 Du        
    869 ****        12.7500  20.2500  26.7500 Du        
    870 ****        12.7500  20.2500  27.0000 Du        
    871 ****        12.7500  20.2500  27.2500 Du        
    872 ****        12.7500  20.5000  26.5000 Du        
    873 ****        12.7500  20.5000  26.7500 Du        
    874 ****        12.7500  20.5000  27.0000 Du        
    875 ****        12.7500  20.5000  27.2500 Du        
    876 ****        12.7500  20.7500  20.7500 Du        
    877 ****        12.7500  20.7500  26.7500 Du        
    878 ****        12.7500  20.7500  27.0000 Du        
    879 ****        12.7500  21.0000  20.5000 Du        
    880 ****        12.7500  21.0000  20.7500 Du        
    881 ****        12.7500  21.0000  21.0000 Du        
    882 ****        12.7500  21.2500  20.7500 Du        
    883 ****        12.7500  21.2500  33.2500 Du        
    884 ****        12.7500  21.2500  33.5000 Du        
    885 ****        12.7500  21.5000  33.5000 Du        
    886 ****        12.7500  21.5000  33.7500 Du        
    887 ****        12.7500  21.5000  34.0000 Du        
    888 ****        12.7500  21.7500  33.5000 Du        
    889 ****        12.7500  21.7500  33.7500 Du        
    890 ****        12.7500  21.7500  34.0000 Du        
    891 ****        12.7500  22.0000  33.7500 Du        
    892 ****        12.7500  22.0000  34.0000 Du        
    893 ****        12.7500  24.7500  21.7500 Du        
    894 ****        12.7500  24.7500  22.0000 Du        
    895 ****        12.7500  24.7500  22.2500 Du        
    896 ****        12.7500  25.0000  21.5000 Du        
    897 ****        12.7500  25.0000  21.7500 Du        
    898 ****        12.7500  25.0000  22.0000 Du        
    899 ****        12.7500  25.0000  22.2500 Du        
    900 ****        12.7500  25.2500  21.5000 Du        
    901 ****        12.7500  25.2500  21.7500 Du        
    902 ****        12.7500  25.2500  22.0000 Du        
    903 ****        12.7500  25.2500  22.2500 Du        
    904 ****        12.7500  25.5000  21.7500 Du        
    905 ****        12.7500  25.5000  22.0000 Du        
    906 ****        12.7500  25.5000  22.2500 Du        
    907 ****        13.0000  19.5000  26.0000 Du        
    908 ****        13.0000  19.5000  26.2500 Du        
    909 ****        13.0000  19.7500  25.7500 Du        
    910 ****        13.0000  19.7500  26.0000 Du        
    911 ****        13.0000  19.7500  26.2500 Du        
    912 ****        13.0000  19.7500  26.5000 Du        
    913 ****        13.0000  19.7500  26.7500 Du        
    914 ****        13.0000  20.0000  25.7500 Du        
    915 ****        13.0000  20.0000  26.0000 Du        
    916 ****        13.0000  20.0000  26.2500 Du        
    917 ****        13.0000  20.0000  26.5000 Du        
    918 ****        13.0000  20.0000  26.7500 Du        
    919 ****        13.0000  20.0000  27.0000 Du        
    920 ****        13.0000  20.2500  25.7500 Du        
    921 ****        13.0000  20.2500  26.0000 Du        
    922 ****        13.0000  20.2500  26.2500 Du        
    923 ****        13.0000  20.2500  26.5000 Du        
    924 ****        13.0000  20.2500  26.7500 Du        
    925 ****        13.0000  20.2500  27.0000 Du        
    926 ****        13.0000  20.2500  27.2500 Du        
    927 ****        13.0000  20.5000  26.0000 Du        
    928 ****        13.0000  20.5000  26.2500 Du        
    929 ****        13.0000  20.5000  26.5000 Du        
    930 ****        13.0000  20.5000  26.7500 Du        
    931 ****        13.0000  20.5000  27.0000 Du        
    932 ****        13.0000  20.5000  27.2500 Du        
    933 ****        13.0000  20.7500  20.7500 Du        
    934 ****        13.0000  20.7500  21.0000 Du        
    935 ****        13.0000  20.7500  26.2500 Du        
    936 ****        13.0000  20.7500  26.5000 Du        
    937 ****        13.0000  20.7500  26.7500 Du        
    938 ****        13.0000  20.7500  27.0000 Du        
    939 ****        13.0000  20.7500  27.2500 Du        
    940 ****        13.0000  21.0000  20.7500 Du        
    941 ****        13.0000  21.0000  21.0000 Du        
    942 ****        13.0000  21.0000  26.7500 Du        
    943 ****        13.0000  21.2500  21.0000 Du        
    944 ****        13.0000  21.5000  33.7500 Du        
    945 ****        13.0000  21.5000  34.0000 Du        
    946 ****        13.0000  21.7500  34.0000 Du        
    947 ****        13.0000  24.5000  22.0000 Du        
    948 ****        13.0000  24.7500  21.7500 Du        
    949 ****        13.0000  24.7500  22.0000 Du        
    950 ****        13.0000  24.7500  22.2500 Du        
    951 ****        13.0000  25.0000  21.7500 Du        
    952 ****        13.0000  25.0000  22.0000 Du        
    953 ****        13.0000  25.0000  22.2500 Du        
    954 ****        13.0000  25.0000  22.5000 Du        
    955 ****        13.0000  25.2500  21.7500 Du        
    956 ****        13.0000  25.2500  22.0000 Du        
    957 ****        13.0000  25.2500  22.2500 Du        
    958 ****        13.0000  25.2500  22.5000 Du        
    959 ****        13.0000  25.5000  22.0000 Du        
    960 ****        13.0000  25.5000  22.2500 Du        
    961 ****        13.0000  25.5000  22.5000 Du        
    962 ****        13.2500  19.2500  26.0000 Du        
    963 ****        13.2500  19.2500  26.2500 Du        
    964 ****        13.2500  19.5000  25.7500 Du        
    965 ****        13.2500  19.5000  26.0000 Du        
    966 ****        13.2500  19.5000  26.2500 Du        
    967 ****        13.2500  19.5000  26.5000 Du        
    968 ****        13.2500  19.7500  25.5000 Du        
    969 ****        13.2500  19.7500  25.7500 Du        
    970 ****        13.2500  19.7500  26.0000 Du        
    971 ****        13.2500  19.7500  26.2500 Du        
    972 ****        13.2500  19.7500  26.5000 Du        
    973 ****        13.2500  19.7500  26.7500 Du        
    974 ****        13.2500  19.7500  27.0000 Du        
    975 ****        13.2500  20.0000  25.5000 Du        
    976 ****        13.2500  20.0000  25.7500 Du        
    977 ****        13.2500  20.0000  26.0000 Du        
    978 ****        13.2500  20.0000  26.2500 Du        
    979 ****        13.2500  20.0000  26.5000 Du        
    980 ****        13.2500  20.0000  26.7500 Du        
    981 ****        13.2500  20.0000  27.0000 Du        
    982 ****        13.2500  20.0000  27.2500 Du        
    983 ****        13.2500  20.2500  25.5000 Du        
    984 ****        13.2500  20.2500  25.7500 Du        
    985 ****        13.2500  20.2500  26.0000 Du        
    986 ****        13.2500  20.2500  26.2500 Du        
    987 ****        13.2500  20.2500  26.5000 Du        
    988 ****        13.2500  20.2500  26.7500 Du        
    989 ****        13.2500  20.2500  27.0000 Du        
    990 ****        13.2500  20.2500  27.2500 Du        
    991 ****        13.2500  20.2500  27.5000 Du        
    992 ****        13.2500  20.5000  20.7500 Du        
    993 ****        13.2500  20.5000  25.7500 Du        
    994 ****        13.2500  20.5000  26.0000 Du        
    995 ****        13.2500  20.5000  26.2500 Du        
    996 ****        13.2500  20.5000  26.5000 Du        
    997 ****        13.2500  20.5000  26.7500 Du        
    998 ****        13.2500  20.5000  27.0000 Du        
    999 ****        13.2500  20.5000  27.2500 Du        
   1000 ****        13.2500  20.5000  27.5000 Du        
   1001 ****        13.2500  20.7500  20.7500 Du        
   1002 ****        13.2500  20.7500  21.0000 Du        
   1003 ****        13.2500  20.7500  21.2500 Du        
   1004 ****        13.2500  20.7500  26.0000 Du        
   1005 ****        13.2500  20.7500  26.2500 Du        
   1006 ****        13.2500  20.7500  26.5000 Du        
   1007 ****        13.2500  20.7500  26.7500 Du        
   1008 ****        13.2500  20.7500  27.0000 Du        
   1009 ****        13.2500  20.7500  27.2500 Du        
   1010 ****        13.2500  21.0000  21.0000 Du        
   1011 ****        13.2500  21.0000  21.2500 Du        
   1012 ****        13.2500  21.0000  26.2500 Du        
   1013 ****        13.2500  21.0000  26.5000 Du        
   1014 ****        13.2500  21.0000  26.7500 Du        
   1015 ****        13.2500  21.0000  27.0000 Du        
   1016 ****        13.2500  21.2500  21.2500 Du        
   1017 ****        13.2500  21.2500  26.7500 Du        
   1018 ****        13.2500  24.5000  22.2500 Du        
   1019 ****        13.2500  24.7500  22.0000 Du        
   1020 ****        13.2500  24.7500  22.2500 Du        
   1021 ****        13.2500  24.7500  22.5000 Du        
   1022 ****        13.2500  25.0000  22.0000 Du        
   1023 ****        13.2500  25.0000  22.2500 Du        
   1024 ****        13.2500  25.0000  22.5000 Du        
   1025 ****        13.2500  25.2500  22.0000 Du        
   1026 ****        13.2500  25.2500  22.2500 Du        
   1027 ****        13.5000  19.0000  26.0000 Du        
   1028 ****        13.5000  19.0000  26.2500 Du        
   1029 ****        13.5000  19.2500  25.7500 Du        
   1030 ****        13.5000  19.2500  26.0000 Du        
   1031 ****        13.5000  19.2500  26.2500 Du        
   1032 ****        13.5000  19.2500  26.5000 Du        
   1033 ****        13.5000  19.5000  25.5000 Du        
   1034 ****        13.5000  19.5000  25.7500 Du        
   1035 ****        13.5000  19.5000  26.0000 Du        
   1036 ****        13.5000  19.5000  26.2500 Du        
   1037 ****        13.5000  19.5000  26.5000 Du        
   1038 ****        13.5000  19.5000  26.7500 Du        
   1039 ****        13.5000  19.7500  25.5000 Du        
   1040 ****        13.5000  19.7500  25.7500 Du        
   1041 ****        13.5000  19.7500  26.0000 Du        
   1042 ****        13.5000  19.7500  26.2500 Du        
   1043 ****        13.5000  19.7500  26.5000 Du        
   1044 ****        13.5000  19.7500  26.7500 Du        
   1045 ****        13.5000  19.7500  27.0000 Du        
   1046 ****        13.5000  19.7500  27.2500 Du        
   1047 ****        13.5000  20.0000  25.2500 Du        
   1048 ****        13.5000  20.0000  25.5000 Du        
   1049 ****        13.5000  20.0000  25.7500 Du        
   1050 ****        13.5000  20.0000  26.0000 Du        
   1051 ****        13.5000  20.0000  26.2500 Du        
   1052 ****        13.5000  20.0000  26.5000 Du        
   1053 ****        13.5000  20.0000  26.7500 Du        
   1054 ****        13.5000  20.0000  27.0000 Du        
   1055 ****        13.5000  20.0000  27.2500 Du        
   1056 ****        13.5000  20.0000  27.5000 Du        
   1057 ****        13.5000  20.2500  25.2500 Du        
   1058 ****        13.5000  20.2500  25.5000 Du        
   1059 ****        13.5000  20.2500  25.7500 Du        
   1060 ****        13.5000  20.2500  26.0000 Du        
   1061 ****        13.5000  20.2500  26.2500 Du        
   1062 ****        13.5000  20.2500  26.5000 Du        
   1063 ****        13.5000  20.2500  26.7500 Du        
   1064 ****        13.5000  20.2500  27.0000 Du        
   1065 ****        13.5000  20.2500  27.2500 Du        
   1066 ****        13.5000  20.2500  27.5000 Du        
   1067 ****        13.5000  20.2500  27.7500 Du        
   1068 ****        13.5000  20.5000  20.7500 Du        
   1069 ****        13.5000  20.5000  21.0000 Du        
   1070 ****        13.5000  20.5000  21.2500 Du        
   1071 ****        13.5000  20.5000  25.5000 Du        
   1072 ****        13.5000  20.5000  25.7500 Du        
   1073 ****        13.5000  20.5000  26.0000 Du        
   1074 ****        13.5000  20.5000  26.2500 Du        
   1075 ****        13.5000  20.5000  26.5000 Du        
   1076 ****        13.5000  20.5000  26.7500 Du        
   1077 ****        13.5000  20.5000  27.0000 Du        
   1078 ****        13.5000  20.5000  27.2500 Du        
   1079 ****        13.5000  20.5000  27.5000 Du        
   1080 ****        13.5000  20.7500  21.0000 Du        
   1081 ****        13.5000  20.7500  21.2500 Du        
   1082 ****        13.5000  20.7500  25.5000 Du        
   1083 ****        13.5000  20.7500  25.7500 Du        
   1084 ****        13.5000  20.7500  26.0000 Du        
   1085 ****        13.5000  20.7500  26.2500 Du        
   1086 ****        13.5000  20.7500  26.5000 Du        
   1087 ****        13.5000  20.7500  26.7500 Du        
   1088 ****        13.5000  20.7500  27.0000 Du        
   1089 ****        13.5000  20.7500  27.2500 Du        
   1090 ****        13.5000  21.0000  21.2500 Du        
   1091 ****        13.5000  21.0000  21.5000 Du        
   1092 ****        13.5000  21.0000  26.0000 Du        
   1093 ****        13.5000  21.0000  26.2500 Du        
   1094 ****        13.5000  21.0000  26.5000 Du        
   1095 ****        13.5000  21.0000  26.7500 Du        
   1096 ****        13.5000  21.0000  27.0000 Du        
   1097 ****        13.5000  21.2500  26.2500 Du        
   1098 ****        13.5000  21.2500  26.5000 Du        
   1099 ****        13.5000  21.2500  26.7500 Du        
   1100 ****        13.5000  24.5000  22.2500 Du        
   1101 ****        13.5000  24.7500  22.2500 Du        
   1102 ****        13.5000  24.7500  22.5000 Du        
   1103 ****        13.5000  25.0000  22.2500 Du        
   1104 ****        13.5000  25.0000  22.5000 Du        
   1105 ****        13.5000  25.2500  22.2500 Du        
   1106 ****        13.7500  14.0000  22.7500 Du        
   1107 ****        13.7500  14.0000  23.0000 Du        
   1108 ****        13.7500  14.0000  23.2500 Du        
   1109 ****        13.7500  14.2500  23.0000 Du        
   1110 ****        13.7500  14.2500  23.2500 Du        
   1111 ****        13.7500  14.2500  23.5000 Du        
   1112 ****        13.7500  14.5000  21.0000 Du        
   1113 ****        13.7500  14.5000  23.5000 Du        
   1114 ****        13.7500  14.5000  23.7500 Du        
   1115 ****        13.7500  14.5000  24.0000 Du        
   1116 ****        13.7500  14.7500  20.5000 Du        
   1117 ****        13.7500  14.7500  20.7500 Du        
   1118 ****        13.7500  14.7500  21.0000 Du        
   1119 ****        13.7500  14.7500  21.2500 Du        
   1120 ****        13.7500  14.7500  23.7500 Du        
   1121 ****        13.7500  14.7500  24.0000 Du        
   1122 ****        13.7500  14.7500  24.2500 Du        
   1123 ****        13.7500  15.0000  20.7500 Du        
   1124 ****        13.7500  15.0000  21.0000 Du        
   1125 ****        13.7500  15.0000  24.0000 Du        
   1126 ****        13.7500  15.0000  24.2500 Du        
   1127 ****        13.7500  15.0000  24.5000 Du        
   1128 ****        13.7500  15.0000  24.7500 Du        
   1129 ****        13.7500  15.2500  24.2500 Du        
   1130 ****        13.7500  15.2500  24.5000 Du        
   1131 ****        13.7500  15.2500  24.7500 Du        
   1132 ****        13.7500  15.2500  25.0000 Du        
   1133 ****        13.7500  15.5000  24.5000 Du        
   1134 ****        13.7500  15.5000  24.7500 Du        
   1135 ****        13.7500  15.5000  25.0000 Du        
   1136 ****        13.7500  15.7500  24.7500 Du        
   1137 ****        13.7500  18.7500  25.7500 Du        
   1138 ****        13.7500  18.7500  26.0000 Du        
   1139 ****        13.7500  18.7500  26.2500 Du        
   1140 ****        13.7500  19.0000  25.7500 Du        
   1141 ****        13.7500  19.0000  26.0000 Du        
   1142 ****        13.7500  19.0000  26.2500 Du        
   1143 ****        13.7500  19.0000  26.5000 Du        
   1144 ****        13.7500  19.2500  25.5000 Du        
   1145 ****        13.7500  19.2500  25.7500 Du        
   1146 ****        13.7500  19.2500  26.0000 Du        
   1147 ****        13.7500  19.2500  26.2500 Du        
   1148 ****        13.7500  19.2500  26.5000 Du        
   1149 ****        13.7500  19.2500  26.7500 Du        
   1150 ****        13.7500  19.5000  25.2500 Du        
   1151 ****        13.7500  19.5000  25.5000 Du        
   1152 ****        13.7500  19.5000  25.7500 Du        
   1153 ****        13.7500  19.5000  26.0000 Du        
   1154 ****        13.7500  19.5000  26.2500 Du        
   1155 ****        13.7500  19.5000  26.5000 Du        
   1156 ****        13.7500  19.5000  26.7500 Du        
   1157 ****        13.7500  19.5000  27.0000 Du        
   1158 ****        13.7500  19.5000  27.2500 Du        
   1159 ****        13.7500  19.7500  25.2500 Du        
   1160 ****        13.7500  19.7500  25.5000 Du        
   1161 ****        13.7500  19.7500  25.7500 Du        
   1162 ****        13.7500  19.7500  26.0000 Du        
   1163 ****        13.7500  19.7500  26.2500 Du        
   1164 ****        13.7500  19.7500  26.5000 Du        
   1165 ****        13.7500  19.7500  26.7500 Du        
   1166 ****        13.7500  19.7500  27.0000 Du        
   1167 ****        13.7500  19.7500  27.2500 Du        
   1168 ****        13.7500  19.7500  27.5000 Du        
   1169 ****        13.7500  20.0000  25.0000 Du        
   1170 ****        13.7500  20.0000  25.2500 Du        
   1171 ****        13.7500  20.0000  25.5000 Du        
   1172 ****        13.7500  20.0000  25.7500 Du        
   1173 ****        13.7500  20.0000  26.0000 Du        
   1174 ****        13.7500  20.0000  26.2500 Du        
   1175 ****        13.7500  20.0000  26.5000 Du        
   1176 ****        13.7500  20.0000  26.7500 Du        
   1177 ****        13.7500  20.0000  27.0000 Du        
   1178 ****        13.7500  20.0000  27.2500 Du        
   1179 ****        13.7500  20.0000  27.5000 Du        
   1180 ****        13.7500  20.0000  27.7500 Du        
   1181 ****        13.7500  20.0000  28.0000 Du        
   1182 ****        13.7500  20.2500  20.7500 Du        
   1183 ****        13.7500  20.2500  21.0000 Du        
   1184 ****        13.7500  20.2500  21.2500 Du        
   1185 ****        13.7500  20.2500  25.0000 Du        
   1186 ****        13.7500  20.2500  25.2500 Du        
   1187 ****        13.7500  20.2500  25.5000 Du        
   1188 ****        13.7500  20.2500  25.7500 Du        
   1189 ****        13.7500  20.2500  26.0000 Du        
   1190 ****        13.7500  20.2500  26.2500 Du        
   1191 ****        13.7500  20.2500  26.5000 Du        
   1192 ****        13.7500  20.2500  26.7500 Du        
   1193 ****        13.7500  20.2500  27.0000 Du        
   1194 ****        13.7500  20.2500  27.2500 Du        
   1195 ****        13.7500  20.2500  27.5000 Du        
   1196 ****        13.7500  20.2500  27.7500 Du        
   1197 ****        13.7500  20.5000  20.7500 Du        
   1198 ****        13.7500  20.5000  21.0000 Du        
   1199 ****        13.7500  20.5000  21.2500 Du        
   1200 ****        13.7500  20.5000  25.0000 Du        
   1201 ****        13.7500  20.5000  25.2500 Du        
   1202 ****        13.7500  20.5000  25.5000 Du        
   1203 ****        13.7500  20.5000  25.7500 Du        
   1204 ****        13.7500  20.5000  26.0000 Du        
   1205 ****        13.7500  20.5000  26.2500 Du        
   1206 ****        13.7500  20.5000  26.5000 Du        
   1207 ****        13.7500  20.5000  26.7500 Du        
   1208 ****        13.7500  20.5000  27.0000 Du        
   1209 ****        13.7500  20.5000  27.2500 Du        
   1210 ****        13.7500  20.5000  27.5000 Du        
   1211 ****        13.7500  20.7500  21.0000 Du        
   1212 ****        13.7500  20.7500  21.2500 Du        
   1213 ****        13.7500  20.7500  21.5000 Du        
   1214 ****        13.7500  20.7500  21.7500 Du        
   1215 ****        13.7500  20.7500  25.2500 Du        
   1216 ****        13.7500  20.7500  25.5000 Du        
   1217 ****        13.7500  20.7500  25.7500 Du        
   1218 ****        13.7500  20.7500  26.0000 Du        
   1219 ****        13.7500  20.7500  26.2500 Du        
   1220 ****        13.7500  20.7500  26.5000 Du        
   1221 ****        13.7500  20.7500  26.7500 Du        
   1222 ****        13.7500  20.7500  27.0000 Du        
   1223 ****        13.7500  20.7500  27.2500 Du        
   1224 ****        13.7500  21.0000  21.2500 Du        
   1225 ****        13.7500  21.0000  21.5000 Du        
   1226 ****        13.7500  21.0000  21.7500 Du        
   1227 ****        13.7500  21.0000  22.0000 Du        
   1228 ****        13.7500  21.0000  25.5000 Du        
   1229 ****        13.7500  21.0000  25.7500 Du        
   1230 ****        13.7500  21.0000  26.0000 Du        
   1231 ****        13.7500  21.0000  26.2500 Du        
   1232 ****        13.7500  21.0000  26.5000 Du        
   1233 ****        13.7500  21.0000  26.7500 Du        
   1234 ****        13.7500  21.0000  27.0000 Du        
   1235 ****        13.7500  21.2500  21.7500 Du        
   1236 ****        13.7500  21.2500  22.0000 Du        
   1237 ****        13.7500  21.2500  25.7500 Du        
   1238 ****        13.7500  21.2500  26.0000 Du        
   1239 ****        13.7500  21.2500  26.2500 Du        
   1240 ****        13.7500  21.2500  26.5000 Du        
   1241 ****        13.7500  21.2500  26.7500 Du        
   1242 ****        13.7500  21.2500  27.0000 Du        
   1243 ****        13.7500  21.5000  22.0000 Du        
   1244 ****        13.7500  21.5000  26.0000 Du        
   1245 ****        13.7500  21.5000  26.2500 Du        
   1246 ****        13.7500  21.5000  26.5000 Du        
   1247 ****        13.7500  21.7500  26.2500 Du        
   1248 ****        14.0000  13.7500  22.5000 Du        
   1249 ****        14.0000  13.7500  22.7500 Du        
   1250 ****        14.0000  13.7500  23.0000 Du        
   1251 ****        14.0000  14.0000  22.0000 Du        
   1252 ****        14.0000  14.0000  22.2500 Du        
   1253 ****        14.0000  14.0000  22.5000 Du        
   1254 ****        14.0000  14.0000  22.7500 Du        
   1255 ****        14.0000  14.0000  23.0000 Du        
   1256 ****        14.0000  14.0000  23.2500 Du        
   1257 ****        14.0000  14.0000  23.5000 Du        
   1258 ****        14.0000  14.2500  21.2500 Du        
   1259 ****        14.0000  14.2500  21.5000 Du        
   1260 ****        14.0000  14.2500  21.7500 Du        
   1261 ****        14.0000  14.2500  22.0000 Du        
   1262 ****        14.0000  14.2500  22.2500 Du        
   1263 ****        14.0000  14.2500  22.5000 Du        
   1264 ****        14.0000  14.2500  22.7500 Du        
   1265 ****        14.0000  14.2500  23.0000 Du        
   1266 ****        14.0000  14.2500  23.2500 Du        
   1267 ****        14.0000  14.2500  23.5000 Du        
   1268 ****        14.0000  14.2500  23.7500 Du        
   1269 ****        14.0000  14.2500  24.0000 Du        
   1270 ****        14.0000  14.5000  20.5000 Du        
   1271 ****        14.0000  14.5000  20.7500 Du        
   1272 ****        14.0000  14.5000  21.0000 Du        
   1273 ****        14.0000  14.5000  21.2500 Du        
   1274 ****        14.0000  14.5000  21.5000 Du        
   1275 ****        14.0000  14.5000  21.7500 Du        
   1276 ****        14.0000  14.5000  22.0000 Du        
   1277 ****        14.0000  14.5000  22.2500 Du        
   1278 ****        14.0000  14.5000  22.5000 Du        
   1279 ****        14.0000  14.5000  22.7500 Du        
   1280 ****        14.0000  14.5000  23.0000 Du        
   1281 ****        14.0000  14.5000  23.2500 Du        
   1282 ****        14.0000  14.5000  23.5000 Du        
   1283 ****        14.0000  14.5000  23.7500 Du        
   1284 ****        14.0000  14.5000  24.0000 Du        
   1285 ****        14.0000  14.5000  24.2500 Du        
   1286 ****        14.0000  14.7500  20.2500 Du        
   1287 ****        14.0000  14.7500  20.5000 Du        
   1288 ****        14.0000  14.7500  20.7500 Du        
   1289 ****        14.0000  14.7500  21.0000 Du        
   1290 ****        14.0000  14.7500  21.2500 Du        
   1291 ****        14.0000  14.7500  21.5000 Du        
   1292 ****        14.0000  14.7500  21.7500 Du        
   1293 ****        14.0000  14.7500  22.0000 Du        
   1294 ****        14.0000  14.7500  22.2500 Du        
   1295 ****        14.0000  14.7500  22.5000 Du        
   1296 ****        14.0000  14.7500  22.7500 Du        
   1297 ****        14.0000  14.7500  23.0000 Du        
   1298 ****        14.0000  14.7500  23.2500 Du        
   1299 ****        14.0000  14.7500  23.5000 Du        
   1300 ****        14.0000  14.7500  23.7500 Du        
   1301 ****        14.0000  14.7500  24.0000 Du        
   1302 ****        14.0000  14.7500  24.2500 Du        
   1303 ****        14.0000  14.7500  24.5000 Du        
   1304 ****        14.0000  14.7500  24.7500 Du        
   1305 ****        14.0000  15.0000  20.2500 Du        
   1306 ****        14.0000  15.0000  20.5000 Du        
   1307 ****        14.0000  15.0000  20.7500 Du        
   1308 ****        14.0000  15.0000  21.0000 Du        
   1309 ****        14.0000  15.0000  21.2500 Du        
   1310 ****        14.0000  15.0000  21.5000 Du        
   1311 ****        14.0000  15.0000  21.7500 Du        
   1312 ****        14.0000  15.0000  22.0000 Du        
   1313 ****        14.0000  15.0000  23.0000 Du        
   1314 ****        14.0000  15.0000  23.2500 Du        
   1315 ****        14.0000  15.0000  23.5000 Du        
   1316 ****        14.0000  15.0000  23.7500 Du        
   1317 ****        14.0000  15.0000  24.0000 Du        
   1318 ****        14.0000  15.0000  24.2500 Du        
   1319 ****        14.0000  15.0000  24.5000 Du        
   1320 ****        14.0000  15.0000  24.7500 Du        
   1321 ****        14.0000  15.0000  25.0000 Du        
   1322 ****        14.0000  15.2500  20.5000 Du        
   1323 ****        14.0000  15.2500  20.7500 Du        
   1324 ****        14.0000  15.2500  21.0000 Du        
   1325 ****        14.0000  15.2500  21.2500 Du        
   1326 ****        14.0000  15.2500  21.5000 Du        
   1327 ****        14.0000  15.2500  21.7500 Du        
   1328 ****        14.0000  15.2500  23.5000 Du        
   1329 ****        14.0000  15.2500  23.7500 Du        
   1330 ****        14.0000  15.2500  24.0000 Du        
   1331 ****        14.0000  15.2500  24.2500 Du        
   1332 ****        14.0000  15.2500  24.5000 Du        
   1333 ****        14.0000  15.2500  24.7500 Du        
   1334 ****        14.0000  15.2500  25.0000 Du        
   1335 ****        14.0000  15.2500  25.2500 Du        
   1336 ****        14.0000  15.5000  24.0000 Du        
   1337 ****        14.0000  15.5000  24.2500 Du        
   1338 ****        14.0000  15.5000  24.5000 Du        
   1339 ****        14.0000  15.5000  24.7500 Du        
   1340 ****        14.0000  15.5000  25.0000 Du        
   1341 ****        14.0000  15.5000  25.2500 Du        
   1342 ****        14.0000  15.7500  24.2500 Du        
   1343 ****        14.0000  15.7500  24.5000 Du        
   1344 ****        14.0000  15.7500  24.7500 Du        
   1345 ****        14.0000  15.7500  25.0000 Du        
   1346 ****        14.0000  16.0000  24.5000 Du        
   1347 ****        14.0000  16.0000  24.7500 Du        
   1348 ****        14.0000  16.0000  25.0000 Du        
   1349 ****        14.0000  16.2500  25.0000 Du        
   1350 ****        14.0000  18.2500  26.0000 Du        
   1351 ****        14.0000  18.5000  25.7500 Du        
   1352 ****        14.0000  18.5000  26.0000 Du        
   1353 ****        14.0000  18.5000  26.2500 Du        
   1354 ****        14.0000  18.7500  25.5000 Du        
   1355 ****        14.0000  18.7500  25.7500 Du        
   1356 ****        14.0000  18.7500  26.0000 Du        
   1357 ****        14.0000  18.7500  26.2500 Du        
   1358 ****        14.0000  18.7500  26.5000 Du        
   1359 ****        14.0000  18.7500  26.7500 Du        
   1360 ****        14.0000  19.0000  25.5000 Du        
   1361 ****        14.0000  19.0000  25.7500 Du        
   1362 ****        14.0000  19.0000  26.0000 Du        
   1363 ****        14.0000  19.0000  26.2500 Du        
   1364 ****        14.0000  19.0000  26.5000 Du        
   1365 ****        14.0000  19.0000  26.7500 Du        
   1366 ****        14.0000  19.0000  27.0000 Du        
   1367 ****        14.0000  19.2500  25.2500 Du        
   1368 ****        14.0000  19.2500  25.5000 Du        
   1369 ****        14.0000  19.2500  25.7500 Du        
   1370 ****        14.0000  19.2500  26.0000 Du        
   1371 ****        14.0000  19.2500  26.2500 Du        
   1372 ****        14.0000  19.2500  26.5000 Du        
   1373 ****        14.0000  19.2500  26.7500 Du        
   1374 ****        14.0000  19.2500  27.0000 Du        
   1375 ****        14.0000  19.2500  27.2500 Du        
   1376 ****        14.0000  19.5000  25.2500 Du        
   1377 ****        14.0000  19.5000  25.5000 Du        
   1378 ****        14.0000  19.5000  25.7500 Du        
   1379 ****        14.0000  19.5000  26.0000 Du        
   1380 ****        14.0000  19.5000  26.2500 Du        
   1381 ****        14.0000  19.5000  26.5000 Du        
   1382 ****        14.0000  19.5000  26.7500 Du        
   1383 ****        14.0000  19.5000  27.0000 Du        
   1384 ****        14.0000  19.5000  27.2500 Du        
   1385 ****        14.0000  19.5000  27.5000 Du        
   1386 ****        14.0000  19.5000  27.7500 Du        
   1387 ****        14.0000  19.7500  25.0000 Du        
   1388 ****        14.0000  19.7500  25.2500 Du        
   1389 ****        14.0000  19.7500  25.5000 Du        
   1390 ****        14.0000  19.7500  25.7500 Du        
   1391 ****        14.0000  19.7500  26.0000 Du        
   1392 ****        14.0000  19.7500  26.2500 Du        
   1393 ****        14.0000  19.7500  26.5000 Du        
   1394 ****        14.0000  19.7500  26.7500 Du        
   1395 ****        14.0000  19.7500  27.0000 Du        
   1396 ****        14.0000  19.7500  27.2500 Du        
   1397 ****        14.0000  19.7500  27.5000 Du        
   1398 ****        14.0000  19.7500  27.7500 Du        
   1399 ****        14.0000  19.7500  28.0000 Du        
   1400 ****        14.0000  19.7500  28.2500 Du        
   1401 ****        14.0000  20.0000  20.7500 Du        
   1402 ****        14.0000  20.0000  21.0000 Du        
   1403 ****        14.0000  20.0000  21.2500 Du        
   1404 ****        14.0000  20.0000  24.7500 Du        
   1405 ****        14.0000  20.0000  25.0000 Du        
   1406 ****        14.0000  20.0000  25.2500 Du        
   1407 ****        14.0000  20.0000  25.5000 Du        
   1408 ****        14.0000  20.0000  25.7500 Du        
   1409 ****        14.0000  20.0000  26.0000 Du        
   1410 ****        14.0000  20.0000  26.2500 Du        
   1411 ****        14.0000  20.0000  26.5000 Du        
   1412 ****        14.0000  20.0000  26.7500 Du        
   1413 ****        14.0000  20.0000  27.0000 Du        
   1414 ****        14.0000  20.0000  27.2500 Du        
   1415 ****        14.0000  20.0000  27.5000 Du        
   1416 ****        14.0000  20.0000  27.7500 Du        
   1417 ****        14.0000  20.0000  28.0000 Du        
   1418 ****        14.0000  20.0000  28.2500 Du        
   1419 ****        14.0000  20.2500  20.7500 Du        
   1420 ****        14.0000  20.2500  21.0000 Du        
   1421 ****        14.0000  20.2500  21.2500 Du        
   1422 ****        14.0000  20.2500  24.7500 Du        
   1423 ****        14.0000  20.2500  25.0000 Du        
   1424 ****        14.0000  20.2500  25.2500 Du        
   1425 ****        14.0000  20.2500  25.5000 Du        
   1426 ****        14.0000  20.2500  25.7500 Du        
   1427 ****        14.0000  20.2500  26.0000 Du        
   1428 ****        14.0000  20.2500  26.2500 Du        
   1429 ****        14.0000  20.2500  26.5000 Du        
   1430 ****        14.0000  20.2500  26.7500 Du        
   1431 ****        14.0000  20.2500  27.0000 Du        
   1432 ****        14.0000  20.2500  27.2500 Du        
   1433 ****        14.0000  20.2500  27.5000 Du        
   1434 ****        14.0000  20.2500  27.7500 Du        
   1435 ****        14.0000  20.2500  28.0000 Du        
   1436 ****        14.0000  20.5000  21.0000 Du        
   1437 ****        14.0000  20.5000  21.2500 Du        
   1438 ****        14.0000  20.5000  21.5000 Du        
   1439 ****        14.0000  20.5000  21.7500 Du        
   1440 ****        14.0000  20.5000  24.7500 Du        
   1441 ****        14.0000  20.5000  25.0000 Du        
   1442 ****        14.0000  20.5000  25.2500 Du        
   1443 ****        14.0000  20.5000  25.5000 Du        
   1444 ****        14.0000  20.5000  25.7500 Du        
   1445 ****        14.0000  20.5000  26.0000 Du        
   1446 ****        14.0000  20.5000  26.2500 Du        
   1447 ****        14.0000  20.5000  26.5000 Du        
   1448 ****        14.0000  20.5000  26.7500 Du        
   1449 ****        14.0000  20.5000  27.0000 Du        
   1450 ****        14.0000  20.5000  27.2500 Du        
   1451 ****        14.0000  20.5000  27.5000 Du        
   1452 ****        14.0000  20.5000  27.7500 Du        
   1453 ****        14.0000  20.7500  21.0000 Du        
   1454 ****        14.0000  20.7500  21.2500 Du        
   1455 ****        14.0000  20.7500  21.5000 Du        
   1456 ****        14.0000  20.7500  21.7500 Du        
   1457 ****        14.0000  20.7500  22.0000 Du        
   1458 ****        14.0000  20.7500  24.7500 Du        
   1459 ****        14.0000  20.7500  25.0000 Du        
   1460 ****        14.0000  20.7500  25.2500 Du        
   1461 ****        14.0000  20.7500  25.5000 Du        
   1462 ****        14.0000  20.7500  25.7500 Du        
   1463 ****        14.0000  20.7500  26.0000 Du        
   1464 ****        14.0000  20.7500  26.2500 Du        
   1465 ****        14.0000  20.7500  26.5000 Du        
   1466 ****        14.0000  20.7500  26.7500 Du        
   1467 ****        14.0000  20.7500  27.0000 Du        
   1468 ****        14.0000  20.7500  27.2500 Du        
   1469 ****        14.0000  21.0000  21.2500 Du        
   1470 ****        14.0000  21.0000  21.5000 Du        
   1471 ****        14.0000  21.0000  21.7500 Du        
   1472 ****        14.0000  21.0000  22.0000 Du        
   1473 ****        14.0000  21.0000  22.2500 Du        
   1474 ****        14.0000  21.0000  25.0000 Du        
   1475 ****        14.0000  21.0000  25.2500 Du        
   1476 ****        14.0000  21.0000  25.5000 Du        
   1477 ****        14.0000  21.0000  25.7500 Du        
   1478 ****        14.0000  21.0000  26.0000 Du        
   1479 ****        14.0000  21.0000  26.2500 Du        
   1480 ****        14.0000  21.0000  26.5000 Du        
   1481 ****        14.0000  21.0000  26.7500 Du        
   1482 ****        14.0000  21.0000  27.0000 Du        
   1483 ****        14.0000  21.0000  27.2500 Du        
   1484 ****        14.0000  21.2500  21.7500 Du        
   1485 ****        14.0000  21.2500  22.0000 Du        
   1486 ****        14.0000  21.2500  22.2500 Du        
   1487 ****        14.0000  21.2500  25.2500 Du        
   1488 ****        14.0000  21.2500  25.5000 Du        
   1489 ****        14.0000  21.2500  25.7500 Du        
   1490 ****        14.0000  21.2500  26.0000 Du        
   1491 ****        14.0000  21.2500  26.2500 Du        
   1492 ****        14.0000  21.2500  26.5000 Du        
   1493 ****        14.0000  21.2500  26.7500 Du        
   1494 ****        14.0000  21.2500  27.0000 Du        
   1495 ****        14.0000  21.5000  22.0000 Du        
   1496 ****        14.0000  21.5000  22.2500 Du        
   1497 ****        14.0000  21.5000  25.5000 Du        
   1498 ****        14.0000  21.5000  25.7500 Du        
   1499 ****        14.0000  21.5000  26.0000 Du        
   1500 ****        14.0000  21.5000  26.2500 Du        
   1501 ****        14.0000  21.5000  26.5000 Du        
   1502 ****        14.0000  21.5000  26.7500 Du        
   1503 ****        14.0000  21.7500  22.2500 Du        
   1504 ****        14.0000  21.7500  25.7500 Du        
   1505 ****        14.0000  21.7500  26.0000 Du        
   1506 ****        14.0000  21.7500  26.2500 Du        
   1507 ****        14.0000  21.7500  26.5000 Du        
   1508 ****        14.0000  22.0000  25.7500 Du        
   1509 ****        14.0000  22.0000  26.0000 Du        
   1510 ****        14.0000  22.0000  26.2500 Du        
   1511 ****        14.0000  22.2500  26.0000 Du        
   1512 ****        14.0000  22.2500  26.2500 Du        
   1513 ****        14.2500  13.5000  22.7500 Du        
   1514 ****        14.2500  13.5000  23.0000 Du        
   1515 ****        14.2500  13.7500  22.2500 Du        
   1516 ****        14.2500  13.7500  22.5000 Du        
   1517 ****        14.2500  13.7500  22.7500 Du        
   1518 ****        14.2500  13.7500  23.0000 Du        
   1519 ****        14.2500  13.7500  23.2500 Du        
   1520 ****        14.2500  14.0000  21.7500 Du        
   1521 ****        14.2500  14.0000  22.0000 Du        
   1522 ****        14.2500  14.0000  22.2500 Du        
   1523 ****        14.2500  14.0000  22.5000 Du        
   1524 ****        14.2500  14.0000  22.7500 Du        
   1525 ****        14.2500  14.0000  23.0000 Du        
   1526 ****        14.2500  14.0000  23.2500 Du        
   1527 ****        14.2500  14.0000  23.5000 Du        
   1528 ****        14.2500  14.0000  23.7500 Du        
   1529 ****        14.2500  14.2500  20.5000 Du        
   1530 ****        14.2500  14.2500  20.7500 Du        
   1531 ****        14.2500  14.2500  21.0000 Du        
   1532 ****        14.2500  14.2500  21.2500 Du        
   1533 ****        14.2500  14.2500  21.5000 Du        
   1534 ****        14.2500  14.2500  21.7500 Du        
   1535 ****        14.2500  14.2500  22.0000 Du        
   1536 ****        14.2500  14.2500  22.2500 Du        
   1537 ****        14.2500  14.2500  22.5000 Du        
   1538 ****        14.2500  14.2500  22.7500 Du        
   1539 ****        14.2500  14.2500  23.0000 Du        
   1540 ****        14.2500  14.2500  23.2500 Du        
   1541 ****        14.2500  14.2500  23.5000 Du        
   1542 ****        14.2500  14.2500  23.7500 Du        
   1543 ****        14.2500  14.2500  24.0000 Du        
   1544 ****        14.2500  14.5000  20.2500 Du        
   1545 ****        14.2500  14.5000  20.5000 Du        
   1546 ****        14.2500  14.5000  20.7500 Du        
   1547 ****        14.2500  14.5000  21.0000 Du        
   1548 ****        14.2500  14.5000  21.2500 Du        
   1549 ****        14.2500  14.5000  21.5000 Du        
   1550 ****        14.2500  14.5000  21.7500 Du        
   1551 ****        14.2500  14.5000  22.0000 Du        
   1552 ****        14.2500  14.5000  22.2500 Du        
   1553 ****        14.2500  14.5000  22.5000 Du        
   1554 ****        14.2500  14.5000  22.7500 Du        
   1555 ****        14.2500  14.5000  23.0000 Du        
   1556 ****        14.2500  14.5000  23.2500 Du        
   1557 ****        14.2500  14.5000  23.5000 Du        
   1558 ****        14.2500  14.5000  23.7500 Du        
   1559 ****        14.2500  14.5000  24.0000 Du        
   1560 ****        14.2500  14.5000  24.2500 Du        
   1561 ****        14.2500  14.7500  19.7500 Du        
   1562 ****        14.2500  14.7500  20.0000 Du        
   1563 ****        14.2500  14.7500  20.2500 Du        
   1564 ****        14.2500  14.7500  20.5000 Du        
   1565 ****        14.2500  14.7500  20.7500 Du        
   1566 ****        14.2500  14.7500  21.0000 Du        
   1567 ****        14.2500  14.7500  21.2500 Du        
   1568 ****        14.2500  14.7500  21.5000 Du        
   1569 ****        14.2500  14.7500  21.7500 Du        
   1570 ****        14.2500  14.7500  22.0000 Du        
   1571 ****        14.2500  14.7500  22.2500 Du        
   1572 ****        14.2500  14.7500  22.5000 Du        
   1573 ****        14.2500  14.7500  22.7500 Du        
   1574 ****        14.2500  14.7500  23.0000 Du        
   1575 ****        14.2500  14.7500  23.2500 Du        
   1576 ****        14.2500  14.7500  23.5000 Du        
   1577 ****        14.2500  14.7500  23.7500 Du        
   1578 ****        14.2500  14.7500  24.0000 Du        
   1579 ****        14.2500  14.7500  24.2500 Du        
   1580 ****        14.2500  14.7500  24.5000 Du        
   1581 ****        14.2500  14.7500  24.7500 Du        
   1582 ****        14.2500  14.7500  25.0000 Du        
   1583 ****        14.2500  15.0000  20.0000 Du        
   1584 ****        14.2500  15.0000  20.2500 Du        
   1585 ****        14.2500  15.0000  20.5000 Du        
   1586 ****        14.2500  15.0000  20.7500 Du        
   1587 ****        14.2500  15.0000  21.0000 Du        
   1588 ****        14.2500  15.0000  21.2500 Du        
   1589 ****        14.2500  15.0000  21.5000 Du        
   1590 ****        14.2500  15.0000  21.7500 Du        
   1591 ****        14.2500  15.0000  22.0000 Du        
   1592 ****        14.2500  15.0000  22.2500 Du        
   1593 ****        14.2500  15.0000  22.5000 Du        
   1594 ****        14.2500  15.0000  22.7500 Du        
   1595 ****        14.2500  15.0000  23.0000 Du        
   1596 ****        14.2500  15.0000  23.2500 Du        
   1597 ****        14.2500  15.0000  23.5000 Du        
   1598 ****        14.2500  15.0000  23.7500 Du        
   1599 ****        14.2500  15.0000  24.0000 Du        
   1600 ****        14.2500  15.0000  24.2500 Du        
   1601 ****        14.2500  15.0000  24.5000 Du        
   1602 ****        14.2500  15.0000  24.7500 Du        
   1603 ****        14.2500  15.0000  25.0000 Du        
   1604 ****        14.2500  15.0000  25.2500 Du        
   1605 ****        14.2500  15.2500  20.2500 Du        
   1606 ****        14.2500  15.2500  20.5000 Du        
   1607 ****        14.2500  15.2500  20.7500 Du        
   1608 ****        14.2500  15.2500  21.0000 Du        
   1609 ****        14.2500  15.2500  21.2500 Du        
   1610 ****        14.2500  15.2500  21.5000 Du        
   1611 ****        14.2500  15.2500  21.7500 Du        
   1612 ****        14.2500  15.2500  22.0000 Du        
   1613 ****        14.2500  15.2500  22.2500 Du        
   1614 ****        14.2500  15.2500  22.5000 Du        
   1615 ****        14.2500  15.2500  22.7500 Du        
   1616 ****        14.2500  15.2500  23.0000 Du        
   1617 ****        14.2500  15.2500  23.2500 Du        
   1618 ****        14.2500  15.2500  23.5000 Du        
   1619 ****        14.2500  15.2500  23.7500 Du        
   1620 ****        14.2500  15.2500  24.0000 Du        
   1621 ****        14.2500  15.2500  24.2500 Du        
   1622 ****        14.2500  15.2500  24.5000 Du        
   1623 ****        14.2500  15.2500  24.7500 Du        
   1624 ****        14.2500  15.2500  25.0000 Du        
   1625 ****        14.2500  15.2500  25.2500 Du        
   1626 ****        14.2500  15.5000  20.5000 Du        
   1627 ****        14.2500  15.5000  20.7500 Du        
   1628 ****        14.2500  15.5000  21.0000 Du        
   1629 ****        14.2500  15.5000  21.2500 Du        
   1630 ****        14.2500  15.5000  21.5000 Du        
   1631 ****        14.2500  15.5000  21.7500 Du        
   1632 ****        14.2500  15.5000  23.5000 Du        
   1633 ****        14.2500  15.5000  23.7500 Du        
   1634 ****        14.2500  15.5000  24.0000 Du        
   1635 ****        14.2500  15.5000  24.2500 Du        
   1636 ****        14.2500  15.5000  24.5000 Du        
   1637 ****        14.2500  15.5000  24.7500 Du        
   1638 ****        14.2500  15.5000  25.0000 Du        
   1639 ****        14.2500  15.5000  25.2500 Du        
   1640 ****        14.2500  15.7500  21.0000 Du        
   1641 ****        14.2500  15.7500  21.2500 Du        
   1642 ****        14.2500  15.7500  24.0000 Du        
   1643 ****        14.2500  15.7500  24.2500 Du        
   1644 ****        14.2500  15.7500  24.5000 Du        
   1645 ****        14.2500  15.7500  24.7500 Du        
   1646 ****        14.2500  15.7500  25.0000 Du        
   1647 ****        14.2500  15.7500  25.2500 Du        
   1648 ****        14.2500  16.0000  24.2500 Du        
   1649 ****        14.2500  16.0000  24.5000 Du        
   1650 ****        14.2500  16.0000  24.7500 Du        
   1651 ****        14.2500  16.0000  25.0000 Du        
   1652 ****        14.2500  16.0000  25.2500 Du        
   1653 ****        14.2500  16.2500  24.5000 Du        
   1654 ****        14.2500  16.2500  24.7500 Du        
   1655 ****        14.2500  16.2500  25.0000 Du        
   1656 ****        14.2500  16.2500  25.2500 Du        
   1657 ****        14.2500  16.5000  25.0000 Du        
   1658 ****        14.2500  18.0000  25.5000 Du        
   1659 ****        14.2500  18.0000  25.7500 Du        
   1660 ****        14.2500  18.0000  26.0000 Du        
   1661 ****        14.2500  18.2500  25.5000 Du        
   1662 ****        14.2500  18.2500  25.7500 Du        
   1663 ****        14.2500  18.2500  26.0000 Du        
   1664 ****        14.2500  18.2500  26.2500 Du        
   1665 ****        14.2500  18.5000  25.5000 Du        
   1666 ****        14.2500  18.5000  25.7500 Du        
   1667 ****        14.2500  18.5000  26.0000 Du        
   1668 ****        14.2500  18.5000  26.2500 Du        
   1669 ****        14.2500  18.5000  26.5000 Du        
   1670 ****        14.2500  18.5000  26.7500 Du        
   1671 ****        14.2500  18.7500  25.5000 Du        
   1672 ****        14.2500  18.7500  25.7500 Du        
   1673 ****        14.2500  18.7500  26.0000 Du        
   1674 ****        14.2500  18.7500  26.2500 Du        
   1675 ****        14.2500  18.7500  26.5000 Du        
   1676 ****        14.2500  18.7500  26.7500 Du        
   1677 ****        14.2500  18.7500  27.0000 Du        
   1678 ****        14.2500  19.0000  25.2500 Du        
   1679 ****        14.2500  19.0000  25.5000 Du        
   1680 ****        14.2500  19.0000  25.7500 Du        
   1681 ****        14.2500  19.0000  26.0000 Du        
   1682 ****        14.2500  19.0000  26.2500 Du        
   1683 ****        14.2500  19.0000  26.5000 Du        
   1684 ****        14.2500  19.0000  26.7500 Du        
   1685 ****        14.2500  19.0000  27.0000 Du        
   1686 ****        14.2500  19.0000  27.2500 Du        
   1687 ****        14.2500  19.0000  27.5000 Du        
   1688 ****        14.2500  19.2500  25.2500 Du        
   1689 ****        14.2500  19.2500  25.5000 Du        
   1690 ****        14.2500  19.2500  25.7500 Du        
   1691 ****        14.2500  19.2500  26.0000 Du        
   1692 ****        14.2500  19.2500  26.2500 Du        
   1693 ****        14.2500  19.2500  26.5000 Du        
   1694 ****        14.2500  19.2500  26.7500 Du        
   1695 ****        14.2500  19.2500  27.0000 Du        
   1696 ****        14.2500  19.2500  27.2500 Du        
   1697 ****        14.2500  19.2500  27.5000 Du        
   1698 ****        14.2500  19.2500  27.7500 Du        
   1699 ****        14.2500  19.2500  28.0000 Du        
   1700 ****        14.2500  19.5000  25.0000 Du        
   1701 ****        14.2500  19.5000  25.2500 Du        
   1702 ****        14.2500  19.5000  25.5000 Du        
   1703 ****        14.2500  19.5000  25.7500 Du        
   1704 ****        14.2500  19.5000  26.0000 Du        
   1705 ****        14.2500  19.5000  26.2500 Du        
   1706 ****        14.2500  19.5000  26.5000 Du        
   1707 ****        14.2500  19.5000  26.7500 Du        
   1708 ****        14.2500  19.5000  27.0000 Du        
   1709 ****        14.2500  19.5000  27.2500 Du        
   1710 ****        14.2500  19.5000  27.5000 Du        
   1711 ****        14.2500  19.5000  27.7500 Du        
   1712 ****        14.2500  19.5000  28.0000 Du        
   1713 ****        14.2500  19.5000  28.2500 Du        
   1714 ****        14.2500  19.5000  28.5000 Du        
   1715 ****        14.2500  19.7500  21.0000 Du        
   1716 ****        14.2500  19.7500  21.2500 Du        
   1717 ****        14.2500  19.7500  25.0000 Du        
   1718 ****        14.2500  19.7500  25.2500 Du        
   1719 ****        14.2500  19.7500  25.5000 Du        
   1720 ****        14.2500  19.7500  25.7500 Du        
   1721 ****        14.2500  19.7500  26.0000 Du        
   1722 ****        14.2500  19.7500  26.2500 Du        
   1723 ****        14.2500  19.7500  26.5000 Du        
   1724 ****        14.2500  19.7500  26.7500 Du        
   1725 ****        14.2500  19.7500  27.0000 Du        
   1726 ****        14.2500  19.7500  27.2500 Du        
   1727 ****        14.2500  19.7500  27.5000 Du        
   1728 ****        14.2500  19.7500  27.7500 Du        
   1729 ****        14.2500  19.7500  28.0000 Du        
   1730 ****        14.2500  19.7500  28.2500 Du        
   1731 ****        14.2500  19.7500  28.5000 Du        
   1732 ****        14.2500  20.0000  20.7500 Du        
   1733 ****        14.2500  20.0000  21.0000 Du        
   1734 ****        14.2500  20.0000  21.2500 Du        
   1735 ****        14.2500  20.0000  21.5000 Du        
   1736 ****        14.2500  20.0000  24.7500 Du        
   1737 ****        14.2500  20.0000  25.0000 Du        
   1738 ****        14.2500  20.0000  25.2500 Du        
   1739 ****        14.2500  20.0000  25.5000 Du        
   1740 ****        14.2500  20.0000  25.7500 Du        
   1741 ****        14.2500  20.0000  26.0000 Du        
   1742 ****        14.2500  20.0000  26.2500 Du        
   1743 ****        14.2500  20.0000  26.5000 Du        
   1744 ****        14.2500  20.0000  26.7500 Du        
   1745 ****        14.2500  20.0000  27.0000 Du        
   1746 ****        14.2500  20.0000  27.2500 Du        
   1747 ****        14.2500  20.0000  27.5000 Du        
   1748 ****        14.2500  20.0000  27.7500 Du        
   1749 ****        14.2500  20.0000  28.0000 Du        
   1750 ****        14.2500  20.0000  28.2500 Du        
   1751 ****        14.2500  20.2500  21.0000 Du        
   1752 ****        14.2500  20.2500  21.2500 Du        
   1753 ****        14.2500  20.2500  21.5000 Du        
   1754 ****        14.2500  20.2500  21.7500 Du        
   1755 ****        14.2500  20.2500  24.5000 Du        
   1756 ****        14.2500  20.2500  24.7500 Du        
   1757 ****        14.2500  20.2500  25.0000 Du        
   1758 ****        14.2500  20.2500  25.2500 Du        
   1759 ****        14.2500  20.2500  25.5000 Du        
   1760 ****        14.2500  20.2500  25.7500 Du        
   1761 ****        14.2500  20.2500  26.0000 Du        
   1762 ****        14.2500  20.2500  26.2500 Du        
   1763 ****        14.2500  20.2500  26.5000 Du        
   1764 ****        14.2500  20.2500  26.7500 Du        
   1765 ****        14.2500  20.2500  27.0000 Du        
   1766 ****        14.2500  20.2500  27.2500 Du        
   1767 ****        14.2500  20.2500  27.5000 Du        
   1768 ****        14.2500  20.2500  27.7500 Du        
   1769 ****        14.2500  20.5000  21.0000 Du        
   1770 ****        14.2500  20.5000  21.2500 Du        
   1771 ****        14.2500  20.5000  21.5000 Du        
   1772 ****        14.2500  20.5000  21.7500 Du        
   1773 ****        14.2500  20.5000  22.0000 Du        
   1774 ****        14.2500  20.5000  24.7500 Du        
   1775 ****        14.2500  20.5000  25.0000 Du        
   1776 ****        14.2500  20.5000  25.2500 Du        
   1777 ****        14.2500  20.5000  25.5000 Du        
   1778 ****        14.2500  20.5000  25.7500 Du        
   1779 ****        14.2500  20.5000  26.0000 Du        
   1780 ****        14.2500  20.5000  26.2500 Du        
   1781 ****        14.2500  20.5000  26.5000 Du        
   1782 ****        14.2500  20.5000  26.7500 Du        
   1783 ****        14.2500  20.5000  27.0000 Du        
   1784 ****        14.2500  20.5000  27.2500 Du        
   1785 ****        14.2500  20.5000  27.5000 Du        
   1786 ****        14.2500  20.7500  21.2500 Du        
   1787 ****        14.2500  20.7500  21.5000 Du        
   1788 ****        14.2500  20.7500  21.7500 Du        
   1789 ****        14.2500  20.7500  22.0000 Du        
   1790 ****        14.2500  20.7500  22.2500 Du        
   1791 ****        14.2500  20.7500  24.7500 Du        
   1792 ****        14.2500  20.7500  25.0000 Du        
   1793 ****        14.2500  20.7500  25.2500 Du        
   1794 ****        14.2500  20.7500  25.5000 Du        
   1795 ****        14.2500  20.7500  25.7500 Du        
   1796 ****        14.2500  20.7500  26.0000 Du        
   1797 ****        14.2500  20.7500  26.2500 Du        
   1798 ****        14.2500  20.7500  26.5000 Du        
   1799 ****        14.2500  20.7500  26.7500 Du        
   1800 ****        14.2500  20.7500  27.0000 Du        
   1801 ****        14.2500  20.7500  27.2500 Du        
   1802 ****        14.2500  21.0000  21.5000 Du        
   1803 ****        14.2500  21.0000  21.7500 Du        
   1804 ****        14.2500  21.0000  22.0000 Du        
   1805 ****        14.2500  21.0000  22.2500 Du        
   1806 ****        14.2500  21.0000  25.0000 Du        
   1807 ****        14.2500  21.0000  25.2500 Du        
   1808 ****        14.2500  21.0000  25.5000 Du        
   1809 ****        14.2500  21.0000  25.7500 Du        
   1810 ****        14.2500  21.0000  26.0000 Du        
   1811 ****        14.2500  21.0000  26.2500 Du        
   1812 ****        14.2500  21.0000  26.5000 Du        
   1813 ****        14.2500  21.0000  26.7500 Du        
   1814 ****        14.2500  21.0000  27.0000 Du        
   1815 ****        14.2500  21.2500  21.7500 Du        
   1816 ****        14.2500  21.2500  22.0000 Du        
   1817 ****        14.2500  21.2500  22.2500 Du        
   1818 ****        14.2500  21.2500  25.0000 Du        
   1819 ****        14.2500  21.2500  25.2500 Du        
   1820 ****        14.2500  21.2500  25.5000 Du        
   1821 ****        14.2500  21.2500  25.7500 Du        
   1822 ****        14.2500  21.2500  26.0000 Du        
   1823 ****        14.2500  21.2500  26.2500 Du        
   1824 ****        14.2500  21.2500  26.5000 Du        
   1825 ****        14.2500  21.2500  26.7500 Du        
   1826 ****        14.2500  21.5000  22.0000 Du        
   1827 ****        14.2500  21.5000  22.2500 Du        
   1828 ****        14.2500  21.5000  25.2500 Du        
   1829 ****        14.2500  21.5000  25.5000 Du        
   1830 ****        14.2500  21.5000  25.7500 Du        
   1831 ****        14.2500  21.5000  26.0000 Du        
   1832 ****        14.2500  21.5000  26.2500 Du        
   1833 ****        14.2500  21.5000  26.5000 Du        
   1834 ****        14.2500  21.5000  26.7500 Du        
   1835 ****        14.2500  21.7500  22.2500 Du        
   1836 ****        14.2500  21.7500  25.2500 Du        
   1837 ****        14.2500  21.7500  25.5000 Du        
   1838 ****        14.2500  21.7500  25.7500 Du        
   1839 ****        14.2500  21.7500  26.0000 Du        
   1840 ****        14.2500  21.7500  26.2500 Du        
   1841 ****        14.2500  21.7500  26.5000 Du        
   1842 ****        14.2500  22.0000  25.5000 Du        
   1843 ****        14.2500  22.0000  25.7500 Du        
   1844 ****        14.2500  22.0000  26.0000 Du        
   1845 ****        14.2500  22.0000  26.2500 Du        
   1846 ****        14.2500  22.2500  25.7500 Du        
   1847 ****        14.2500  22.2500  26.0000 Du        
   1848 ****        14.2500  22.5000  25.7500 Du        
   1849 ****        14.5000  11.2500  30.2500 Du        
   1850 ****        14.5000  11.2500  30.5000 Du        
   1851 ****        14.5000  11.2500  30.7500 Du        
   1852 ****        14.5000  11.5000  30.2500 Du        
   1853 ****        14.5000  11.5000  30.5000 Du        
   1854 ****        14.5000  11.5000  30.7500 Du        
   1855 ****        14.5000  11.7500  30.5000 Du        
   1856 ****        14.5000  11.7500  30.7500 Du        
   1857 ****        14.5000  13.2500  22.7500 Du        
   1858 ****        14.5000  13.5000  22.2500 Du        
   1859 ****        14.5000  13.5000  22.5000 Du        
   1860 ****        14.5000  13.5000  22.7500 Du        
   1861 ****        14.5000  13.5000  23.0000 Du        
   1862 ****        14.5000  13.5000  23.2500 Du        
   1863 ****        14.5000  13.7500  21.7500 Du        
   1864 ****        14.5000  13.7500  22.0000 Du        
   1865 ****        14.5000  13.7500  22.2500 Du        
   1866 ****        14.5000  13.7500  22.5000 Du        
   1867 ****        14.5000  13.7500  22.7500 Du        
   1868 ****        14.5000  13.7500  23.0000 Du        
   1869 ****        14.5000  13.7500  23.2500 Du        
   1870 ****        14.5000  13.7500  23.5000 Du        
   1871 ****        14.5000  14.0000  20.7500 Du        
   1872 ****        14.5000  14.0000  21.0000 Du        
   1873 ****        14.5000  14.0000  21.2500 Du        
   1874 ****        14.5000  14.0000  21.5000 Du        
   1875 ****        14.5000  14.0000  21.7500 Du        
   1876 ****        14.5000  14.0000  22.0000 Du        
   1877 ****        14.5000  14.0000  22.2500 Du        
   1878 ****        14.5000  14.0000  22.5000 Du        
   1879 ****        14.5000  14.0000  22.7500 Du        
   1880 ****        14.5000  14.0000  23.0000 Du        
   1881 ****        14.5000  14.0000  23.2500 Du        
   1882 ****        14.5000  14.0000  23.5000 Du        
   1883 ****        14.5000  14.0000  23.7500 Du        
   1884 ****        14.5000  14.2500  20.2500 Du        
   1885 ****        14.5000  14.2500  20.5000 Du        
   1886 ****        14.5000  14.2500  20.7500 Du        
   1887 ****        14.5000  14.2500  21.0000 Du        
   1888 ****        14.5000  14.2500  21.2500 Du        
   1889 ****        14.5000  14.2500  21.5000 Du        
   1890 ****        14.5000  14.2500  21.7500 Du        
   1891 ****        14.5000  14.2500  22.0000 Du        
   1892 ****        14.5000  14.2500  22.2500 Du        
   1893 ****        14.5000  14.2500  22.5000 Du        
   1894 ****        14.5000  14.2500  22.7500 Du        
   1895 ****        14.5000  14.2500  23.0000 Du        
   1896 ****        14.5000  14.2500  23.2500 Du        
   1897 ****        14.5000  14.2500  23.5000 Du        
   1898 ****        14.5000  14.2500  23.7500 Du        
   1899 ****        14.5000  14.2500  24.0000 Du        
   1900 ****        14.5000  14.2500  24.2500 Du        
   1901 ****        14.5000  14.5000  19.7500 Du        
   1902 ****        14.5000  14.5000  20.0000 Du        
   1903 ****        14.5000  14.5000  20.2500 Du        
   1904 ****        14.5000  14.5000  20.5000 Du        
   1905 ****        14.5000  14.5000  20.7500 Du        
   1906 ****        14.5000  14.5000  21.0000 Du        
   1907 ****        14.5000  14.5000  21.2500 Du        
   1908 ****        14.5000  14.5000  21.5000 Du        
   1909 ****        14.5000  14.5000  21.7500 Du        
   1910 ****        14.5000  14.5000  22.0000 Du        
   1911 ****        14.5000  14.5000  22.2500 Du        
   1912 ****        14.5000  14.5000  22.5000 Du        
   1913 ****        14.5000  14.5000  22.7500 Du        
   1914 ****        14.5000  14.5000  23.0000 Du        
   1915 ****        14.5000  14.5000  23.2500 Du        
   1916 ****        14.5000  14.5000  23.5000 Du        
   1917 ****        14.5000  14.5000  23.7500 Du        
   1918 ****        14.5000  14.5000  24.0000 Du        
   1919 ****        14.5000  14.5000  24.2500 Du        
   1920 ****        14.5000  14.5000  24.5000 Du        
   1921 ****        14.5000  14.7500  19.7500 Du        
   1922 ****        14.5000  14.7500  20.0000 Du        
   1923 ****        14.5000  14.7500  20.2500 Du        
   1924 ****        14.5000  14.7500  20.5000 Du        
   1925 ****        14.5000  14.7500  20.7500 Du        
   1926 ****        14.5000  14.7500  21.0000 Du        
   1927 ****        14.5000  14.7500  21.2500 Du        
   1928 ****        14.5000  14.7500  21.5000 Du        
   1929 ****        14.5000  14.7500  21.7500 Du        
   1930 ****        14.5000  14.7500  22.0000 Du        
   1931 ****        14.5000  14.7500  22.2500 Du        
   1932 ****        14.5000  14.7500  22.5000 Du        
   1933 ****        14.5000  14.7500  22.7500 Du        
   1934 ****        14.5000  14.7500  23.0000 Du        
   1935 ****        14.5000  14.7500  23.2500 Du        
   1936 ****        14.5000  14.7500  23.5000 Du        
   1937 ****        14.5000  14.7500  23.7500 Du        
   1938 ****        14.5000  14.7500  24.0000 Du        
   1939 ****        14.5000  14.7500  24.2500 Du        
   1940 ****        14.5000  14.7500  24.5000 Du        
   1941 ****        14.5000  14.7500  24.7500 Du        
   1942 ****        14.5000  14.7500  25.0000 Du        
   1943 ****        14.5000  14.7500  25.2500 Du        
   1944 ****        14.5000  15.0000  19.7500 Du        
   1945 ****        14.5000  15.0000  20.0000 Du        
   1946 ****        14.5000  15.0000  20.2500 Du        
   1947 ****        14.5000  15.0000  20.5000 Du        
   1948 ****        14.5000  15.0000  20.7500 Du        
   1949 ****        14.5000  15.0000  21.0000 Du        
   1950 ****        14.5000  15.0000  21.2500 Du        
   1951 ****        14.5000  15.0000  21.5000 Du        
   1952 ****        14.5000  15.0000  21.7500 Du        
   1953 ****        14.5000  15.0000  22.0000 Du        
   1954 ****        14.5000  15.0000  22.2500 Du        
   1955 ****        14.5000  15.0000  22.5000 Du        
   1956 ****        14.5000  15.0000  22.7500 Du        
   1957 ****        14.5000  15.0000  23.0000 Du        
   1958 ****        14.5000  15.0000  23.2500 Du        
   1959 ****        14.5000  15.0000  23.5000 Du        
   1960 ****        14.5000  15.0000  23.7500 Du        
   1961 ****        14.5000  15.0000  24.0000 Du        
   1962 ****        14.5000  15.0000  24.2500 Du        
   1963 ****        14.5000  15.0000  24.5000 Du        
   1964 ****        14.5000  15.0000  24.7500 Du        
   1965 ****        14.5000  15.0000  25.0000 Du        
   1966 ****        14.5000  15.0000  25.2500 Du        
   1967 ****        14.5000  15.0000  25.5000 Du        
   1968 ****        14.5000  15.2500  20.0000 Du        
   1969 ****        14.5000  15.2500  20.2500 Du        
   1970 ****        14.5000  15.2500  20.5000 Du        
   1971 ****        14.5000  15.2500  20.7500 Du        
   1972 ****        14.5000  15.2500  21.0000 Du        
   1973 ****        14.5000  15.2500  21.2500 Du        
   1974 ****        14.5000  15.2500  21.5000 Du        
   1975 ****        14.5000  15.2500  21.7500 Du        
   1976 ****        14.5000  15.2500  22.0000 Du        
   1977 ****        14.5000  15.2500  22.2500 Du        
   1978 ****        14.5000  15.2500  22.5000 Du        
   1979 ****        14.5000  15.2500  22.7500 Du        
   1980 ****        14.5000  15.2500  23.0000 Du        
   1981 ****        14.5000  15.2500  23.2500 Du        
   1982 ****        14.5000  15.2500  23.5000 Du        
   1983 ****        14.5000  15.2500  23.7500 Du        
   1984 ****        14.5000  15.2500  24.0000 Du        
   1985 ****        14.5000  15.2500  24.2500 Du        
   1986 ****        14.5000  15.2500  24.5000 Du        
   1987 ****        14.5000  15.2500  24.7500 Du        
   1988 ****        14.5000  15.2500  25.0000 Du        
   1989 ****        14.5000  15.2500  25.2500 Du        
   1990 ****        14.5000  15.2500  25.5000 Du        
   1991 ****        14.5000  15.5000  20.2500 Du        
   1992 ****        14.5000  15.5000  20.5000 Du        
   1993 ****        14.5000  15.5000  20.7500 Du        
   1994 ****        14.5000  15.5000  21.0000 Du        
   1995 ****        14.5000  15.5000  21.2500 Du        
   1996 ****        14.5000  15.5000  21.5000 Du        
   1997 ****        14.5000  15.5000  21.7500 Du        
   1998 ****        14.5000  15.5000  22.0000 Du        
   1999 ****        14.5000  15.5000  22.2500 Du        
   2000 ****        14.5000  15.5000  22.5000 Du        
   2001 ****        14.5000  15.5000  22.7500 Du        
   2002 ****        14.5000  15.5000  23.0000 Du        
   2003 ****        14.5000  15.5000  23.2500 Du        
   2004 ****        14.5000  15.5000  23.5000 Du        
   2005 ****        14.5000  15.5000  23.7500 Du        
   2006 ****        14.5000  15.5000  24.0000 Du        
   2007 ****        14.5000  15.5000  24.2500 Du        
   2008 ****        14.5000  15.5000  24.5000 Du        
   2009 ****        14.5000  15.5000  24.7500 Du        
   2010 ****        14.5000  15.5000  25.0000 Du        
   2011 ****        14.5000  15.5000  25.2500 Du        
   2012 ****        14.5000  15.5000  25.5000 Du        
   2013 ****        14.5000  15.7500  20.5000 Du        
   2014 ****        14.5000  15.7500  20.7500 Du        
   2015 ****        14.5000  15.7500  21.0000 Du        
   2016 ****        14.5000  15.7500  21.2500 Du        
   2017 ****        14.5000  15.7500  21.5000 Du        
   2018 ****        14.5000  15.7500  21.7500 Du        
   2019 ****        14.5000  15.7500  22.0000 Du        
   2020 ****        14.5000  15.7500  23.5000 Du        
   2021 ****        14.5000  15.7500  23.7500 Du        
   2022 ****        14.5000  15.7500  24.0000 Du        
   2023 ****        14.5000  15.7500  24.2500 Du        
   2024 ****        14.5000  15.7500  24.5000 Du        
   2025 ****        14.5000  15.7500  24.7500 Du        
   2026 ****        14.5000  15.7500  25.0000 Du        
   2027 ****        14.5000  15.7500  25.2500 Du        
   2028 ****        14.5000  15.7500  25.5000 Du        
   2029 ****        14.5000  16.0000  20.7500 Du        
   2030 ****        14.5000  16.0000  21.0000 Du        
   2031 ****        14.5000  16.0000  21.2500 Du        
   2032 ****        14.5000  16.0000  21.5000 Du        
   2033 ****        14.5000  16.0000  24.0000 Du        
   2034 ****        14.5000  16.0000  24.2500 Du        
   2035 ****        14.5000  16.0000  24.5000 Du        
   2036 ****        14.5000  16.0000  24.7500 Du        
   2037 ****        14.5000  16.0000  25.0000 Du        
   2038 ****        14.5000  16.0000  25.2500 Du        
   2039 ****        14.5000  16.2500  21.0000 Du        
   2040 ****        14.5000  16.2500  21.2500 Du        
   2041 ****        14.5000  16.2500  24.2500 Du        
   2042 ****        14.5000  16.2500  24.5000 Du        
   2043 ****        14.5000  16.2500  24.7500 Du        
   2044 ****        14.5000  16.2500  25.0000 Du        
   2045 ****        14.5000  16.2500  25.2500 Du        
   2046 ****        14.5000  16.5000  24.7500 Du        
   2047 ****        14.5000  16.5000  25.0000 Du        
   2048 ****        14.5000  16.5000  25.2500 Du        
   2049 ****        14.5000  16.7500  25.0000 Du        
   2050 ****        14.5000  16.7500  25.2500 Du        
   2051 ****        14.5000  17.0000  25.2500 Du        
   2052 ****        14.5000  17.2500  25.2500 Du        
   2053 ****        14.5000  17.2500  25.5000 Du        
   2054 ****        14.5000  17.5000  25.5000 Du        
   2055 ****        14.5000  17.7500  25.5000 Du        
   2056 ****        14.5000  17.7500  25.7500 Du        
   2057 ****        14.5000  17.7500  26.0000 Du        
   2058 ****        14.5000  18.0000  25.5000 Du        
   2059 ****        14.5000  18.0000  25.7500 Du        
   2060 ****        14.5000  18.0000  26.0000 Du        
   2061 ****        14.5000  18.0000  26.2500 Du        
   2062 ****        14.5000  18.2500  25.5000 Du        
   2063 ****        14.5000  18.2500  25.7500 Du        
   2064 ****        14.5000  18.2500  26.0000 Du        
   2065 ****        14.5000  18.2500  26.2500 Du        
   2066 ****        14.5000  18.2500  26.5000 Du        
   2067 ****        14.5000  18.5000  25.5000 Du        
   2068 ****        14.5000  18.5000  25.7500 Du        
   2069 ****        14.5000  18.5000  26.0000 Du        
   2070 ****        14.5000  18.5000  26.2500 Du        
   2071 ****        14.5000  18.5000  26.5000 Du        
   2072 ****        14.5000  18.5000  26.7500 Du        
   2073 ****        14.5000  18.5000  27.0000 Du        
   2074 ****        14.5000  18.7500  25.5000 Du        
   2075 ****        14.5000  18.7500  25.7500 Du        
   2076 ****        14.5000  18.7500  26.0000 Du        
   2077 ****        14.5000  18.7500  26.2500 Du        
   2078 ****        14.5000  18.7500  26.5000 Du        
   2079 ****        14.5000  18.7500  26.7500 Du        
   2080 ****        14.5000  18.7500  27.0000 Du        
   2081 ****        14.5000  18.7500  27.2500 Du        
   2082 ****        14.5000  18.7500  27.5000 Du        
   2083 ****        14.5000  19.0000  21.0000 Du        
   2084 ****        14.5000  19.0000  25.5000 Du        
   2085 ****        14.5000  19.0000  25.7500 Du        
   2086 ****        14.5000  19.0000  26.0000 Du        
   2087 ****        14.5000  19.0000  26.2500 Du        
   2088 ****        14.5000  19.0000  26.5000 Du        
   2089 ****        14.5000  19.0000  26.7500 Du        
   2090 ****        14.5000  19.0000  27.0000 Du        
   2091 ****        14.5000  19.0000  27.2500 Du        
   2092 ****        14.5000  19.0000  27.5000 Du        
   2093 ****        14.5000  19.0000  27.7500 Du        
   2094 ****        14.5000  19.0000  28.0000 Du        
   2095 ****        14.5000  19.0000  28.2500 Du        
   2096 ****        14.5000  19.2500  21.0000 Du        
   2097 ****        14.5000  19.2500  21.2500 Du        
   2098 ****        14.5000  19.2500  25.2500 Du        
   2099 ****        14.5000  19.2500  25.5000 Du        
   2100 ****        14.5000  19.2500  25.7500 Du        
   2101 ****        14.5000  19.2500  26.0000 Du        
   2102 ****        14.5000  19.2500  26.2500 Du        
   2103 ****        14.5000  19.2500  26.5000 Du        
   2104 ****        14.5000  19.2500  26.7500 Du        
   2105 ****        14.5000  19.2500  27.0000 Du        
   2106 ****        14.5000  19.2500  27.2500 Du        
   2107 ****        14.5000  19.2500  27.5000 Du        
   2108 ****        14.5000  19.2500  27.7500 Du        
   2109 ****        14.5000  19.2500  28.0000 Du        
   2110 ****        14.5000  19.2500  28.2500 Du        
   2111 ****        14.5000  19.2500  28.5000 Du        
   2112 ****        14.5000  19.2500  28.7500 Du        
   2113 ****        14.5000  19.5000  21.0000 Du        
   2114 ****        14.5000  19.5000  21.2500 Du        
   2115 ****        14.5000  19.5000  25.5000 Du        
   2116 ****        14.5000  19.5000  25.7500 Du        
   2117 ****        14.5000  19.5000  26.0000 Du        
   2118 ****        14.5000  19.5000  26.2500 Du        
   2119 ****        14.5000  19.5000  26.5000 Du        
   2120 ****        14.5000  19.5000  26.7500 Du        
   2121 ****        14.5000  19.5000  27.0000 Du        
   2122 ****        14.5000  19.5000  27.2500 Du        
   2123 ****        14.5000  19.5000  27.5000 Du        
   2124 ****        14.5000  19.5000  27.7500 Du        
   2125 ****        14.5000  19.5000  28.0000 Du        
   2126 ****        14.5000  19.5000  28.2500 Du        
   2127 ****        14.5000  19.5000  28.5000 Du        
   2128 ****        14.5000  19.5000  28.7500 Du        
   2129 ****        14.5000  19.7500  21.0000 Du        
   2130 ****        14.5000  19.7500  21.2500 Du        
   2131 ****        14.5000  19.7500  21.5000 Du        
   2132 ****        14.5000  19.7500  21.7500 Du        
   2133 ****        14.5000  19.7500  25.2500 Du        
   2134 ****        14.5000  19.7500  25.5000 Du        
   2135 ****        14.5000  19.7500  25.7500 Du        
   2136 ****        14.5000  19.7500  26.0000 Du        
   2137 ****        14.5000  19.7500  26.2500 Du        
   2138 ****        14.5000  19.7500  26.5000 Du        
   2139 ****        14.5000  19.7500  26.7500 Du        
   2140 ****        14.5000  19.7500  27.0000 Du        
   2141 ****        14.5000  19.7500  27.2500 Du        
   2142 ****        14.5000  19.7500  27.5000 Du        
   2143 ****        14.5000  19.7500  27.7500 Du        
   2144 ****        14.5000  19.7500  28.0000 Du        
   2145 ****        14.5000  19.7500  28.2500 Du        
   2146 ****        14.5000  20.0000  21.0000 Du        
   2147 ****        14.5000  20.0000  21.2500 Du        
   2148 ****        14.5000  20.0000  21.5000 Du        
   2149 ****        14.5000  20.0000  21.7500 Du        
   2150 ****        14.5000  20.0000  22.0000 Du        
   2151 ****        14.5000  20.0000  25.2500 Du        
   2152 ****        14.5000  20.0000  25.5000 Du        
   2153 ****        14.5000  20.0000  25.7500 Du        
   2154 ****        14.5000  20.0000  26.0000 Du        
   2155 ****        14.5000  20.0000  26.2500 Du        
   2156 ****        14.5000  20.0000  26.5000 Du        
   2157 ****        14.5000  20.0000  26.7500 Du        
   2158 ****        14.5000  20.0000  27.0000 Du        
   2159 ****        14.5000  20.0000  27.2500 Du        
   2160 ****        14.5000  20.0000  27.5000 Du        
   2161 ****        14.5000  20.0000  27.7500 Du        
   2162 ****        14.5000  20.0000  28.0000 Du        
   2163 ****        14.5000  20.2500  21.0000 Du        
   2164 ****        14.5000  20.2500  21.2500 Du        
   2165 ****        14.5000  20.2500  21.5000 Du        
   2166 ****        14.5000  20.2500  21.7500 Du        
   2167 ****        14.5000  20.2500  22.0000 Du        
   2168 ****        14.5000  20.2500  25.2500 Du        
   2169 ****        14.5000  20.2500  25.5000 Du        
   2170 ****        14.5000  20.2500  25.7500 Du        
   2171 ****        14.5000  20.2500  26.0000 Du        
   2172 ****        14.5000  20.2500  26.2500 Du        
   2173 ****        14.5000  20.2500  26.5000 Du        
   2174 ****        14.5000  20.2500  26.7500 Du        
   2175 ****        14.5000  20.2500  27.0000 Du        
   2176 ****        14.5000  20.2500  27.2500 Du        
   2177 ****        14.5000  20.2500  27.5000 Du        
   2178 ****        14.5000  20.5000  21.0000 Du        
   2179 ****        14.5000  20.5000  21.2500 Du        
   2180 ****        14.5000  20.5000  21.5000 Du        
   2181 ****        14.5000  20.5000  21.7500 Du        
   2182 ****        14.5000  20.5000  22.0000 Du        
   2183 ****        14.5000  20.5000  22.2500 Du        
   2184 ****        14.5000  20.5000  25.2500 Du        
   2185 ****        14.5000  20.5000  25.5000 Du        
   2186 ****        14.5000  20.5000  25.7500 Du        
   2187 ****        14.5000  20.5000  26.0000 Du        
   2188 ****        14.5000  20.5000  26.2500 Du        
   2189 ****        14.5000  20.5000  26.5000 Du        
   2190 ****        14.5000  20.5000  26.7500 Du        
   2191 ****        14.5000  20.5000  27.0000 Du        
   2192 ****        14.5000  20.5000  27.2500 Du        
   2193 ****        14.5000  20.7500  21.2500 Du        
   2194 ****        14.5000  20.7500  21.5000 Du        
   2195 ****        14.5000  20.7500  21.7500 Du        
   2196 ****        14.5000  20.7500  22.0000 Du        
   2197 ****        14.5000  20.7500  22.2500 Du        
   2198 ****        14.5000  20.7500  25.2500 Du        
   2199 ****        14.5000  20.7500  25.5000 Du        
   2200 ****        14.5000  20.7500  25.7500 Du        
   2201 ****        14.5000  20.7500  26.0000 Du        
   2202 ****        14.5000  20.7500  26.2500 Du        
   2203 ****        14.5000  20.7500  26.5000 Du        
   2204 ****        14.5000  20.7500  26.7500 Du        
   2205 ****        14.5000  20.7500  27.0000 Du        
   2206 ****        14.5000  20.7500  27.2500 Du        
   2207 ****        14.5000  21.0000  21.7500 Du        
   2208 ****        14.5000  21.0000  22.0000 Du        
   2209 ****        14.5000  21.0000  22.2500 Du        
   2210 ****        14.5000  21.0000  25.2500 Du        
   2211 ****        14.5000  21.0000  25.5000 Du        
   2212 ****        14.5000  21.0000  25.7500 Du        
   2213 ****        14.5000  21.0000  26.0000 Du        
   2214 ****        14.5000  21.0000  26.2500 Du        
   2215 ****        14.5000  21.0000  26.5000 Du        
   2216 ****        14.5000  21.0000  26.7500 Du        
   2217 ****        14.5000  21.0000  27.0000 Du        
   2218 ****        14.5000  21.2500  22.0000 Du        
   2219 ****        14.5000  21.2500  22.2500 Du        
   2220 ****        14.5000  21.2500  22.5000 Du        
   2221 ****        14.5000  21.2500  25.5000 Du        
   2222 ****        14.5000  21.2500  25.7500 Du        
   2223 ****        14.5000  21.2500  26.0000 Du        
   2224 ****        14.5000  21.2500  26.2500 Du        
   2225 ****        14.5000  21.2500  26.5000 Du        
   2226 ****        14.5000  21.2500  26.7500 Du        
   2227 ****        14.5000  21.5000  25.5000 Du        
   2228 ****        14.5000  21.5000  25.7500 Du        
   2229 ****        14.5000  21.5000  26.0000 Du        
   2230 ****        14.5000  21.5000  26.2500 Du        
   2231 ****        14.5000  21.7500  25.5000 Du        
   2232 ****        14.5000  21.7500  25.7500 Du        
   2233 ****        14.5000  21.7500  26.0000 Du        
   2234 ****        14.5000  21.7500  26.2500 Du        
   2235 ****        14.5000  22.0000  25.5000 Du        
   2236 ****        14.5000  22.0000  25.7500 Du        
   2237 ****        14.5000  22.0000  26.0000 Du        
   2238 ****        14.5000  22.2500  25.5000 Du        
   2239 ****        14.5000  22.2500  25.7500 Du        
   2240 ****        14.7500  11.0000  30.5000 Du        
   2241 ****        14.7500  11.0000  30.7500 Du        
   2242 ****        14.7500  11.0000  31.0000 Du        
   2243 ****        14.7500  11.0000  31.2500 Du        
   2244 ****        14.7500  11.2500  30.2500 Du        
   2245 ****        14.7500  11.2500  30.5000 Du        
   2246 ****        14.7500  11.2500  30.7500 Du        
   2247 ****        14.7500  11.2500  31.0000 Du        
   2248 ****        14.7500  11.5000  30.0000 Du        
   2249 ****        14.7500  11.5000  30.2500 Du        
   2250 ****        14.7500  11.5000  30.5000 Du        
   2251 ****        14.7500  11.5000  30.7500 Du        
   2252 ****        14.7500  11.5000  31.0000 Du        
   2253 ****        14.7500  11.7500  30.0000 Du        
   2254 ****        14.7500  11.7500  30.2500 Du        
   2255 ****        14.7500  11.7500  30.5000 Du        
   2256 ****        14.7500  11.7500  30.7500 Du        
   2257 ****        14.7500  11.7500  31.0000 Du        
   2258 ****        14.7500  12.0000  30.2500 Du        
   2259 ****        14.7500  12.0000  30.5000 Du        
   2260 ****        14.7500  12.0000  30.7500 Du        
   2261 ****        14.7500  13.2500  22.2500 Du        
   2262 ****        14.7500  13.2500  22.5000 Du        
   2263 ****        14.7500  13.2500  22.7500 Du        
   2264 ****        14.7500  13.2500  23.0000 Du        
   2265 ****        14.7500  13.5000  22.0000 Du        
   2266 ****        14.7500  13.5000  22.2500 Du        
   2267 ****        14.7500  13.5000  22.5000 Du        
   2268 ****        14.7500  13.5000  22.7500 Du        
   2269 ****        14.7500  13.5000  23.0000 Du        
   2270 ****        14.7500  13.5000  23.2500 Du        
   2271 ****        14.7500  13.7500  21.0000 Du        
   2272 ****        14.7500  13.7500  21.2500 Du        
   2273 ****        14.7500  13.7500  21.5000 Du        
   2274 ****        14.7500  13.7500  21.7500 Du        
   2275 ****        14.7500  13.7500  22.0000 Du        
   2276 ****        14.7500  13.7500  22.2500 Du        
   2277 ****        14.7500  13.7500  22.5000 Du        
   2278 ****        14.7500  13.7500  22.7500 Du        
   2279 ****        14.7500  13.7500  23.0000 Du        
   2280 ****        14.7500  13.7500  23.2500 Du        
   2281 ****        14.7500  13.7500  23.5000 Du        
   2282 ****        14.7500  13.7500  23.7500 Du        
   2283 ****        14.7500  14.0000  20.2500 Du        
   2284 ****        14.7500  14.0000  20.5000 Du        
   2285 ****        14.7500  14.0000  20.7500 Du        
   2286 ****        14.7500  14.0000  21.0000 Du        
   2287 ****        14.7500  14.0000  21.2500 Du        
   2288 ****        14.7500  14.0000  21.5000 Du        
   2289 ****        14.7500  14.0000  21.7500 Du        
   2290 ****        14.7500  14.0000  22.0000 Du        
   2291 ****        14.7500  14.0000  22.2500 Du        
   2292 ****        14.7500  14.0000  22.5000 Du        
   2293 ****        14.7500  14.0000  22.7500 Du        
   2294 ****        14.7500  14.0000  23.0000 Du        
   2295 ****        14.7500  14.0000  23.2500 Du        
   2296 ****        14.7500  14.0000  23.5000 Du        
   2297 ****        14.7500  14.0000  23.7500 Du        
   2298 ****        14.7500  14.0000  24.0000 Du        
   2299 ****        14.7500  14.2500  20.0000 Du        
   2300 ****        14.7500  14.2500  20.2500 Du        
   2301 ****        14.7500  14.2500  20.5000 Du        
   2302 ****        14.7500  14.2500  20.7500 Du        
   2303 ****        14.7500  14.2500  21.0000 Du        
   2304 ****        14.7500  14.2500  21.2500 Du        
   2305 ****        14.7500  14.2500  21.5000 Du        
   2306 ****        14.7500  14.2500  21.7500 Du        
   2307 ****        14.7500  14.2500  22.0000 Du        
   2308 ****        14.7500  14.2500  22.2500 Du        
   2309 ****        14.7500  14.2500  22.5000 Du        
   2310 ****        14.7500  14.2500  22.7500 Du        
   2311 ****        14.7500  14.2500  23.0000 Du        
   2312 ****        14.7500  14.2500  23.2500 Du        
   2313 ****        14.7500  14.2500  23.5000 Du        
   2314 ****        14.7500  14.2500  23.7500 Du        
   2315 ****        14.7500  14.2500  24.0000 Du        
   2316 ****        14.7500  14.2500  24.2500 Du        
   2317 ****        14.7500  14.5000  19.7500 Du        
   2318 ****        14.7500  14.5000  20.0000 Du        
   2319 ****        14.7500  14.5000  20.2500 Du        
   2320 ****        14.7500  14.5000  20.5000 Du        
   2321 ****        14.7500  14.5000  20.7500 Du        
   2322 ****        14.7500  14.5000  21.0000 Du        
   2323 ****        14.7500  14.5000  21.2500 Du        
   2324 ****        14.7500  14.5000  21.5000 Du        
   2325 ****        14.7500  14.5000  21.7500 Du        
   2326 ****        14.7500  14.5000  22.0000 Du        
   2327 ****        14.7500  14.5000  22.2500 Du        
   2328 ****        14.7500  14.5000  22.5000 Du        
   2329 ****        14.7500  14.5000  22.7500 Du        
   2330 ****        14.7500  14.5000  23.0000 Du        
   2331 ****        14.7500  14.5000  23.2500 Du        
   2332 ****        14.7500  14.5000  23.5000 Du        
   2333 ****        14.7500  14.5000  23.7500 Du        
   2334 ****        14.7500  14.5000  24.0000 Du        
   2335 ****        14.7500  14.5000  24.2500 Du        
   2336 ****        14.7500  14.5000  24.5000 Du        
   2337 ****        14.7500  14.5000  24.7500 Du        
   2338 ****        14.7500  14.7500  19.7500 Du        
   2339 ****        14.7500  14.7500  20.0000 Du        
   2340 ****        14.7500  14.7500  20.2500 Du        
   2341 ****        14.7500  14.7500  20.5000 Du        
   2342 ****        14.7500  14.7500  20.7500 Du        
   2343 ****        14.7500  14.7500  21.0000 Du        
   2344 ****        14.7500  14.7500  21.2500 Du        
   2345 ****        14.7500  14.7500  21.5000 Du        
   2346 ****        14.7500  14.7500  21.7500 Du        
   2347 ****        14.7500  14.7500  22.0000 Du        
   2348 ****        14.7500  14.7500  22.2500 Du        
   2349 ****        14.7500  14.7500  22.5000 Du        
   2350 ****        14.7500  14.7500  22.7500 Du        
   2351 ****        14.7500  14.7500  23.0000 Du        
   2352 ****        14.7500  14.7500  23.2500 Du        
   2353 ****        14.7500  14.7500  23.5000 Du        
   2354 ****        14.7500  14.7500  23.7500 Du        
   2355 ****        14.7500  14.7500  24.0000 Du        
   2356 ****        14.7500  14.7500  24.2500 Du        
   2357 ****        14.7500  14.7500  24.5000 Du        
   2358 ****        14.7500  14.7500  24.7500 Du        
   2359 ****        14.7500  14.7500  25.0000 Du        
   2360 ****        14.7500  14.7500  25.2500 Du        
   2361 ****        14.7500  14.7500  25.5000 Du        
   2362 ****        14.7500  15.0000  19.5000 Du        
   2363 ****        14.7500  15.0000  19.7500 Du        
   2364 ****        14.7500  15.0000  20.0000 Du        
   2365 ****        14.7500  15.0000  20.2500 Du        
   2366 ****        14.7500  15.0000  20.5000 Du        
   2367 ****        14.7500  15.0000  20.7500 Du        
   2368 ****        14.7500  15.0000  21.0000 Du        
   2369 ****        14.7500  15.0000  21.2500 Du        
   2370 ****        14.7500  15.0000  21.5000 Du        
   2371 ****        14.7500  15.0000  21.7500 Du        
   2372 ****        14.7500  15.0000  22.0000 Du        
   2373 ****        14.7500  15.0000  22.2500 Du        
   2374 ****        14.7500  15.0000  22.5000 Du        
   2375 ****        14.7500  15.0000  22.7500 Du        
   2376 ****        14.7500  15.0000  23.0000 Du        
   2377 ****        14.7500  15.0000  23.2500 Du        
   2378 ****        14.7500  15.0000  23.5000 Du        
   2379 ****        14.7500  15.0000  23.7500 Du        
   2380 ****        14.7500  15.0000  24.0000 Du        
   2381 ****        14.7500  15.0000  24.2500 Du        
   2382 ****        14.7500  15.0000  24.5000 Du        
   2383 ****        14.7500  15.0000  24.7500 Du        
   2384 ****        14.7500  15.0000  25.0000 Du        
   2385 ****        14.7500  15.0000  25.2500 Du        
   2386 ****        14.7500  15.0000  25.5000 Du        
   2387 ****        14.7500  15.0000  25.7500 Du        
   2388 ****        14.7500  15.2500  19.7500 Du        
   2389 ****        14.7500  15.2500  20.0000 Du        
   2390 ****        14.7500  15.2500  20.2500 Du        
   2391 ****        14.7500  15.2500  20.5000 Du        
   2392 ****        14.7500  15.2500  20.7500 Du        
   2393 ****        14.7500  15.2500  21.0000 Du        
   2394 ****        14.7500  15.2500  21.2500 Du        
   2395 ****        14.7500  15.2500  21.5000 Du        
   2396 ****        14.7500  15.2500  21.7500 Du        
   2397 ****        14.7500  15.2500  22.0000 Du        
   2398 ****        14.7500  15.2500  22.2500 Du        
   2399 ****        14.7500  15.2500  22.5000 Du        
   2400 ****        14.7500  15.2500  22.7500 Du        
   2401 ****        14.7500  15.2500  23.0000 Du        
   2402 ****        14.7500  15.2500  23.2500 Du        
   2403 ****        14.7500  15.2500  23.5000 Du        
   2404 ****        14.7500  15.2500  23.7500 Du        
   2405 ****        14.7500  15.2500  24.0000 Du        
   2406 ****        14.7500  15.2500  24.2500 Du        
   2407 ****        14.7500  15.2500  24.5000 Du        
   2408 ****        14.7500  15.2500  24.7500 Du        
   2409 ****        14.7500  15.2500  25.0000 Du        
   2410 ****        14.7500  15.2500  25.2500 Du        
   2411 ****        14.7500  15.2500  25.5000 Du        
   2412 ****        14.7500  15.2500  25.7500 Du        
   2413 ****        14.7500  15.5000  20.0000 Du        
   2414 ****        14.7500  15.5000  20.2500 Du        
   2415 ****        14.7500  15.5000  20.5000 Du        
   2416 ****        14.7500  15.5000  20.7500 Du        
   2417 ****        14.7500  15.5000  21.0000 Du        
   2418 ****        14.7500  15.5000  21.2500 Du        
   2419 ****        14.7500  15.5000  21.5000 Du        
   2420 ****        14.7500  15.5000  21.7500 Du        
   2421 ****        14.7500  15.5000  22.0000 Du        
   2422 ****        14.7500  15.5000  22.2500 Du        
   2423 ****        14.7500  15.5000  22.5000 Du        
   2424 ****        14.7500  15.5000  22.7500 Du        
   2425 ****        14.7500  15.5000  23.0000 Du        
   2426 ****        14.7500  15.5000  23.2500 Du        
   2427 ****        14.7500  15.5000  23.5000 Du        
   2428 ****        14.7500  15.5000  23.7500 Du        
   2429 ****        14.7500  15.5000  24.0000 Du        
   2430 ****        14.7500  15.5000  24.2500 Du        
   2431 ****        14.7500  15.5000  24.5000 Du        
   2432 ****        14.7500  15.5000  24.7500 Du        
   2433 ****        14.7500  15.5000  25.0000 Du        
   2434 ****        14.7500  15.5000  25.2500 Du        
   2435 ****        14.7500  15.5000  25.5000 Du        
   2436 ****        14.7500  15.5000  25.7500 Du        
   2437 ****        14.7500  15.7500  20.2500 Du        
   2438 ****        14.7500  15.7500  20.5000 Du        
   2439 ****        14.7500  15.7500  20.7500 Du        
   2440 ****        14.7500  15.7500  21.0000 Du        
   2441 ****        14.7500  15.7500  21.2500 Du        
   2442 ****        14.7500  15.7500  21.5000 Du        
   2443 ****        14.7500  15.7500  21.7500 Du        
   2444 ****        14.7500  15.7500  22.0000 Du        
   2445 ****        14.7500  15.7500  22.2500 Du        
   2446 ****        14.7500  15.7500  22.5000 Du        
   2447 ****        14.7500  15.7500  22.7500 Du        
   2448 ****        14.7500  15.7500  23.0000 Du        
   2449 ****        14.7500  15.7500  23.2500 Du        
   2450 ****        14.7500  15.7500  23.5000 Du        
   2451 ****        14.7500  15.7500  23.7500 Du        
   2452 ****        14.7500  15.7500  24.0000 Du        
   2453 ****        14.7500  15.7500  24.2500 Du        
   2454 ****        14.7500  15.7500  24.5000 Du        
   2455 ****        14.7500  15.7500  24.7500 Du        
   2456 ****        14.7500  15.7500  25.0000 Du        
   2457 ****        14.7500  15.7500  25.2500 Du        
   2458 ****        14.7500  15.7500  25.5000 Du        
   2459 ****        14.7500  16.0000  20.5000 Du        
   2460 ****        14.7500  16.0000  20.7500 Du        
   2461 ****        14.7500  16.0000  21.0000 Du        
   2462 ****        14.7500  16.0000  21.2500 Du        
   2463 ****        14.7500  16.0000  21.5000 Du        
   2464 ****        14.7500  16.0000  21.7500 Du        
   2465 ****        14.7500  16.0000  22.0000 Du        
   2466 ****        14.7500  16.0000  22.2500 Du        
   2467 ****        14.7500  16.0000  23.5000 Du        
   2468 ****        14.7500  16.0000  23.7500 Du        
   2469 ****        14.7500  16.0000  24.0000 Du        
   2470 ****        14.7500  16.0000  24.2500 Du        
   2471 ****        14.7500  16.0000  24.5000 Du        
   2472 ****        14.7500  16.0000  24.7500 Du        
   2473 ****        14.7500  16.0000  25.0000 Du        
   2474 ****        14.7500  16.0000  25.2500 Du        
   2475 ****        14.7500  16.0000  25.5000 Du        
   2476 ****        14.7500  16.2500  20.7500 Du        
   2477 ****        14.7500  16.2500  21.0000 Du        
   2478 ****        14.7500  16.2500  21.2500 Du        
   2479 ****        14.7500  16.2500  21.5000 Du        
   2480 ****        14.7500  16.2500  21.7500 Du        
   2481 ****        14.7500  16.2500  24.0000 Du        
   2482 ****        14.7500  16.2500  24.2500 Du        
   2483 ****        14.7500  16.2500  24.5000 Du        
   2484 ****        14.7500  16.2500  24.7500 Du        
   2485 ****        14.7500  16.2500  25.0000 Du        
   2486 ****        14.7500  16.2500  25.2500 Du        
   2487 ****        14.7500  16.2500  25.5000 Du        
   2488 ****        14.7500  16.5000  20.7500 Du        
   2489 ****        14.7500  16.5000  21.0000 Du        
   2490 ****        14.7500  16.5000  21.2500 Du        
   2491 ****        14.7500  16.5000  24.5000 Du        
   2492 ****        14.7500  16.5000  24.7500 Du        
   2493 ****        14.7500  16.5000  25.0000 Du        
   2494 ****        14.7500  16.5000  25.2500 Du        
   2495 ****        14.7500  16.5000  25.5000 Du        
   2496 ****        14.7500  16.7500  21.0000 Du        
   2497 ****        14.7500  16.7500  21.2500 Du        
   2498 ****        14.7500  16.7500  24.7500 Du        
   2499 ****        14.7500  16.7500  25.0000 Du        
   2500 ****        14.7500  16.7500  25.2500 Du        
   2501 ****        14.7500  16.7500  25.5000 Du        
   2502 ****        14.7500  17.0000  21.0000 Du        
   2503 ****        14.7500  17.0000  21.2500 Du        
   2504 ****        14.7500  17.0000  24.7500 Du        
   2505 ****        14.7500  17.0000  25.0000 Du        
   2506 ****        14.7500  17.0000  25.2500 Du        
   2507 ****        14.7500  17.0000  25.5000 Du        
   2508 ****        14.7500  17.2500  25.0000 Du        
   2509 ****        14.7500  17.2500  25.2500 Du        
   2510 ****        14.7500  17.2500  25.5000 Du        
   2511 ****        14.7500  17.2500  25.7500 Du        
   2512 ****        14.7500  17.5000  25.2500 Du        
   2513 ****        14.7500  17.5000  25.5000 Du        
   2514 ****        14.7500  17.5000  25.7500 Du        
   2515 ****        14.7500  17.5000  26.0000 Du        
   2516 ****        14.7500  17.7500  25.2500 Du        
   2517 ****        14.7500  17.7500  25.5000 Du        
   2518 ****        14.7500  17.7500  25.7500 Du        
   2519 ****        14.7500  17.7500  26.0000 Du        
   2520 ****        14.7500  17.7500  26.2500 Du        
   2521 ****        14.7500  18.0000  25.2500 Du        
   2522 ****        14.7500  18.0000  25.5000 Du        
   2523 ****        14.7500  18.0000  25.7500 Du        
   2524 ****        14.7500  18.0000  26.0000 Du        
   2525 ****        14.7500  18.0000  26.2500 Du        
   2526 ****        14.7500  18.0000  26.5000 Du        
   2527 ****        14.7500  18.0000  26.7500 Du        
   2528 ****        14.7500  18.2500  25.2500 Du        
   2529 ****        14.7500  18.2500  25.5000 Du        
   2530 ****        14.7500  18.2500  25.7500 Du        
   2531 ****        14.7500  18.2500  26.0000 Du        
   2532 ****        14.7500  18.2500  26.2500 Du        
   2533 ****        14.7500  18.2500  26.5000 Du        
   2534 ****        14.7500  18.2500  26.7500 Du        
   2535 ****        14.7500  18.2500  27.0000 Du        
   2536 ****        14.7500  18.2500  27.2500 Du        
   2537 ****        14.7500  18.5000  21.0000 Du        
   2538 ****        14.7500  18.5000  21.2500 Du        
   2539 ****        14.7500  18.5000  25.2500 Du        
   2540 ****        14.7500  18.5000  25.5000 Du        
   2541 ****        14.7500  18.5000  25.7500 Du        
   2542 ****        14.7500  18.5000  26.0000 Du        
   2543 ****        14.7500  18.5000  26.2500 Du        
   2544 ****        14.7500  18.5000  26.5000 Du        
   2545 ****        14.7500  18.5000  26.7500 Du        
   2546 ****        14.7500  18.5000  27.0000 Du        
   2547 ****        14.7500  18.5000  27.2500 Du        
   2548 ****        14.7500  18.5000  27.5000 Du        
   2549 ****        14.7500  18.5000  27.7500 Du        
   2550 ****        14.7500  18.7500  21.0000 Du        
   2551 ****        14.7500  18.7500  21.2500 Du        
   2552 ****        14.7500  18.7500  25.2500 Du        
   2553 ****        14.7500  18.7500  25.5000 Du        
   2554 ****        14.7500  18.7500  25.7500 Du        
   2555 ****        14.7500  18.7500  26.0000 Du        
   2556 ****        14.7500  18.7500  26.2500 Du        
   2557 ****        14.7500  18.7500  26.5000 Du        
   2558 ****        14.7500  18.7500  26.7500 Du        
   2559 ****        14.7500  18.7500  27.0000 Du        
   2560 ****        14.7500  18.7500  27.2500 Du        
   2561 ****        14.7500  18.7500  27.5000 Du        
   2562 ****        14.7500  18.7500  27.7500 Du        
   2563 ****        14.7500  18.7500  28.0000 Du        
   2564 ****        14.7500  18.7500  28.2500 Du        
   2565 ****        14.7500  18.7500  28.5000 Du        
   2566 ****        14.7500  19.0000  21.0000 Du        
   2567 ****        14.7500  19.0000  21.2500 Du        
   2568 ****        14.7500  19.0000  21.5000 Du        
   2569 ****        14.7500  19.0000  25.2500 Du        
   2570 ****        14.7500  19.0000  25.5000 Du        
   2571 ****        14.7500  19.0000  25.7500 Du        
   2572 ****        14.7500  19.0000  26.0000 Du        
   2573 ****        14.7500  19.0000  26.2500 Du        
   2574 ****        14.7500  19.0000  26.5000 Du        
   2575 ****        14.7500  19.0000  26.7500 Du        
   2576 ****        14.7500  19.0000  27.0000 Du        
   2577 ****        14.7500  19.0000  27.2500 Du        
   2578 ****        14.7500  19.0000  27.5000 Du        
   2579 ****        14.7500  19.0000  27.7500 Du        
   2580 ****        14.7500  19.0000  28.0000 Du        
   2581 ****        14.7500  19.0000  28.2500 Du        
   2582 ****        14.7500  19.0000  28.5000 Du        
   2583 ****        14.7500  19.0000  28.7500 Du        
   2584 ****        14.7500  19.0000  29.0000 Du        
   2585 ****        14.7500  19.2500  20.7500 Du        
   2586 ****        14.7500  19.2500  21.0000 Du        
   2587 ****        14.7500  19.2500  21.2500 Du        
   2588 ****        14.7500  19.2500  21.5000 Du        
   2589 ****        14.7500  19.2500  21.7500 Du        
   2590 ****        14.7500  19.2500  25.2500 Du        
   2591 ****        14.7500  19.2500  25.5000 Du        
   2592 ****        14.7500  19.2500  25.7500 Du        
   2593 ****        14.7500  19.2500  26.0000 Du        
   2594 ****        14.7500  19.2500  26.2500 Du        
   2595 ****        14.7500  19.2500  26.5000 Du        
   2596 ****        14.7500  19.2500  26.7500 Du        
   2597 ****        14.7500  19.2500  27.0000 Du        
   2598 ****        14.7500  19.2500  27.2500 Du        
   2599 ****        14.7500  19.2500  27.5000 Du        
   2600 ****        14.7500  19.2500  27.7500 Du        
   2601 ****        14.7500  19.2500  28.0000 Du        
   2602 ****        14.7500  19.2500  28.2500 Du        
   2603 ****        14.7500  19.2500  28.5000 Du        
   2604 ****        14.7500  19.2500  28.7500 Du        
   2605 ****        14.7500  19.2500  29.0000 Du        
   2606 ****        14.7500  19.5000  21.0000 Du        
   2607 ****        14.7500  19.5000  21.2500 Du        
   2608 ****        14.7500  19.5000  21.5000 Du        
   2609 ****        14.7500  19.5000  21.7500 Du        
   2610 ****        14.7500  19.5000  22.0000 Du        
   2611 ****        14.7500  19.5000  25.2500 Du        
   2612 ****        14.7500  19.5000  25.5000 Du        
   2613 ****        14.7500  19.5000  25.7500 Du        
   2614 ****        14.7500  19.5000  26.0000 Du        
   2615 ****        14.7500  19.5000  26.2500 Du        
   2616 ****        14.7500  19.5000  26.5000 Du        
   2617 ****        14.7500  19.5000  26.7500 Du        
   2618 ****        14.7500  19.5000  27.0000 Du        
   2619 ****        14.7500  19.5000  27.2500 Du        
   2620 ****        14.7500  19.5000  27.5000 Du        
   2621 ****        14.7500  19.5000  27.7500 Du        
   2622 ****        14.7500  19.5000  28.0000 Du        
   2623 ****        14.7500  19.5000  28.2500 Du        
   2624 ****        14.7500  19.5000  28.5000 Du        
   2625 ****        14.7500  19.7500  21.0000 Du        
   2626 ****        14.7500  19.7500  21.2500 Du        
   2627 ****        14.7500  19.7500  21.5000 Du        
   2628 ****        14.7500  19.7500  21.7500 Du        
   2629 ****        14.7500  19.7500  22.0000 Du        
   2630 ****        14.7500  19.7500  22.2500 Du        
   2631 ****        14.7500  19.7500  25.2500 Du        
   2632 ****        14.7500  19.7500  25.5000 Du        
   2633 ****        14.7500  19.7500  25.7500 Du        
   2634 ****        14.7500  19.7500  26.0000 Du        
   2635 ****        14.7500  19.7500  26.2500 Du        
   2636 ****        14.7500  19.7500  26.5000 Du        
   2637 ****        14.7500  19.7500  26.7500 Du        
   2638 ****        14.7500  19.7500  27.0000 Du        
   2639 ****        14.7500  19.7500  27.2500 Du        
   2640 ****        14.7500  19.7500  27.5000 Du        
   2641 ****        14.7500  19.7500  27.7500 Du        
   2642 ****        14.7500  19.7500  28.0000 Du        
   2643 ****        14.7500  19.7500  28.2500 Du        
   2644 ****        14.7500  20.0000  21.0000 Du        
   2645 ****        14.7500  20.0000  21.2500 Du        
   2646 ****        14.7500  20.0000  21.5000 Du        
   2647 ****        14.7500  20.0000  21.7500 Du        
   2648 ****        14.7500  20.0000  22.0000 Du        
   2649 ****        14.7500  20.0000  22.2500 Du        
   2650 ****        14.7500  20.0000  25.2500 Du        
   2651 ****        14.7500  20.0000  25.5000 Du        
   2652 ****        14.7500  20.0000  25.7500 Du        
   2653 ****        14.7500  20.0000  26.0000 Du        
   2654 ****        14.7500  20.0000  26.2500 Du        
   2655 ****        14.7500  20.0000  26.5000 Du        
   2656 ****        14.7500  20.0000  26.7500 Du        
   2657 ****        14.7500  20.0000  27.0000 Du        
   2658 ****        14.7500  20.0000  27.2500 Du        
   2659 ****        14.7500  20.0000  27.5000 Du        
   2660 ****        14.7500  20.0000  27.7500 Du        
   2661 ****        14.7500  20.2500  21.0000 Du        
   2662 ****        14.7500  20.2500  21.2500 Du        
   2663 ****        14.7500  20.2500  21.5000 Du        
   2664 ****        14.7500  20.2500  21.7500 Du        
   2665 ****        14.7500  20.2500  22.0000 Du        
   2666 ****        14.7500  20.2500  22.2500 Du        
   2667 ****        14.7500  20.2500  25.5000 Du        
   2668 ****        14.7500  20.2500  25.7500 Du        
   2669 ****        14.7500  20.2500  26.0000 Du        
   2670 ****        14.7500  20.2500  26.2500 Du        
   2671 ****        14.7500  20.2500  26.5000 Du        
   2672 ****        14.7500  20.2500  26.7500 Du        
   2673 ****        14.7500  20.2500  27.0000 Du        
   2674 ****        14.7500  20.2500  27.2500 Du        
   2675 ****        14.7500  20.2500  27.5000 Du        
   2676 ****        14.7500  20.5000  21.2500 Du        
   2677 ****        14.7500  20.5000  21.5000 Du        
   2678 ****        14.7500  20.5000  21.7500 Du        
   2679 ****        14.7500  20.5000  22.0000 Du        
   2680 ****        14.7500  20.5000  22.2500 Du        
   2681 ****        14.7500  20.5000  22.5000 Du        
   2682 ****        14.7500  20.5000  25.5000 Du        
   2683 ****        14.7500  20.5000  25.7500 Du        
   2684 ****        14.7500  20.5000  26.0000 Du        
   2685 ****        14.7500  20.5000  26.2500 Du        
   2686 ****        14.7500  20.5000  26.5000 Du        
   2687 ****        14.7500  20.5000  26.7500 Du        
   2688 ****        14.7500  20.5000  27.0000 Du        
   2689 ****        14.7500  20.5000  27.2500 Du        
   2690 ****        14.7500  20.7500  21.5000 Du        
   2691 ****        14.7500  20.7500  21.7500 Du        
   2692 ****        14.7500  20.7500  22.0000 Du        
   2693 ****        14.7500  20.7500  22.2500 Du        
   2694 ****        14.7500  20.7500  22.5000 Du        
   2695 ****        14.7500  20.7500  25.2500 Du        
   2696 ****        14.7500  20.7500  25.5000 Du        
   2697 ****        14.7500  20.7500  25.7500 Du        
   2698 ****        14.7500  20.7500  26.0000 Du        
   2699 ****        14.7500  20.7500  26.2500 Du        
   2700 ****        14.7500  20.7500  26.5000 Du        
   2701 ****        14.7500  20.7500  26.7500 Du        
   2702 ****        14.7500  20.7500  27.0000 Du        
   2703 ****        14.7500  21.0000  21.7500 Du        
   2704 ****        14.7500  21.0000  22.0000 Du        
   2705 ****        14.7500  21.0000  22.2500 Du        
   2706 ****        14.7500  21.0000  22.5000 Du        
   2707 ****        14.7500  21.0000  22.7500 Du        
   2708 ****        14.7500  21.0000  25.2500 Du        
   2709 ****        14.7500  21.0000  25.5000 Du        
   2710 ****        14.7500  21.0000  25.7500 Du        
   2711 ****        14.7500  21.0000  26.0000 Du        
   2712 ****        14.7500  21.0000  26.2500 Du        
   2713 ****        14.7500  21.0000  26.5000 Du        
   2714 ****        14.7500  21.0000  26.7500 Du        
   2715 ****        14.7500  21.2500  22.0000 Du        
   2716 ****        14.7500  21.2500  22.2500 Du        
   2717 ****        14.7500  21.2500  22.5000 Du        
   2718 ****        14.7500  21.2500  25.2500 Du        
   2719 ****        14.7500  21.2500  25.5000 Du        
   2720 ****        14.7500  21.2500  25.7500 Du        
   2721 ****        14.7500  21.2500  26.0000 Du        
   2722 ****        14.7500  21.2500  26.2500 Du        
   2723 ****        14.7500  21.2500  26.5000 Du        
   2724 ****        14.7500  21.5000  25.5000 Du        
   2725 ****        14.7500  21.5000  25.7500 Du        
   2726 ****        14.7500  21.5000  26.0000 Du        
   2727 ****        14.7500  21.5000  26.2500 Du        
   2728 ****        14.7500  21.7500  25.5000 Du        
   2729 ****        14.7500  21.7500  25.7500 Du        
   2730 ****        14.7500  21.7500  26.0000 Du        
   2731 ****        14.7500  22.0000  25.7500 Du        
   2732 ****        15.0000  10.7500  31.0000 Du        
   2733 ****        15.0000  10.7500  31.2500 Du        
   2734 ****        15.0000  10.7500  31.5000 Du        
   2735 ****        15.0000  11.0000  30.5000 Du        
   2736 ****        15.0000  11.0000  30.7500 Du        
   2737 ****        15.0000  11.0000  31.0000 Du        
   2738 ****        15.0000  11.0000  31.2500 Du        
   2739 ****        15.0000  11.2500  30.0000 Du        
   2740 ****        15.0000  11.2500  30.2500 Du        
   2741 ****        15.0000  11.2500  30.5000 Du        
   2742 ****        15.0000  11.2500  30.7500 Du        
   2743 ****        15.0000  11.2500  31.0000 Du        
   2744 ****        15.0000  11.2500  31.2500 Du        
   2745 ****        15.0000  11.5000  29.7500 Du        
   2746 ****        15.0000  11.5000  30.0000 Du        
   2747 ****        15.0000  11.5000  30.2500 Du        
   2748 ****        15.0000  11.5000  30.5000 Du        
   2749 ****        15.0000  11.5000  30.7500 Du        
   2750 ****        15.0000  11.5000  31.0000 Du        
   2751 ****        15.0000  11.7500  29.7500 Du        
   2752 ****        15.0000  11.7500  30.0000 Du        
   2753 ****        15.0000  11.7500  30.2500 Du        
   2754 ****        15.0000  11.7500  30.5000 Du        
   2755 ****        15.0000  11.7500  30.7500 Du        
   2756 ****        15.0000  11.7500  31.0000 Du        
   2757 ****        15.0000  12.0000  30.0000 Du        
   2758 ****        15.0000  12.0000  30.2500 Du        
   2759 ****        15.0000  12.0000  30.5000 Du        
   2760 ****        15.0000  12.0000  30.7500 Du        
   2761 ****        15.0000  12.2500  30.0000 Du        
   2762 ****        15.0000  12.2500  30.2500 Du        
   2763 ****        15.0000  12.2500  30.5000 Du        
   2764 ****        15.0000  13.0000  22.2500 Du        
   2765 ****        15.0000  13.0000  22.5000 Du        
   2766 ****        15.0000  13.0000  22.7500 Du        
   2767 ****        15.0000  13.2500  21.7500 Du        
   2768 ****        15.0000  13.2500  22.0000 Du        
   2769 ****        15.0000  13.2500  22.2500 Du        
   2770 ****        15.0000  13.2500  22.5000 Du        
   2771 ****        15.0000  13.2500  22.7500 Du        
   2772 ****        15.0000  13.2500  23.0000 Du        
   2773 ****        15.0000  13.2500  23.2500 Du        
   2774 ****        15.0000  13.5000  21.2500 Du        
   2775 ****        15.0000  13.5000  21.5000 Du        
   2776 ****        15.0000  13.5000  21.7500 Du        
   2777 ****        15.0000  13.5000  22.0000 Du        
   2778 ****        15.0000  13.5000  22.2500 Du        
   2779 ****        15.0000  13.5000  22.5000 Du        
   2780 ****        15.0000  13.5000  22.7500 Du        
   2781 ****        15.0000  13.5000  23.0000 Du        
   2782 ****        15.0000  13.5000  23.2500 Du        
   2783 ****        15.0000  13.5000  23.5000 Du        
   2784 ****        15.0000  13.7500  20.2500 Du        
   2785 ****        15.0000  13.7500  20.5000 Du        
   2786 ****        15.0000  13.7500  20.7500 Du        
   2787 ****        15.0000  13.7500  21.0000 Du        
   2788 ****        15.0000  13.7500  21.2500 Du        
   2789 ****        15.0000  13.7500  21.5000 Du        
   2790 ****        15.0000  13.7500  21.7500 Du        
   2791 ****        15.0000  13.7500  22.0000 Du        
   2792 ****        15.0000  13.7500  22.2500 Du        
   2793 ****        15.0000  13.7500  22.5000 Du        
   2794 ****        15.0000  13.7500  22.7500 Du        
   2795 ****        15.0000  13.7500  23.0000 Du        
   2796 ****        15.0000  13.7500  23.2500 Du        
   2797 ****        15.0000  13.7500  23.5000 Du        
   2798 ****        15.0000  13.7500  23.7500 Du        
   2799 ****        15.0000  14.0000  20.0000 Du        
   2800 ****        15.0000  14.0000  20.2500 Du        
   2801 ****        15.0000  14.0000  20.5000 Du        
   2802 ****        15.0000  14.0000  20.7500 Du        
   2803 ****        15.0000  14.0000  21.0000 Du        
   2804 ****        15.0000  14.0000  21.2500 Du        
   2805 ****        15.0000  14.0000  21.5000 Du        
   2806 ****        15.0000  14.0000  21.7500 Du        
   2807 ****        15.0000  14.0000  22.0000 Du        
   2808 ****        15.0000  14.0000  22.2500 Du        
   2809 ****        15.0000  14.0000  22.5000 Du        
   2810 ****        15.0000  14.0000  22.7500 Du        
   2811 ****        15.0000  14.0000  23.0000 Du        
   2812 ****        15.0000  14.0000  23.2500 Du        
   2813 ****        15.0000  14.0000  23.5000 Du        
   2814 ****        15.0000  14.0000  23.7500 Du        
   2815 ****        15.0000  14.0000  24.0000 Du        
   2816 ****        15.0000  14.0000  24.2500 Du        
   2817 ****        15.0000  14.2500  19.7500 Du        
   2818 ****        15.0000  14.2500  20.0000 Du        
   2819 ****        15.0000  14.2500  20.2500 Du        
   2820 ****        15.0000  14.2500  20.5000 Du        
   2821 ****        15.0000  14.2500  20.7500 Du        
   2822 ****        15.0000  14.2500  21.0000 Du        
   2823 ****        15.0000  14.2500  21.2500 Du        
   2824 ****        15.0000  14.2500  21.5000 Du        
   2825 ****        15.0000  14.2500  21.7500 Du        
   2826 ****        15.0000  14.2500  22.0000 Du        
   2827 ****        15.0000  14.2500  22.2500 Du        
   2828 ****        15.0000  14.2500  22.5000 Du        
   2829 ****        15.0000  14.2500  22.7500 Du        
   2830 ****        15.0000  14.2500  23.0000 Du        
   2831 ****        15.0000  14.2500  23.2500 Du        
   2832 ****        15.0000  14.2500  23.5000 Du        
   2833 ****        15.0000  14.2500  23.7500 Du        
   2834 ****        15.0000  14.2500  24.0000 Du        
   2835 ****        15.0000  14.2500  24.2500 Du        
   2836 ****        15.0000  14.2500  24.5000 Du        
   2837 ****        15.0000  14.5000  19.7500 Du        
   2838 ****        15.0000  14.5000  20.0000 Du        
   2839 ****        15.0000  14.5000  20.2500 Du        
   2840 ****        15.0000  14.5000  20.5000 Du        
   2841 ****        15.0000  14.5000  20.7500 Du        
   2842 ****        15.0000  14.5000  21.0000 Du        
   2843 ****        15.0000  14.5000  21.2500 Du        
   2844 ****        15.0000  14.5000  21.5000 Du        
   2845 ****        15.0000  14.5000  21.7500 Du        
   2846 ****        15.0000  14.5000  22.0000 Du        
   2847 ****        15.0000  14.5000  22.2500 Du        
   2848 ****        15.0000  14.5000  22.5000 Du        
   2849 ****        15.0000  14.5000  22.7500 Du        
   2850 ****        15.0000  14.5000  23.0000 Du        
   2851 ****        15.0000  14.5000  23.2500 Du        
   2852 ****        15.0000  14.5000  23.5000 Du        
   2853 ****        15.0000  14.5000  23.7500 Du        
   2854 ****        15.0000  14.5000  24.0000 Du        
   2855 ****        15.0000  14.5000  24.2500 Du        
   2856 ****        15.0000  14.5000  24.5000 Du        
   2857 ****        15.0000  14.5000  24.7500 Du        
   2858 ****        15.0000  14.5000  25.0000 Du        
   2859 ****        15.0000  14.5000  25.2500 Du        
   2860 ****        15.0000  14.7500  19.7500 Du        
   2861 ****        15.0000  14.7500  20.0000 Du        
   2862 ****        15.0000  14.7500  20.2500 Du        
   2863 ****        15.0000  14.7500  20.5000 Du        
   2864 ****        15.0000  14.7500  20.7500 Du        
   2865 ****        15.0000  14.7500  21.0000 Du        
   2866 ****        15.0000  14.7500  21.2500 Du        
   2867 ****        15.0000  14.7500  21.5000 Du        
   2868 ****        15.0000  14.7500  21.7500 Du        
   2869 ****        15.0000  14.7500  22.0000 Du        
   2870 ****        15.0000  14.7500  22.2500 Du        
   2871 ****        15.0000  14.7500  22.5000 Du        
   2872 ****        15.0000  14.7500  22.7500 Du        
   2873 ****        15.0000  14.7500  23.0000 Du        
   2874 ****        15.0000  14.7500  23.2500 Du        
   2875 ****        15.0000  14.7500  23.5000 Du        
   2876 ****        15.0000  14.7500  23.7500 Du        
   2877 ****        15.0000  14.7500  24.0000 Du        
   2878 ****        15.0000  14.7500  24.2500 Du        
   2879 ****        15.0000  14.7500  24.5000 Du        
   2880 ****        15.0000  14.7500  24.7500 Du        
   2881 ****        15.0000  14.7500  25.0000 Du        
   2882 ****        15.0000  14.7500  25.2500 Du        
   2883 ****        15.0000  14.7500  25.5000 Du        
   2884 ****        15.0000  14.7500  25.7500 Du        
   2885 ****        15.0000  14.7500  26.0000 Du        
   2886 ****        15.0000  15.0000  19.5000 Du        
   2887 ****        15.0000  15.0000  19.7500 Du        
   2888 ****        15.0000  15.0000  20.0000 Du        
   2889 ****        15.0000  15.0000  20.2500 Du        
   2890 ****        15.0000  15.0000  20.5000 Du        
   2891 ****        15.0000  15.0000  20.7500 Du        
   2892 ****        15.0000  15.0000  21.0000 Du        
   2893 ****        15.0000  15.0000  21.2500 Du        
   2894 ****        15.0000  15.0000  21.5000 Du        
   2895 ****        15.0000  15.0000  21.7500 Du        
   2896 ****        15.0000  15.0000  22.0000 Du        
   2897 ****        15.0000  15.0000  22.2500 Du        
   2898 ****        15.0000  15.0000  22.5000 Du        
   2899 ****        15.0000  15.0000  22.7500 Du        
   2900 ****        15.0000  15.0000  23.0000 Du        
   2901 ****        15.0000  15.0000  23.2500 Du        
   2902 ****        15.0000  15.0000  23.5000 Du        
   2903 ****        15.0000  15.0000  23.7500 Du        
   2904 ****        15.0000  15.0000  24.0000 Du        
   2905 ****        15.0000  15.0000  24.2500 Du        
   2906 ****        15.0000  15.0000  24.5000 Du        
   2907 ****        15.0000  15.0000  24.7500 Du        
   2908 ****        15.0000  15.0000  25.0000 Du        
   2909 ****        15.0000  15.0000  25.2500 Du        
   2910 ****        15.0000  15.0000  25.5000 Du        
   2911 ****        15.0000  15.0000  25.7500 Du        
   2912 ****        15.0000  15.0000  26.0000 Du        
   2913 ****        15.0000  15.0000  26.2500 Du        
   2914 ****        15.0000  15.2500  19.7500 Du        
   2915 ****        15.0000  15.2500  20.0000 Du        
   2916 ****        15.0000  15.2500  20.2500 Du        
   2917 ****        15.0000  15.2500  20.5000 Du        
   2918 ****        15.0000  15.2500  20.7500 Du        
   2919 ****        15.0000  15.2500  21.0000 Du        
   2920 ****        15.0000  15.2500  21.2500 Du        
   2921 ****        15.0000  15.2500  21.5000 Du        
   2922 ****        15.0000  15.2500  21.7500 Du        
   2923 ****        15.0000  15.2500  22.0000 Du        
   2924 ****        15.0000  15.2500  22.2500 Du        
   2925 ****        15.0000  15.2500  22.5000 Du        
   2926 ****        15.0000  15.2500  22.7500 Du        
   2927 ****        15.0000  15.2500  23.0000 Du        
   2928 ****        15.0000  15.2500  23.2500 Du        
   2929 ****        15.0000  15.2500  23.5000 Du        
   2930 ****        15.0000  15.2500  23.7500 Du        
   2931 ****        15.0000  15.2500  24.0000 Du        
   2932 ****        15.0000  15.2500  24.2500 Du        
   2933 ****        15.0000  15.2500  24.5000 Du        
   2934 ****        15.0000  15.2500  24.7500 Du        
   2935 ****        15.0000  15.2500  25.0000 Du        
   2936 ****        15.0000  15.2500  25.2500 Du        
   2937 ****        15.0000  15.2500  25.5000 Du        
   2938 ****        15.0000  15.2500  25.7500 Du        
   2939 ****        15.0000  15.2500  26.0000 Du        
   2940 ****        15.0000  15.5000  19.7500 Du        
   2941 ****        15.0000  15.5000  20.0000 Du        
   2942 ****        15.0000  15.5000  20.2500 Du        
   2943 ****        15.0000  15.5000  20.5000 Du        
   2944 ****        15.0000  15.5000  20.7500 Du        
   2945 ****        15.0000  15.5000  21.0000 Du        
   2946 ****        15.0000  15.5000  21.2500 Du        
   2947 ****        15.0000  15.5000  21.5000 Du        
   2948 ****        15.0000  15.5000  21.7500 Du        
   2949 ****        15.0000  15.5000  22.0000 Du        
   2950 ****        15.0000  15.5000  22.2500 Du        
   2951 ****        15.0000  15.5000  22.5000 Du        
   2952 ****        15.0000  15.5000  22.7500 Du        
   2953 ****        15.0000  15.5000  23.0000 Du        
   2954 ****        15.0000  15.5000  23.2500 Du        
   2955 ****        15.0000  15.5000  23.5000 Du        
   2956 ****        15.0000  15.5000  23.7500 Du        
   2957 ****        15.0000  15.5000  24.0000 Du        
   2958 ****        15.0000  15.5000  24.2500 Du        
   2959 ****        15.0000  15.5000  24.5000 Du        
   2960 ****        15.0000  15.5000  24.7500 Du        
   2961 ****        15.0000  15.5000  25.0000 Du        
   2962 ****        15.0000  15.5000  25.2500 Du        
   2963 ****        15.0000  15.5000  25.5000 Du        
   2964 ****        15.0000  15.5000  25.7500 Du        
   2965 ****        15.0000  15.5000  26.0000 Du        
   2966 ****        15.0000  15.7500  20.0000 Du        
   2967 ****        15.0000  15.7500  20.2500 Du        
   2968 ****        15.0000  15.7500  20.5000 Du        
   2969 ****        15.0000  15.7500  20.7500 Du        
   2970 ****        15.0000  15.7500  21.0000 Du        
   2971 ****        15.0000  15.7500  21.2500 Du        
   2972 ****        15.0000  15.7500  21.5000 Du        
   2973 ****        15.0000  15.7500  21.7500 Du        
   2974 ****        15.0000  15.7500  22.0000 Du        
   2975 ****        15.0000  15.7500  22.2500 Du        
   2976 ****        15.0000  15.7500  22.5000 Du        
   2977 ****        15.0000  15.7500  22.7500 Du        
   2978 ****        15.0000  15.7500  23.0000 Du        
   2979 ****        15.0000  15.7500  23.2500 Du        
   2980 ****        15.0000  15.7500  23.5000 Du        
   2981 ****        15.0000  15.7500  23.7500 Du        
   2982 ****        15.0000  15.7500  24.0000 Du        
   2983 ****        15.0000  15.7500  24.2500 Du        
   2984 ****        15.0000  15.7500  24.5000 Du        
   2985 ****        15.0000  15.7500  24.7500 Du        
   2986 ****        15.0000  15.7500  25.0000 Du        
   2987 ****        15.0000  15.7500  25.2500 Du        
   2988 ****        15.0000  15.7500  25.5000 Du        
   2989 ****        15.0000  15.7500  25.7500 Du        
   2990 ****        15.0000  15.7500  26.0000 Du        
   2991 ****        15.0000  16.0000  20.2500 Du        
   2992 ****        15.0000  16.0000  20.5000 Du        
   2993 ****        15.0000  16.0000  20.7500 Du        
   2994 ****        15.0000  16.0000  21.0000 Du        
   2995 ****        15.0000  16.0000  21.2500 Du        
   2996 ****        15.0000  16.0000  21.5000 Du        
   2997 ****        15.0000  16.0000  21.7500 Du        
   2998 ****        15.0000  16.0000  22.0000 Du        
   2999 ****        15.0000  16.0000  22.2500 Du        
   3000 ****        15.0000  16.0000  22.5000 Du        
   3001 ****        15.0000  16.0000  22.7500 Du        
   3002 ****        15.0000  16.0000  23.0000 Du        
   3003 ****        15.0000  16.0000  23.2500 Du        
   3004 ****        15.0000  16.0000  23.5000 Du        
   3005 ****        15.0000  16.0000  23.7500 Du        
   3006 ****        15.0000  16.0000  24.0000 Du        
   3007 ****        15.0000  16.0000  24.2500 Du        
   3008 ****        15.0000  16.0000  24.5000 Du        
   3009 ****        15.0000  16.0000  24.7500 Du        
   3010 ****        15.0000  16.0000  25.0000 Du        
   3011 ****        15.0000  16.0000  25.2500 Du        
   3012 ****        15.0000  16.0000  25.5000 Du        
   3013 ****        15.0000  16.0000  25.7500 Du        
   3014 ****        15.0000  16.2500  20.2500 Du        
   3015 ****        15.0000  16.2500  20.5000 Du        
   3016 ****        15.0000  16.2500  20.7500 Du        
   3017 ****        15.0000  16.2500  21.0000 Du        
   3018 ****        15.0000  16.2500  21.2500 Du        
   3019 ****        15.0000  16.2500  21.5000 Du        
   3020 ****        15.0000  16.2500  21.7500 Du        
   3021 ****        15.0000  16.2500  22.0000 Du        
   3022 ****        15.0000  16.2500  22.2500 Du        
   3023 ****        15.0000  16.2500  22.5000 Du        
   3024 ****        15.0000  16.2500  23.2500 Du        
   3025 ****        15.0000  16.2500  23.5000 Du        
   3026 ****        15.0000  16.2500  23.7500 Du        
   3027 ****        15.0000  16.2500  24.0000 Du        
   3028 ****        15.0000  16.2500  24.2500 Du        
   3029 ****        15.0000  16.2500  24.5000 Du        
   3030 ****        15.0000  16.2500  24.7500 Du        
   3031 ****        15.0000  16.2500  25.0000 Du        
   3032 ****        15.0000  16.2500  25.2500 Du        
   3033 ****        15.0000  16.2500  25.5000 Du        
   3034 ****        15.0000  16.2500  25.7500 Du        
   3035 ****        15.0000  16.5000  20.5000 Du        
   3036 ****        15.0000  16.5000  20.7500 Du        
   3037 ****        15.0000  16.5000  21.0000 Du        
   3038 ****        15.0000  16.5000  21.2500 Du        
   3039 ****        15.0000  16.5000  21.5000 Du        
   3040 ****        15.0000  16.5000  21.7500 Du        
   3041 ****        15.0000  16.5000  22.0000 Du        
   3042 ****        15.0000  16.5000  24.2500 Du        
   3043 ****        15.0000  16.5000  24.5000 Du        
   3044 ****        15.0000  16.5000  24.7500 Du        
   3045 ****        15.0000  16.5000  25.0000 Du        
   3046 ****        15.0000  16.5000  25.2500 Du        
   3047 ****        15.0000  16.5000  25.5000 Du        
   3048 ****        15.0000  16.5000  25.7500 Du        
   3049 ****        15.0000  16.7500  20.7500 Du        
   3050 ****        15.0000  16.7500  21.0000 Du        
   3051 ****        15.0000  16.7500  21.2500 Du        
   3052 ****        15.0000  16.7500  21.5000 Du        
   3053 ****        15.0000  16.7500  21.7500 Du        
   3054 ****        15.0000  16.7500  24.5000 Du        
   3055 ****        15.0000  16.7500  24.7500 Du        
   3056 ****        15.0000  16.7500  25.0000 Du        
   3057 ****        15.0000  16.7500  25.2500 Du        
   3058 ****        15.0000  16.7500  25.5000 Du        
   3059 ****        15.0000  16.7500  25.7500 Du        
   3060 ****        15.0000  17.0000  20.7500 Du        
   3061 ****        15.0000  17.0000  21.0000 Du        
   3062 ****        15.0000  17.0000  21.2500 Du        
   3063 ****        15.0000  17.0000  21.5000 Du        
   3064 ****        15.0000  17.0000  24.7500 Du        
   3065 ****        15.0000  17.0000  25.0000 Du        
   3066 ****        15.0000  17.0000  25.2500 Du        
   3067 ****        15.0000  17.0000  25.5000 Du        
   3068 ****        15.0000  17.0000  25.7500 Du        
   3069 ****        15.0000  17.2500  20.7500 Du        
   3070 ****        15.0000  17.2500  21.0000 Du        
   3071 ****        15.0000  17.2500  21.2500 Du        
   3072 ****        15.0000  17.2500  21.5000 Du        
   3073 ****        15.0000  17.2500  24.7500 Du        
   3074 ****        15.0000  17.2500  25.0000 Du        
   3075 ****        15.0000  17.2500  25.2500 Du        
   3076 ****        15.0000  17.2500  25.5000 Du        
   3077 ****        15.0000  17.2500  25.7500 Du        
   3078 ****        15.0000  17.2500  26.0000 Du        
   3079 ****        15.0000  17.5000  21.0000 Du        
   3080 ****        15.0000  17.5000  21.2500 Du        
   3081 ****        15.0000  17.5000  25.2500 Du        
   3082 ****        15.0000  17.5000  25.5000 Du        
   3083 ****        15.0000  17.5000  25.7500 Du        
   3084 ****        15.0000  17.5000  26.0000 Du        
   3085 ****        15.0000  17.5000  26.2500 Du        
   3086 ****        15.0000  17.7500  21.0000 Du        
   3087 ****        15.0000  17.7500  21.2500 Du        
   3088 ****        15.0000  17.7500  25.0000 Du        
   3089 ****        15.0000  17.7500  25.2500 Du        
   3090 ****        15.0000  17.7500  25.5000 Du        
   3091 ****        15.0000  17.7500  25.7500 Du        
   3092 ****        15.0000  17.7500  26.0000 Du        
   3093 ****        15.0000  17.7500  26.2500 Du        
   3094 ****        15.0000  17.7500  26.5000 Du        
   3095 ****        15.0000  17.7500  26.7500 Du        
   3096 ****        15.0000  18.0000  21.0000 Du        
   3097 ****        15.0000  18.0000  21.2500 Du        
   3098 ****        15.0000  18.0000  25.0000 Du        
   3099 ****        15.0000  18.0000  25.2500 Du        
   3100 ****        15.0000  18.0000  25.5000 Du        
   3101 ****        15.0000  18.0000  25.7500 Du        
   3102 ****        15.0000  18.0000  26.0000 Du        
   3103 ****        15.0000  18.0000  26.2500 Du        
   3104 ****        15.0000  18.0000  26.5000 Du        
   3105 ****        15.0000  18.0000  26.7500 Du        
   3106 ****        15.0000  18.0000  27.0000 Du        
   3107 ****        15.0000  18.0000  27.2500 Du        
   3108 ****        15.0000  18.2500  21.0000 Du        
   3109 ****        15.0000  18.2500  21.2500 Du        
   3110 ****        15.0000  18.2500  25.0000 Du        
   3111 ****        15.0000  18.2500  25.2500 Du        
   3112 ****        15.0000  18.2500  25.5000 Du        
   3113 ****        15.0000  18.2500  25.7500 Du        
   3114 ****        15.0000  18.2500  26.0000 Du        
   3115 ****        15.0000  18.2500  26.2500 Du        
   3116 ****        15.0000  18.2500  26.5000 Du        
   3117 ****        15.0000  18.2500  26.7500 Du        
   3118 ****        15.0000  18.2500  27.0000 Du        
   3119 ****        15.0000  18.2500  27.2500 Du        
   3120 ****        15.0000  18.2500  27.5000 Du        
   3121 ****        15.0000  18.2500  27.7500 Du        
   3122 ****        15.0000  18.2500  28.0000 Du        
   3123 ****        15.0000  18.5000  20.7500 Du        
   3124 ****        15.0000  18.5000  21.0000 Du        
   3125 ****        15.0000  18.5000  21.2500 Du        
   3126 ****        15.0000  18.5000  21.5000 Du        
   3127 ****        15.0000  18.5000  25.0000 Du        
   3128 ****        15.0000  18.5000  25.2500 Du        
   3129 ****        15.0000  18.5000  25.5000 Du        
   3130 ****        15.0000  18.5000  25.7500 Du        
   3131 ****        15.0000  18.5000  26.0000 Du        
   3132 ****        15.0000  18.5000  26.2500 Du        
   3133 ****        15.0000  18.5000  26.5000 Du        
   3134 ****        15.0000  18.5000  26.7500 Du        
   3135 ****        15.0000  18.5000  27.0000 Du        
   3136 ****        15.0000  18.5000  27.2500 Du        
   3137 ****        15.0000  18.5000  27.5000 Du        
   3138 ****        15.0000  18.5000  27.7500 Du        
   3139 ****        15.0000  18.5000  28.0000 Du        
   3140 ****        15.0000  18.5000  28.2500 Du        
   3141 ****        15.0000  18.7500  20.7500 Du        
   3142 ****        15.0000  18.7500  21.0000 Du        
   3143 ****        15.0000  18.7500  21.2500 Du        
   3144 ****        15.0000  18.7500  21.5000 Du        
   3145 ****        15.0000  18.7500  21.7500 Du        
   3146 ****        15.0000  18.7500  25.0000 Du        
   3147 ****        15.0000  18.7500  25.2500 Du        
   3148 ****        15.0000  18.7500  25.5000 Du        
   3149 ****        15.0000  18.7500  25.7500 Du        
   3150 ****        15.0000  18.7500  26.0000 Du        
   3151 ****        15.0000  18.7500  26.2500 Du        
   3152 ****        15.0000  18.7500  26.5000 Du        
   3153 ****        15.0000  18.7500  26.7500 Du        
   3154 ****        15.0000  18.7500  27.0000 Du        
   3155 ****        15.0000  18.7500  27.2500 Du        
   3156 ****        15.0000  18.7500  27.5000 Du        
   3157 ****        15.0000  18.7500  27.7500 Du        
   3158 ****        15.0000  18.7500  28.0000 Du        
   3159 ****        15.0000  18.7500  28.2500 Du        
   3160 ****        15.0000  18.7500  28.5000 Du        
   3161 ****        15.0000  18.7500  28.7500 Du        
   3162 ****        15.0000  19.0000  20.7500 Du        
   3163 ****        15.0000  19.0000  21.0000 Du        
   3164 ****        15.0000  19.0000  21.2500 Du        
   3165 ****        15.0000  19.0000  21.5000 Du        
   3166 ****        15.0000  19.0000  21.7500 Du        
   3167 ****        15.0000  19.0000  22.0000 Du        
   3168 ****        15.0000  19.0000  25.2500 Du        
   3169 ****        15.0000  19.0000  25.5000 Du        
   3170 ****        15.0000  19.0000  25.7500 Du        
   3171 ****        15.0000  19.0000  26.0000 Du        
   3172 ****        15.0000  19.0000  26.2500 Du        
   3173 ****        15.0000  19.0000  26.5000 Du        
   3174 ****        15.0000  19.0000  26.7500 Du        
   3175 ****        15.0000  19.0000  27.0000 Du        
   3176 ****        15.0000  19.0000  27.2500 Du        
   3177 ****        15.0000  19.0000  27.5000 Du        
   3178 ****        15.0000  19.0000  27.7500 Du        
   3179 ****        15.0000  19.0000  28.0000 Du        
   3180 ****        15.0000  19.0000  28.2500 Du        
   3181 ****        15.0000  19.0000  28.5000 Du        
   3182 ****        15.0000  19.0000  28.7500 Du        
   3183 ****        15.0000  19.0000  29.0000 Du        
   3184 ****        15.0000  19.2500  21.0000 Du        
   3185 ****        15.0000  19.2500  21.2500 Du        
   3186 ****        15.0000  19.2500  21.5000 Du        
   3187 ****        15.0000  19.2500  21.7500 Du        
   3188 ****        15.0000  19.2500  22.0000 Du        
   3189 ****        15.0000  19.2500  22.2500 Du        
   3190 ****        15.0000  19.2500  25.0000 Du        
   3191 ****        15.0000  19.2500  25.2500 Du        
   3192 ****        15.0000  19.2500  25.5000 Du        
   3193 ****        15.0000  19.2500  25.7500 Du        
   3194 ****        15.0000  19.2500  26.0000 Du        
   3195 ****        15.0000  19.2500  26.2500 Du        
   3196 ****        15.0000  19.2500  26.5000 Du        
   3197 ****        15.0000  19.2500  26.7500 Du        
   3198 ****        15.0000  19.2500  27.0000 Du        
   3199 ****        15.0000  19.2500  27.2500 Du        
   3200 ****        15.0000  19.2500  27.5000 Du        
   3201 ****        15.0000  19.2500  27.7500 Du        
   3202 ****        15.0000  19.2500  28.0000 Du        
   3203 ****        15.0000  19.2500  28.2500 Du        
   3204 ****        15.0000  19.2500  28.5000 Du        
   3205 ****        15.0000  19.2500  28.7500 Du        
   3206 ****        15.0000  19.5000  21.0000 Du        
   3207 ****        15.0000  19.5000  21.2500 Du        
   3208 ****        15.0000  19.5000  21.5000 Du        
   3209 ****        15.0000  19.5000  21.7500 Du        
   3210 ****        15.0000  19.5000  22.0000 Du        
   3211 ****        15.0000  19.5000  22.2500 Du        
   3212 ****        15.0000  19.5000  25.5000 Du        
   3213 ****        15.0000  19.5000  25.7500 Du        
   3214 ****        15.0000  19.5000  26.0000 Du        
   3215 ****        15.0000  19.5000  26.2500 Du        
   3216 ****        15.0000  19.5000  26.5000 Du        
   3217 ****        15.0000  19.5000  26.7500 Du        
   3218 ****        15.0000  19.5000  27.0000 Du        
   3219 ****        15.0000  19.5000  27.2500 Du        
   3220 ****        15.0000  19.5000  27.5000 Du        
   3221 ****        15.0000  19.5000  27.7500 Du        
   3222 ****        15.0000  19.5000  28.0000 Du        
   3223 ****        15.0000  19.5000  28.2500 Du        
   3224 ****        15.0000  19.7500  21.0000 Du        
   3225 ****        15.0000  19.7500  21.2500 Du        
   3226 ****        15.0000  19.7500  21.5000 Du        
   3227 ****        15.0000  19.7500  21.7500 Du        
   3228 ****        15.0000  19.7500  22.0000 Du        
   3229 ****        15.0000  19.7500  22.2500 Du        
   3230 ****        15.0000  19.7500  25.2500 Du        
   3231 ****        15.0000  19.7500  25.5000 Du        
   3232 ****        15.0000  19.7500  25.7500 Du        
   3233 ****        15.0000  19.7500  26.0000 Du        
   3234 ****        15.0000  19.7500  26.2500 Du        
   3235 ****        15.0000  19.7500  26.5000 Du        
   3236 ****        15.0000  19.7500  26.7500 Du        
   3237 ****        15.0000  19.7500  27.0000 Du        
   3238 ****        15.0000  19.7500  27.2500 Du        
   3239 ****        15.0000  19.7500  27.5000 Du        
   3240 ****        15.0000  19.7500  27.7500 Du        
   3241 ****        15.0000  19.7500  28.0000 Du        
   3242 ****        15.0000  20.0000  21.2500 Du        
   3243 ****        15.0000  20.0000  21.5000 Du        
   3244 ****        15.0000  20.0000  21.7500 Du        
   3245 ****        15.0000  20.0000  22.0000 Du        
   3246 ****        15.0000  20.0000  22.2500 Du        
   3247 ****        15.0000  20.0000  22.5000 Du        
   3248 ****        15.0000  20.0000  25.5000 Du        
   3249 ****        15.0000  20.0000  25.7500 Du        
   3250 ****        15.0000  20.0000  26.0000 Du        
   3251 ****        15.0000  20.0000  26.2500 Du        
   3252 ****        15.0000  20.0000  26.5000 Du        
   3253 ****        15.0000  20.0000  26.7500 Du        
   3254 ****        15.0000  20.0000  27.0000 Du        
   3255 ****        15.0000  20.0000  27.2500 Du        
   3256 ****        15.0000  20.0000  27.5000 Du        
   3257 ****        15.0000  20.2500  21.2500 Du        
   3258 ****        15.0000  20.2500  21.5000 Du        
   3259 ****        15.0000  20.2500  21.7500 Du        
   3260 ****        15.0000  20.2500  22.0000 Du        
   3261 ****        15.0000  20.2500  22.2500 Du        
   3262 ****        15.0000  20.2500  22.5000 Du        
   3263 ****        15.0000  20.2500  25.5000 Du        
   3264 ****        15.0000  20.2500  25.7500 Du        
   3265 ****        15.0000  20.2500  26.0000 Du        
   3266 ****        15.0000  20.2500  26.2500 Du        
   3267 ****        15.0000  20.2500  26.5000 Du        
   3268 ****        15.0000  20.2500  26.7500 Du        
   3269 ****        15.0000  20.2500  27.0000 Du        
   3270 ****        15.0000  20.2500  27.2500 Du        
   3271 ****        15.0000  20.5000  21.2500 Du        
   3272 ****        15.0000  20.5000  21.5000 Du        
   3273 ****        15.0000  20.5000  21.7500 Du        
   3274 ****        15.0000  20.5000  22.0000 Du        
   3275 ****        15.0000  20.5000  22.2500 Du        
   3276 ****        15.0000  20.5000  22.5000 Du        
   3277 ****        15.0000  20.5000  25.5000 Du        
   3278 ****        15.0000  20.5000  25.7500 Du        
   3279 ****        15.0000  20.5000  26.0000 Du        
   3280 ****        15.0000  20.5000  26.2500 Du        
   3281 ****        15.0000  20.5000  26.5000 Du        
   3282 ****        15.0000  20.5000  26.7500 Du        
   3283 ****        15.0000  20.5000  27.0000 Du        
   3284 ****        15.0000  20.7500  21.5000 Du        
   3285 ****        15.0000  20.7500  21.7500 Du        
   3286 ****        15.0000  20.7500  22.0000 Du        
   3287 ****        15.0000  20.7500  22.2500 Du        
   3288 ****        15.0000  20.7500  22.5000 Du        
   3289 ****        15.0000  20.7500  22.7500 Du        
   3290 ****        15.0000  20.7500  25.5000 Du        
   3291 ****        15.0000  20.7500  25.7500 Du        
   3292 ****        15.0000  20.7500  26.0000 Du        
   3293 ****        15.0000  20.7500  26.2500 Du        
   3294 ****        15.0000  20.7500  26.5000 Du        
   3295 ****        15.0000  20.7500  26.7500 Du        
   3296 ****        15.0000  21.0000  21.7500 Du        
   3297 ****        15.0000  21.0000  22.0000 Du        
   3298 ****        15.0000  21.0000  22.2500 Du        
   3299 ****        15.0000  21.0000  22.5000 Du        
   3300 ****        15.0000  21.0000  22.7500 Du        
   3301 ****        15.0000  21.0000  25.5000 Du        
   3302 ****        15.0000  21.0000  25.7500 Du        
   3303 ****        15.0000  21.0000  26.0000 Du        
   3304 ****        15.0000  21.0000  26.2500 Du        
   3305 ****        15.0000  21.0000  26.5000 Du        
   3306 ****        15.0000  21.2500  22.0000 Du        
   3307 ****        15.0000  21.2500  22.2500 Du        
   3308 ****        15.0000  21.2500  22.7500 Du        
   3309 ****        15.0000  21.2500  25.5000 Du        
   3310 ****        15.0000  21.2500  25.7500 Du        
   3311 ****        15.0000  21.2500  26.0000 Du        
   3312 ****        15.0000  21.2500  26.2500 Du        
   3313 ****        15.0000  21.5000  26.0000 Du        
   3314 ****        15.2500  10.2500  31.7500 Du        
   3315 ****        15.2500  10.5000  31.5000 Du        
   3316 ****        15.2500  10.5000  31.7500 Du        
   3317 ****        15.2500  10.7500  31.0000 Du        
   3318 ****        15.2500  10.7500  31.2500 Du        
   3319 ****        15.2500  10.7500  31.5000 Du        
   3320 ****        15.2500  11.0000  30.5000 Du        
   3321 ****        15.2500  11.0000  30.7500 Du        
   3322 ****        15.2500  11.0000  31.0000 Du        
   3323 ****        15.2500  11.0000  31.2500 Du        
   3324 ****        15.2500  11.0000  31.5000 Du        
   3325 ****        15.2500  11.2500  30.0000 Du        
   3326 ****        15.2500  11.2500  30.2500 Du        
   3327 ****        15.2500  11.2500  30.5000 Du        
   3328 ****        15.2500  11.2500  30.7500 Du        
   3329 ****        15.2500  11.2500  31.0000 Du        
   3330 ****        15.2500  11.2500  31.2500 Du        
   3331 ****        15.2500  11.5000  29.5000 Du        
   3332 ****        15.2500  11.5000  29.7500 Du        
   3333 ****        15.2500  11.5000  30.0000 Du        
   3334 ****        15.2500  11.5000  30.2500 Du        
   3335 ****        15.2500  11.5000  30.5000 Du        
   3336 ****        15.2500  11.5000  30.7500 Du        
   3337 ****        15.2500  11.5000  31.0000 Du        
   3338 ****        15.2500  11.7500  29.5000 Du        
   3339 ****        15.2500  11.7500  29.7500 Du        
   3340 ****        15.2500  11.7500  30.0000 Du        
   3341 ****        15.2500  11.7500  30.2500 Du        
   3342 ****        15.2500  11.7500  30.5000 Du        
   3343 ****        15.2500  11.7500  30.7500 Du        
   3344 ****        15.2500  11.7500  31.0000 Du        
   3345 ****        15.2500  12.0000  29.7500 Du        
   3346 ****        15.2500  12.0000  30.0000 Du        
   3347 ****        15.2500  12.0000  30.2500 Du        
   3348 ****        15.2500  12.0000  30.5000 Du        
   3349 ****        15.2500  12.0000  30.7500 Du        
   3350 ****        15.2500  12.2500  29.7500 Du        
   3351 ****        15.2500  12.2500  30.0000 Du        
   3352 ****        15.2500  12.2500  30.2500 Du        
   3353 ****        15.2500  12.2500  30.5000 Du        
   3354 ****        15.2500  13.0000  22.0000 Du        
   3355 ****        15.2500  13.0000  22.2500 Du        
   3356 ****        15.2500  13.0000  22.5000 Du        
   3357 ****        15.2500  13.2500  21.2500 Du        
   3358 ****        15.2500  13.2500  21.5000 Du        
   3359 ****        15.2500  13.2500  21.7500 Du        
   3360 ****        15.2500  13.2500  22.0000 Du        
   3361 ****        15.2500  13.2500  22.2500 Du        
   3362 ****        15.2500  13.2500  22.5000 Du        
   3363 ****        15.2500  13.2500  22.7500 Du        
   3364 ****        15.2500  13.2500  23.0000 Du        
   3365 ****        15.2500  13.2500  23.2500 Du        
   3366 ****        15.2500  13.5000  20.5000 Du        
   3367 ****        15.2500  13.5000  20.7500 Du        
   3368 ****        15.2500  13.5000  21.0000 Du        
   3369 ****        15.2500  13.5000  21.2500 Du        
   3370 ****        15.2500  13.5000  21.5000 Du        
   3371 ****        15.2500  13.5000  21.7500 Du        
   3372 ****        15.2500  13.5000  22.0000 Du        
   3373 ****        15.2500  13.5000  22.2500 Du        
   3374 ****        15.2500  13.5000  22.5000 Du        
   3375 ****        15.2500  13.5000  22.7500 Du        
   3376 ****        15.2500  13.5000  23.0000 Du        
   3377 ****        15.2500  13.5000  23.2500 Du        
   3378 ****        15.2500  13.5000  23.5000 Du        
   3379 ****        15.2500  13.7500  20.2500 Du        
   3380 ****        15.2500  13.7500  20.5000 Du        
   3381 ****        15.2500  13.7500  20.7500 Du        
   3382 ****        15.2500  13.7500  21.0000 Du        
   3383 ****        15.2500  13.7500  21.2500 Du        
   3384 ****        15.2500  13.7500  21.5000 Du        
   3385 ****        15.2500  13.7500  21.7500 Du        
   3386 ****        15.2500  13.7500  22.0000 Du        
   3387 ****        15.2500  13.7500  22.2500 Du        
   3388 ****        15.2500  13.7500  22.5000 Du        
   3389 ****        15.2500  13.7500  22.7500 Du        
   3390 ****        15.2500  13.7500  23.0000 Du        
   3391 ****        15.2500  13.7500  23.2500 Du        
   3392 ****        15.2500  13.7500  23.5000 Du        
   3393 ****        15.2500  13.7500  23.7500 Du        
   3394 ****        15.2500  13.7500  24.0000 Du        
   3395 ****        15.2500  14.0000  20.0000 Du        
   3396 ****        15.2500  14.0000  20.2500 Du        
   3397 ****        15.2500  14.0000  20.5000 Du        
   3398 ****        15.2500  14.0000  20.7500 Du        
   3399 ****        15.2500  14.0000  21.0000 Du        
   3400 ****        15.2500  14.0000  21.2500 Du        
   3401 ****        15.2500  14.0000  21.5000 Du        
   3402 ****        15.2500  14.0000  21.7500 Du        
   3403 ****        15.2500  14.0000  22.0000 Du        
   3404 ****        15.2500  14.0000  22.2500 Du        
   3405 ****        15.2500  14.0000  22.5000 Du        
   3406 ****        15.2500  14.0000  22.7500 Du        
   3407 ****        15.2500  14.0000  23.0000 Du        
   3408 ****        15.2500  14.0000  23.2500 Du        
   3409 ****        15.2500  14.0000  23.5000 Du        
   3410 ****        15.2500  14.0000  23.7500 Du        
   3411 ****        15.2500  14.0000  24.0000 Du        
   3412 ****        15.2500  14.0000  24.2500 Du        
   3413 ****        15.2500  14.2500  19.7500 Du        
   3414 ****        15.2500  14.2500  20.0000 Du        
   3415 ****        15.2500  14.2500  20.2500 Du        
   3416 ****        15.2500  14.2500  20.5000 Du        
   3417 ****        15.2500  14.2500  20.7500 Du        
   3418 ****        15.2500  14.2500  21.0000 Du        
   3419 ****        15.2500  14.2500  21.2500 Du        
   3420 ****        15.2500  14.2500  21.5000 Du        
   3421 ****        15.2500  14.2500  21.7500 Du        
   3422 ****        15.2500  14.2500  22.0000 Du        
   3423 ****        15.2500  14.2500  22.2500 Du        
   3424 ****        15.2500  14.2500  22.5000 Du        
   3425 ****        15.2500  14.2500  22.7500 Du        
   3426 ****        15.2500  14.2500  23.0000 Du        
   3427 ****        15.2500  14.2500  23.2500 Du        
   3428 ****        15.2500  14.2500  23.5000 Du        
   3429 ****        15.2500  14.2500  23.7500 Du        
   3430 ****        15.2500  14.2500  24.0000 Du        
   3431 ****        15.2500  14.2500  24.2500 Du        
   3432 ****        15.2500  14.2500  24.5000 Du        
   3433 ****        15.2500  14.2500  24.7500 Du        
   3434 ****        15.2500  14.5000  19.7500 Du        
   3435 ****        15.2500  14.5000  20.0000 Du        
   3436 ****        15.2500  14.5000  20.2500 Du        
   3437 ****        15.2500  14.5000  20.5000 Du        
   3438 ****        15.2500  14.5000  20.7500 Du        
   3439 ****        15.2500  14.5000  21.0000 Du        
   3440 ****        15.2500  14.5000  21.2500 Du        
   3441 ****        15.2500  14.5000  21.5000 Du        
   3442 ****        15.2500  14.5000  21.7500 Du        
   3443 ****        15.2500  14.5000  22.0000 Du        
   3444 ****        15.2500  14.5000  22.2500 Du        
   3445 ****        15.2500  14.5000  22.5000 Du        
   3446 ****        15.2500  14.5000  22.7500 Du        
   3447 ****        15.2500  14.5000  23.0000 Du        
   3448 ****        15.2500  14.5000  23.2500 Du        
   3449 ****        15.2500  14.5000  23.5000 Du        
   3450 ****        15.2500  14.5000  23.7500 Du        
   3451 ****        15.2500  14.5000  24.0000 Du        
   3452 ****        15.2500  14.5000  24.2500 Du        
   3453 ****        15.2500  14.5000  24.5000 Du        
   3454 ****        15.2500  14.5000  24.7500 Du        
   3455 ****        15.2500  14.5000  25.0000 Du        
   3456 ****        15.2500  14.5000  25.2500 Du        
   3457 ****        15.2500  14.5000  25.5000 Du        
   3458 ****        15.2500  14.5000  25.7500 Du        
   3459 ****        15.2500  14.5000  26.0000 Du        
   3460 ****        15.2500  14.7500  19.7500 Du        
   3461 ****        15.2500  14.7500  20.0000 Du        
   3462 ****        15.2500  14.7500  20.2500 Du        
   3463 ****        15.2500  14.7500  20.5000 Du        
   3464 ****        15.2500  14.7500  20.7500 Du        
   3465 ****        15.2500  14.7500  21.0000 Du        
   3466 ****        15.2500  14.7500  21.2500 Du        
   3467 ****        15.2500  14.7500  21.5000 Du        
   3468 ****        15.2500  14.7500  21.7500 Du        
   3469 ****        15.2500  14.7500  22.0000 Du        
   3470 ****        15.2500  14.7500  22.2500 Du        
   3471 ****        15.2500  14.7500  22.5000 Du        
   3472 ****        15.2500  14.7500  22.7500 Du        
   3473 ****        15.2500  14.7500  23.0000 Du        
   3474 ****        15.2500  14.7500  23.2500 Du        
   3475 ****        15.2500  14.7500  23.5000 Du        
   3476 ****        15.2500  14.7500  23.7500 Du        
   3477 ****        15.2500  14.7500  24.0000 Du        
   3478 ****        15.2500  14.7500  24.2500 Du        
   3479 ****        15.2500  14.7500  24.5000 Du        
   3480 ****        15.2500  14.7500  24.7500 Du        
   3481 ****        15.2500  14.7500  25.0000 Du        
   3482 ****        15.2500  14.7500  25.2500 Du        
   3483 ****        15.2500  14.7500  25.5000 Du        
   3484 ****        15.2500  14.7500  25.7500 Du        
   3485 ****        15.2500  14.7500  26.0000 Du        
   3486 ****        15.2500  14.7500  26.2500 Du        
   3487 ****        15.2500  14.7500  26.5000 Du        
   3488 ****        15.2500  15.0000  19.5000 Du        
   3489 ****        15.2500  15.0000  19.7500 Du        
   3490 ****        15.2500  15.0000  20.0000 Du        
   3491 ****        15.2500  15.0000  20.2500 Du        
   3492 ****        15.2500  15.0000  20.5000 Du        
   3493 ****        15.2500  15.0000  20.7500 Du        
   3494 ****        15.2500  15.0000  21.0000 Du        
   3495 ****        15.2500  15.0000  21.2500 Du        
   3496 ****        15.2500  15.0000  21.5000 Du        
   3497 ****        15.2500  15.0000  21.7500 Du        
   3498 ****        15.2500  15.0000  22.0000 Du        
   3499 ****        15.2500  15.0000  22.2500 Du        
   3500 ****        15.2500  15.0000  22.5000 Du        
   3501 ****        15.2500  15.0000  22.7500 Du        
   3502 ****        15.2500  15.0000  23.0000 Du        
   3503 ****        15.2500  15.0000  23.2500 Du        
   3504 ****        15.2500  15.0000  23.5000 Du        
   3505 ****        15.2500  15.0000  23.7500 Du        
   3506 ****        15.2500  15.0000  24.0000 Du        
   3507 ****        15.2500  15.0000  24.2500 Du        
   3508 ****        15.2500  15.0000  24.5000 Du        
   3509 ****        15.2500  15.0000  24.7500 Du        
   3510 ****        15.2500  15.0000  25.0000 Du        
   3511 ****        15.2500  15.0000  25.2500 Du        
   3512 ****        15.2500  15.0000  25.5000 Du        
   3513 ****        15.2500  15.0000  25.7500 Du        
   3514 ****        15.2500  15.0000  26.0000 Du        
   3515 ****        15.2500  15.0000  26.2500 Du        
   3516 ****        15.2500  15.0000  26.5000 Du        
   3517 ****        15.2500  15.2500  19.5000 Du        
   3518 ****        15.2500  15.2500  19.7500 Du        
   3519 ****        15.2500  15.2500  20.0000 Du        
   3520 ****        15.2500  15.2500  20.2500 Du        
   3521 ****        15.2500  15.2500  20.5000 Du        
   3522 ****        15.2500  15.2500  20.7500 Du        
   3523 ****        15.2500  15.2500  21.0000 Du        
   3524 ****        15.2500  15.2500  21.2500 Du        
   3525 ****        15.2500  15.2500  21.5000 Du        
   3526 ****        15.2500  15.2500  21.7500 Du        
   3527 ****        15.2500  15.2500  22.0000 Du        
   3528 ****        15.2500  15.2500  22.2500 Du        
   3529 ****        15.2500  15.2500  22.5000 Du        
   3530 ****        15.2500  15.2500  22.7500 Du        
   3531 ****        15.2500  15.2500  23.0000 Du        
   3532 ****        15.2500  15.2500  23.2500 Du        
   3533 ****        15.2500  15.2500  23.5000 Du        
   3534 ****        15.2500  15.2500  23.7500 Du        
   3535 ****        15.2500  15.2500  24.0000 Du        
   3536 ****        15.2500  15.2500  24.2500 Du        
   3537 ****        15.2500  15.2500  24.5000 Du        
   3538 ****        15.2500  15.2500  24.7500 Du        
   3539 ****        15.2500  15.2500  25.0000 Du        
   3540 ****        15.2500  15.2500  25.2500 Du        
   3541 ****        15.2500  15.2500  25.5000 Du        
   3542 ****        15.2500  15.2500  25.7500 Du        
   3543 ****        15.2500  15.2500  26.0000 Du        
   3544 ****        15.2500  15.2500  26.2500 Du        
   3545 ****        15.2500  15.5000  19.7500 Du        
   3546 ****        15.2500  15.5000  20.0000 Du        
   3547 ****        15.2500  15.5000  20.2500 Du        
   3548 ****        15.2500  15.5000  20.5000 Du        
   3549 ****        15.2500  15.5000  20.7500 Du        
   3550 ****        15.2500  15.5000  21.0000 Du        
   3551 ****        15.2500  15.5000  21.2500 Du        
   3552 ****        15.2500  15.5000  21.5000 Du        
   3553 ****        15.2500  15.5000  21.7500 Du        
   3554 ****        15.2500  15.5000  22.0000 Du        
   3555 ****        15.2500  15.5000  22.2500 Du        
   3556 ****        15.2500  15.5000  22.5000 Du        
   3557 ****        15.2500  15.5000  22.7500 Du        
   3558 ****        15.2500  15.5000  23.0000 Du        
   3559 ****        15.2500  15.5000  23.2500 Du        
   3560 ****        15.2500  15.5000  23.5000 Du        
   3561 ****        15.2500  15.5000  23.7500 Du        
   3562 ****        15.2500  15.5000  24.0000 Du        
   3563 ****        15.2500  15.5000  24.2500 Du        
   3564 ****        15.2500  15.5000  24.5000 Du        
   3565 ****        15.2500  15.5000  24.7500 Du        
   3566 ****        15.2500  15.5000  25.0000 Du        
   3567 ****        15.2500  15.5000  25.2500 Du        
   3568 ****        15.2500  15.5000  25.5000 Du        
   3569 ****        15.2500  15.5000  25.7500 Du        
   3570 ****        15.2500  15.5000  26.0000 Du        
   3571 ****        15.2500  15.5000  26.2500 Du        
   3572 ****        15.2500  15.7500  19.7500 Du        
   3573 ****        15.2500  15.7500  20.0000 Du        
   3574 ****        15.2500  15.7500  20.2500 Du        
   3575 ****        15.2500  15.7500  20.5000 Du        
   3576 ****        15.2500  15.7500  20.7500 Du        
   3577 ****        15.2500  15.7500  21.0000 Du        
   3578 ****        15.2500  15.7500  21.2500 Du        
   3579 ****        15.2500  15.7500  21.5000 Du        
   3580 ****        15.2500  15.7500  21.7500 Du        
   3581 ****        15.2500  15.7500  22.0000 Du        
   3582 ****        15.2500  15.7500  22.2500 Du        
   3583 ****        15.2500  15.7500  22.5000 Du        
   3584 ****        15.2500  15.7500  22.7500 Du        
   3585 ****        15.2500  15.7500  23.0000 Du        
   3586 ****        15.2500  15.7500  23.2500 Du        
   3587 ****        15.2500  15.7500  23.5000 Du        
   3588 ****        15.2500  15.7500  23.7500 Du        
   3589 ****        15.2500  15.7500  24.0000 Du        
   3590 ****        15.2500  15.7500  24.2500 Du        
   3591 ****        15.2500  15.7500  24.5000 Du        
   3592 ****        15.2500  15.7500  24.7500 Du        
   3593 ****        15.2500  15.7500  25.0000 Du        
   3594 ****        15.2500  15.7500  25.2500 Du        
   3595 ****        15.2500  15.7500  25.5000 Du        
   3596 ****        15.2500  15.7500  25.7500 Du        
   3597 ****        15.2500  15.7500  26.0000 Du        
   3598 ****        15.2500  15.7500  26.2500 Du        
   3599 ****        15.2500  16.0000  19.7500 Du        
   3600 ****        15.2500  16.0000  20.0000 Du        
   3601 ****        15.2500  16.0000  20.2500 Du        
   3602 ****        15.2500  16.0000  20.5000 Du        
   3603 ****        15.2500  16.0000  20.7500 Du        
   3604 ****        15.2500  16.0000  21.0000 Du        
   3605 ****        15.2500  16.0000  21.2500 Du        
   3606 ****        15.2500  16.0000  21.5000 Du        
   3607 ****        15.2500  16.0000  21.7500 Du        
   3608 ****        15.2500  16.0000  22.0000 Du        
   3609 ****        15.2500  16.0000  22.2500 Du        
   3610 ****        15.2500  16.0000  22.5000 Du        
   3611 ****        15.2500  16.0000  22.7500 Du        
   3612 ****        15.2500  16.0000  23.0000 Du        
   3613 ****        15.2500  16.0000  23.2500 Du        
   3614 ****        15.2500  16.0000  23.5000 Du        
   3615 ****        15.2500  16.0000  23.7500 Du        
   3616 ****        15.2500  16.0000  24.0000 Du        
   3617 ****        15.2500  16.0000  24.2500 Du        
   3618 ****        15.2500  16.0000  24.5000 Du        
   3619 ****        15.2500  16.0000  24.7500 Du        
   3620 ****        15.2500  16.0000  25.0000 Du        
   3621 ****        15.2500  16.0000  25.2500 Du        
   3622 ****        15.2500  16.0000  25.5000 Du        
   3623 ****        15.2500  16.0000  25.7500 Du        
   3624 ****        15.2500  16.0000  26.0000 Du        
   3625 ****        15.2500  16.2500  20.0000 Du        
   3626 ****        15.2500  16.2500  20.2500 Du        
   3627 ****        15.2500  16.2500  20.5000 Du        
   3628 ****        15.2500  16.2500  20.7500 Du        
   3629 ****        15.2500  16.2500  21.0000 Du        
   3630 ****        15.2500  16.2500  21.2500 Du        
   3631 ****        15.2500  16.2500  21.5000 Du        
   3632 ****        15.2500  16.2500  21.7500 Du        
   3633 ****        15.2500  16.2500  22.0000 Du        
   3634 ****        15.2500  16.2500  22.2500 Du        
   3635 ****        15.2500  16.2500  22.5000 Du        
   3636 ****        15.2500  16.2500  22.7500 Du        
   3637 ****        15.2500  16.2500  23.0000 Du        
   3638 ****        15.2500  16.2500  23.2500 Du        
   3639 ****        15.2500  16.2500  23.5000 Du        
   3640 ****        15.2500  16.2500  23.7500 Du        
   3641 ****        15.2500  16.2500  24.0000 Du        
   3642 ****        15.2500  16.2500  24.2500 Du        
   3643 ****        15.2500  16.2500  24.5000 Du        
   3644 ****        15.2500  16.2500  24.7500 Du        
   3645 ****        15.2500  16.2500  25.0000 Du        
   3646 ****        15.2500  16.2500  25.2500 Du        
   3647 ****        15.2500  16.2500  25.5000 Du        
   3648 ****        15.2500  16.2500  25.7500 Du        
   3649 ****        15.2500  16.2500  26.0000 Du        
   3650 ****        15.2500  16.5000  20.2500 Du        
   3651 ****        15.2500  16.5000  20.5000 Du        
   3652 ****        15.2500  16.5000  20.7500 Du        
   3653 ****        15.2500  16.5000  21.0000 Du        
   3654 ****        15.2500  16.5000  21.2500 Du        
   3655 ****        15.2500  16.5000  21.5000 Du        
   3656 ****        15.2500  16.5000  21.7500 Du        
   3657 ****        15.2500  16.5000  22.0000 Du        
   3658 ****        15.2500  16.5000  22.2500 Du        
   3659 ****        15.2500  16.5000  24.0000 Du        
   3660 ****        15.2500  16.5000  24.2500 Du        
   3661 ****        15.2500  16.5000  24.5000 Du        
   3662 ****        15.2500  16.5000  24.7500 Du        
   3663 ****        15.2500  16.5000  25.0000 Du        
   3664 ****        15.2500  16.5000  25.2500 Du        
   3665 ****        15.2500  16.5000  25.5000 Du        
   3666 ****        15.2500  16.5000  25.7500 Du        
   3667 ****        15.2500  16.7500  20.5000 Du        
   3668 ****        15.2500  16.7500  20.7500 Du        
   3669 ****        15.2500  16.7500  21.0000 Du        
   3670 ****        15.2500  16.7500  21.2500 Du        
   3671 ****        15.2500  16.7500  21.5000 Du        
   3672 ****        15.2500  16.7500  21.7500 Du        
   3673 ****        15.2500  16.7500  22.0000 Du        
   3674 ****        15.2500  16.7500  22.2500 Du        
   3675 ****        15.2500  16.7500  25.0000 Du        
   3676 ****        15.2500  16.7500  25.5000 Du        
   3677 ****        15.2500  16.7500  25.7500 Du        
   3678 ****        15.2500  16.7500  26.0000 Du        
   3679 ****        15.2500  17.0000  20.5000 Du        
   3680 ****        15.2500  17.0000  20.7500 Du        
   3681 ****        15.2500  17.0000  21.0000 Du        
   3682 ****        15.2500  17.0000  21.2500 Du        
   3683 ****        15.2500  17.0000  21.5000 Du        
   3684 ****        15.2500  17.0000  21.7500 Du        
   3685 ****        15.2500  17.0000  22.0000 Du        
   3686 ****        15.2500  17.0000  25.0000 Du        
   3687 ****        15.2500  17.0000  25.5000 Du        
   3688 ****        15.2500  17.0000  25.7500 Du        
   3689 ****        15.2500  17.0000  26.0000 Du        
   3690 ****        15.2500  17.0000  26.2500 Du        
   3691 ****        15.2500  17.2500  20.5000 Du        
   3692 ****        15.2500  17.2500  20.7500 Du        
   3693 ****        15.2500  17.2500  21.0000 Du        
   3694 ****        15.2500  17.2500  21.2500 Du        
   3695 ****        15.2500  17.2500  21.5000 Du        
   3696 ****        15.2500  17.2500  21.7500 Du        
   3697 ****        15.2500  17.2500  22.0000 Du        
   3698 ****        15.2500  17.2500  25.5000 Du        
   3699 ****        15.2500  17.2500  25.7500 Du        
   3700 ****        15.2500  17.2500  26.0000 Du        
   3701 ****        15.2500  17.2500  26.2500 Du        
   3702 ****        15.2500  17.2500  26.5000 Du        
   3703 ****        15.2500  17.5000  20.7500 Du        
   3704 ****        15.2500  17.5000  21.0000 Du        
   3705 ****        15.2500  17.5000  21.2500 Du        
   3706 ****        15.2500  17.5000  21.5000 Du        
   3707 ****        15.2500  17.5000  21.7500 Du        
   3708 ****        15.2500  17.5000  25.7500 Du        
   3709 ****        15.2500  17.5000  26.0000 Du        
   3710 ****        15.2500  17.5000  26.2500 Du        
   3711 ****        15.2500  17.5000  26.5000 Du        
   3712 ****        15.2500  17.5000  26.7500 Du        
   3713 ****        15.2500  17.5000  27.0000 Du        
   3714 ****        15.2500  17.7500  20.7500 Du        
   3715 ****        15.2500  17.7500  21.0000 Du        
   3716 ****        15.2500  17.7500  21.2500 Du        
   3717 ****        15.2500  17.7500  21.5000 Du        
   3718 ****        15.2500  17.7500  21.7500 Du        
   3719 ****        15.2500  17.7500  25.5000 Du        
   3720 ****        15.2500  17.7500  25.7500 Du        
   3721 ****        15.2500  17.7500  26.0000 Du        
   3722 ****        15.2500  17.7500  26.2500 Du        
   3723 ****        15.2500  17.7500  26.5000 Du        
   3724 ****        15.2500  17.7500  26.7500 Du        
   3725 ****        15.2500  17.7500  27.0000 Du        
   3726 ****        15.2500  17.7500  27.2500 Du        
   3727 ****        15.2500  17.7500  27.5000 Du        
   3728 ****        15.2500  18.0000  20.7500 Du        
   3729 ****        15.2500  18.0000  21.0000 Du        
   3730 ****        15.2500  18.0000  21.2500 Du        
   3731 ****        15.2500  18.0000  21.5000 Du        
   3732 ****        15.2500  18.0000  21.7500 Du        
   3733 ****        15.2500  18.0000  25.5000 Du        
   3734 ****        15.2500  18.0000  25.7500 Du        
   3735 ****        15.2500  18.0000  26.0000 Du        
   3736 ****        15.2500  18.0000  26.2500 Du        
   3737 ****        15.2500  18.0000  26.5000 Du        
   3738 ****        15.2500  18.0000  26.7500 Du        
   3739 ****        15.2500  18.0000  27.0000 Du        
   3740 ****        15.2500  18.0000  27.2500 Du        
   3741 ****        15.2500  18.0000  27.5000 Du        
   3742 ****        15.2500  18.0000  27.7500 Du        
   3743 ****        15.2500  18.0000  28.0000 Du        
   3744 ****        15.2500  18.2500  20.7500 Du        
   3745 ****        15.2500  18.2500  21.0000 Du        
   3746 ****        15.2500  18.2500  21.2500 Du        
   3747 ****        15.2500  18.2500  21.5000 Du        
   3748 ****        15.2500  18.2500  21.7500 Du        
   3749 ****        15.2500  18.2500  22.0000 Du        
   3750 ****        15.2500  18.2500  25.5000 Du        
   3751 ****        15.2500  18.2500  25.7500 Du        
   3752 ****        15.2500  18.2500  26.0000 Du        
   3753 ****        15.2500  18.2500  26.2500 Du        
   3754 ****        15.2500  18.2500  26.5000 Du        
   3755 ****        15.2500  18.2500  26.7500 Du        
   3756 ****        15.2500  18.2500  27.0000 Du        
   3757 ****        15.2500  18.2500  27.2500 Du        
   3758 ****        15.2500  18.2500  27.5000 Du        
   3759 ****        15.2500  18.2500  27.7500 Du        
   3760 ****        15.2500  18.2500  28.0000 Du        
   3761 ****        15.2500  18.2500  28.2500 Du        
   3762 ****        15.2500  18.5000  21.0000 Du        
   3763 ****        15.2500  18.5000  21.2500 Du        
   3764 ****        15.2500  18.5000  21.5000 Du        
   3765 ****        15.2500  18.5000  21.7500 Du        
   3766 ****        15.2500  18.5000  22.0000 Du        
   3767 ****        15.2500  18.5000  25.5000 Du        
   3768 ****        15.2500  18.5000  25.7500 Du        
   3769 ****        15.2500  18.5000  26.0000 Du        
   3770 ****        15.2500  18.5000  26.2500 Du        
   3771 ****        15.2500  18.5000  26.5000 Du        
   3772 ****        15.2500  18.5000  26.7500 Du        
   3773 ****        15.2500  18.5000  27.0000 Du        
   3774 ****        15.2500  18.5000  27.2500 Du        
   3775 ****        15.2500  18.5000  27.5000 Du        
   3776 ****        15.2500  18.5000  27.7500 Du        
   3777 ****        15.2500  18.5000  28.0000 Du        
   3778 ****        15.2500  18.5000  28.2500 Du        
   3779 ****        15.2500  18.5000  28.5000 Du        
   3780 ****        15.2500  18.7500  21.0000 Du        
   3781 ****        15.2500  18.7500  21.2500 Du        
   3782 ****        15.2500  18.7500  21.5000 Du        
   3783 ****        15.2500  18.7500  21.7500 Du        
   3784 ****        15.2500  18.7500  22.0000 Du        
   3785 ****        15.2500  18.7500  22.2500 Du        
   3786 ****        15.2500  18.7500  25.5000 Du        
   3787 ****        15.2500  18.7500  25.7500 Du        
   3788 ****        15.2500  18.7500  26.0000 Du        
   3789 ****        15.2500  18.7500  26.2500 Du        
   3790 ****        15.2500  18.7500  26.5000 Du        
   3791 ****        15.2500  18.7500  26.7500 Du        
   3792 ****        15.2500  18.7500  27.0000 Du        
   3793 ****        15.2500  18.7500  27.2500 Du        
   3794 ****        15.2500  18.7500  27.5000 Du        
   3795 ****        15.2500  18.7500  27.7500 Du        
   3796 ****        15.2500  18.7500  28.0000 Du        
   3797 ****        15.2500  18.7500  28.2500 Du        
   3798 ****        15.2500  18.7500  28.5000 Du        
   3799 ****        15.2500  18.7500  28.7500 Du        
   3800 ****        15.2500  19.0000  21.0000 Du        
   3801 ****        15.2500  19.0000  21.2500 Du        
   3802 ****        15.2500  19.0000  21.5000 Du        
   3803 ****        15.2500  19.0000  21.7500 Du        
   3804 ****        15.2500  19.0000  22.0000 Du        
   3805 ****        15.2500  19.0000  22.2500 Du        
   3806 ****        15.2500  19.0000  25.2500 Du        
   3807 ****        15.2500  19.0000  25.5000 Du        
   3808 ****        15.2500  19.0000  25.7500 Du        
   3809 ****        15.2500  19.0000  26.0000 Du        
   3810 ****        15.2500  19.0000  26.2500 Du        
   3811 ****        15.2500  19.0000  26.5000 Du        
   3812 ****        15.2500  19.0000  26.7500 Du        
   3813 ****        15.2500  19.0000  27.0000 Du        
   3814 ****        15.2500  19.0000  27.2500 Du        
   3815 ****        15.2500  19.0000  27.5000 Du        
   3816 ****        15.2500  19.0000  27.7500 Du        
   3817 ****        15.2500  19.0000  28.0000 Du        
   3818 ****        15.2500  19.0000  28.2500 Du        
   3819 ****        15.2500  19.0000  28.5000 Du        
   3820 ****        15.2500  19.0000  28.7500 Du        
   3821 ****        15.2500  19.0000  29.0000 Du        
   3822 ****        15.2500  19.2500  21.0000 Du        
   3823 ****        15.2500  19.2500  21.2500 Du        
   3824 ****        15.2500  19.2500  21.5000 Du        
   3825 ****        15.2500  19.2500  21.7500 Du        
   3826 ****        15.2500  19.2500  22.0000 Du        
   3827 ****        15.2500  19.2500  22.2500 Du        
   3828 ****        15.2500  19.2500  22.5000 Du        
   3829 ****        15.2500  19.2500  25.5000 Du        
   3830 ****        15.2500  19.2500  25.7500 Du        
   3831 ****        15.2500  19.2500  26.0000 Du        
   3832 ****        15.2500  19.2500  26.2500 Du        
   3833 ****        15.2500  19.2500  26.5000 Du        
   3834 ****        15.2500  19.2500  26.7500 Du        
   3835 ****        15.2500  19.2500  27.0000 Du        
   3836 ****        15.2500  19.2500  27.2500 Du        
   3837 ****        15.2500  19.2500  27.5000 Du        
   3838 ****        15.2500  19.2500  27.7500 Du        
   3839 ****        15.2500  19.2500  28.0000 Du        
   3840 ****        15.2500  19.2500  28.2500 Du        
   3841 ****        15.2500  19.2500  28.5000 Du        
   3842 ****        15.2500  19.5000  21.2500 Du        
   3843 ****        15.2500  19.5000  21.5000 Du        
   3844 ****        15.2500  19.5000  21.7500 Du        
   3845 ****        15.2500  19.5000  22.0000 Du        
   3846 ****        15.2500  19.5000  22.2500 Du        
   3847 ****        15.2500  19.5000  22.5000 Du        
   3848 ****        15.2500  19.5000  25.5000 Du        
   3849 ****        15.2500  19.5000  25.7500 Du        
   3850 ****        15.2500  19.5000  26.0000 Du        
   3851 ****        15.2500  19.5000  26.2500 Du        
   3852 ****        15.2500  19.5000  26.5000 Du        
   3853 ****        15.2500  19.5000  26.7500 Du        
   3854 ****        15.2500  19.5000  27.0000 Du        
   3855 ****        15.2500  19.5000  27.2500 Du        
   3856 ****        15.2500  19.5000  27.5000 Du        
   3857 ****        15.2500  19.5000  27.7500 Du        
   3858 ****        15.2500  19.5000  28.0000 Du        
   3859 ****        15.2500  19.7500  21.2500 Du        
   3860 ****        15.2500  19.7500  21.5000 Du        
   3861 ****        15.2500  19.7500  21.7500 Du        
   3862 ****        15.2500  19.7500  22.0000 Du        
   3863 ****        15.2500  19.7500  22.2500 Du        
   3864 ****        15.2500  19.7500  22.5000 Du        
   3865 ****        15.2500  19.7500  25.7500 Du        
   3866 ****        15.2500  19.7500  26.0000 Du        
   3867 ****        15.2500  19.7500  26.2500 Du        
   3868 ****        15.2500  19.7500  26.5000 Du        
   3869 ****        15.2500  19.7500  26.7500 Du        
   3870 ****        15.2500  19.7500  27.0000 Du        
   3871 ****        15.2500  19.7500  27.2500 Du        
   3872 ****        15.2500  19.7500  27.5000 Du        
   3873 ****        15.2500  19.7500  27.7500 Du        
   3874 ****        15.2500  20.0000  21.2500 Du        
   3875 ****        15.2500  20.0000  21.5000 Du        
   3876 ****        15.2500  20.0000  21.7500 Du        
   3877 ****        15.2500  20.0000  22.0000 Du        
   3878 ****        15.2500  20.0000  22.2500 Du        
   3879 ****        15.2500  20.0000  22.5000 Du        
   3880 ****        15.2500  20.0000  22.7500 Du        
   3881 ****        15.2500  20.0000  25.7500 Du        
   3882 ****        15.2500  20.0000  26.0000 Du        
   3883 ****        15.2500  20.0000  26.2500 Du        
   3884 ****        15.2500  20.0000  26.5000 Du        
   3885 ****        15.2500  20.0000  26.7500 Du        
   3886 ****        15.2500  20.0000  27.0000 Du        
   3887 ****        15.2500  20.0000  27.2500 Du        
   3888 ****        15.2500  20.2500  21.2500 Du        
   3889 ****        15.2500  20.2500  21.5000 Du        
   3890 ****        15.2500  20.2500  21.7500 Du        
   3891 ****        15.2500  20.2500  22.0000 Du        
   3892 ****        15.2500  20.2500  22.2500 Du        
   3893 ****        15.2500  20.2500  22.5000 Du        
   3894 ****        15.2500  20.2500  25.7500 Du        
   3895 ****        15.2500  20.2500  26.0000 Du        
   3896 ****        15.2500  20.2500  26.2500 Du        
   3897 ****        15.2500  20.2500  26.5000 Du        
   3898 ****        15.2500  20.2500  26.7500 Du        
   3899 ****        15.2500  20.2500  27.0000 Du        
   3900 ****        15.2500  20.5000  21.5000 Du        
   3901 ****        15.2500  20.5000  21.7500 Du        
   3902 ****        15.2500  20.5000  22.0000 Du        
   3903 ****        15.2500  20.5000  22.2500 Du        
   3904 ****        15.2500  20.5000  22.5000 Du        
   3905 ****        15.2500  20.5000  22.7500 Du        
   3906 ****        15.2500  20.5000  25.7500 Du        
   3907 ****        15.2500  20.5000  26.0000 Du        
   3908 ****        15.2500  20.5000  26.2500 Du        
   3909 ****        15.2500  20.5000  26.5000 Du        
   3910 ****        15.2500  20.5000  26.7500 Du        
   3911 ****        15.2500  20.7500  21.7500 Du        
   3912 ****        15.2500  20.7500  22.0000 Du        
   3913 ****        15.2500  20.7500  22.2500 Du        
   3914 ****        15.2500  20.7500  22.5000 Du        
   3915 ****        15.2500  20.7500  22.7500 Du        
   3916 ****        15.2500  20.7500  26.0000 Du        
   3917 ****        15.2500  20.7500  26.2500 Du        
   3918 ****        15.2500  20.7500  26.5000 Du        
   3919 ****        15.2500  21.0000  21.7500 Du        
   3920 ****        15.2500  21.0000  22.0000 Du        
   3921 ****        15.2500  21.0000  22.2500 Du        
   3922 ****        15.2500  21.0000  22.5000 Du        
   3923 ****        15.2500  21.0000  22.7500 Du        
   3924 ****        15.2500  21.0000  26.0000 Du        
   3925 ****        15.2500  21.0000  26.2500 Du        
   3926 ****        15.2500  21.2500  22.0000 Du        
   3927 ****        15.2500  21.2500  22.2500 Du        
   3928 ****        15.2500  21.2500  26.0000 Du        
   3929 ****        15.5000   9.7500  32.2500 Du        
   3930 ****        15.5000  10.0000  32.0000 Du        
   3931 ****        15.5000  10.0000  32.2500 Du        
   3932 ****        15.5000  10.2500  31.7500 Du        
   3933 ****        15.5000  10.2500  32.0000 Du        
   3934 ****        15.5000  10.5000  31.2500 Du        
   3935 ****        15.5000  10.5000  31.5000 Du        
   3936 ****        15.5000  10.5000  31.7500 Du        
   3937 ****        15.5000  10.7500  31.0000 Du        
   3938 ****        15.5000  10.7500  31.2500 Du        
   3939 ****        15.5000  10.7500  31.5000 Du        
   3940 ****        15.5000  11.0000  30.5000 Du        
   3941 ****        15.5000  11.0000  30.7500 Du        
   3942 ****        15.5000  11.0000  31.0000 Du        
   3943 ****        15.5000  11.0000  31.2500 Du        
   3944 ****        15.5000  11.0000  31.5000 Du        
   3945 ****        15.5000  11.2500  30.0000 Du        
   3946 ****        15.5000  11.2500  30.2500 Du        
   3947 ****        15.5000  11.2500  30.5000 Du        
   3948 ****        15.5000  11.2500  30.7500 Du        
   3949 ****        15.5000  11.2500  31.0000 Du        
   3950 ****        15.5000  11.2500  31.2500 Du        
   3951 ****        15.5000  11.5000  29.5000 Du        
   3952 ****        15.5000  11.5000  29.7500 Du        
   3953 ****        15.5000  11.5000  30.0000 Du        
   3954 ****        15.5000  11.5000  30.2500 Du        
   3955 ****        15.5000  11.5000  30.5000 Du        
   3956 ****        15.5000  11.5000  30.7500 Du        
   3957 ****        15.5000  11.5000  31.0000 Du        
   3958 ****        15.5000  11.7500  29.2500 Du        
   3959 ****        15.5000  11.7500  29.5000 Du        
   3960 ****        15.5000  11.7500  29.7500 Du        
   3961 ****        15.5000  11.7500  30.0000 Du        
   3962 ****        15.5000  11.7500  30.2500 Du        
   3963 ****        15.5000  11.7500  30.5000 Du        
   3964 ****        15.5000  11.7500  30.7500 Du        
   3965 ****        15.5000  11.7500  31.0000 Du        
   3966 ****        15.5000  12.0000  29.2500 Du        
   3967 ****        15.5000  12.0000  29.5000 Du        
   3968 ****        15.5000  12.0000  29.7500 Du        
   3969 ****        15.5000  12.0000  30.0000 Du        
   3970 ****        15.5000  12.0000  30.2500 Du        
   3971 ****        15.5000  12.0000  30.5000 Du        
   3972 ****        15.5000  12.0000  30.7500 Du        
   3973 ****        15.5000  12.2500  29.5000 Du        
   3974 ****        15.5000  12.2500  29.7500 Du        
   3975 ****        15.5000  12.2500  30.0000 Du        
   3976 ****        15.5000  12.2500  30.2500 Du        
   3977 ****        15.5000  12.2500  30.5000 Du        
   3978 ****        15.5000  12.5000  29.7500 Du        
   3979 ****        15.5000  12.5000  30.0000 Du        
   3980 ****        15.5000  13.0000  21.7500 Du        
   3981 ****        15.5000  13.0000  22.0000 Du        
   3982 ****        15.5000  13.0000  22.2500 Du        
   3983 ****        15.5000  13.2500  21.0000 Du        
   3984 ****        15.5000  13.2500  21.2500 Du        
   3985 ****        15.5000  13.2500  21.5000 Du        
   3986 ****        15.5000  13.2500  21.7500 Du        
   3987 ****        15.5000  13.2500  22.0000 Du        
   3988 ****        15.5000  13.2500  22.2500 Du        
   3989 ****        15.5000  13.2500  22.5000 Du        
   3990 ****        15.5000  13.2500  22.7500 Du        
   3991 ****        15.5000  13.2500  23.0000 Du        
   3992 ****        15.5000  13.5000  20.5000 Du        
   3993 ****        15.5000  13.5000  20.7500 Du        
   3994 ****        15.5000  13.5000  21.0000 Du        
   3995 ****        15.5000  13.5000  21.2500 Du        
   3996 ****        15.5000  13.5000  21.5000 Du        
   3997 ****        15.5000  13.5000  21.7500 Du        
   3998 ****        15.5000  13.5000  22.0000 Du        
   3999 ****        15.5000  13.5000  22.2500 Du        
   4000 ****        15.5000  13.5000  22.5000 Du        
   4001 ****        15.5000  13.5000  22.7500 Du        
   4002 ****        15.5000  13.5000  23.0000 Du        
   4003 ****        15.5000  13.5000  23.2500 Du        
   4004 ****        15.5000  13.5000  23.5000 Du        
   4005 ****        15.5000  13.7500  20.2500 Du        
   4006 ****        15.5000  13.7500  20.5000 Du        
   4007 ****        15.5000  13.7500  20.7500 Du        
   4008 ****        15.5000  13.7500  21.0000 Du        
   4009 ****        15.5000  13.7500  21.2500 Du        
   4010 ****        15.5000  13.7500  21.5000 Du        
   4011 ****        15.5000  13.7500  21.7500 Du        
   4012 ****        15.5000  13.7500  22.0000 Du        
   4013 ****        15.5000  13.7500  22.2500 Du        
   4014 ****        15.5000  13.7500  22.5000 Du        
   4015 ****        15.5000  13.7500  22.7500 Du        
   4016 ****        15.5000  13.7500  23.0000 Du        
   4017 ****        15.5000  13.7500  23.2500 Du        
   4018 ****        15.5000  13.7500  23.5000 Du        
   4019 ****        15.5000  13.7500  23.7500 Du        
   4020 ****        15.5000  13.7500  24.0000 Du        
   4021 ****        15.5000  14.0000  20.0000 Du        
   4022 ****        15.5000  14.0000  20.2500 Du        
   4023 ****        15.5000  14.0000  20.5000 Du        
   4024 ****        15.5000  14.0000  20.7500 Du        
   4025 ****        15.5000  14.0000  21.0000 Du        
   4026 ****        15.5000  14.0000  21.2500 Du        
   4027 ****        15.5000  14.0000  21.5000 Du        
   4028 ****        15.5000  14.0000  21.7500 Du        
   4029 ****        15.5000  14.0000  22.0000 Du        
   4030 ****        15.5000  14.0000  22.2500 Du        
   4031 ****        15.5000  14.0000  22.5000 Du        
   4032 ****        15.5000  14.0000  22.7500 Du        
   4033 ****        15.5000  14.0000  23.0000 Du        
   4034 ****        15.5000  14.0000  23.2500 Du        
   4035 ****        15.5000  14.0000  23.5000 Du        
   4036 ****        15.5000  14.0000  23.7500 Du        
   4037 ****        15.5000  14.0000  24.0000 Du        
   4038 ****        15.5000  14.0000  24.2500 Du        
   4039 ****        15.5000  14.0000  24.5000 Du        
   4040 ****        15.5000  14.2500  20.0000 Du        
   4041 ****        15.5000  14.2500  20.2500 Du        
   4042 ****        15.5000  14.2500  20.5000 Du        
   4043 ****        15.5000  14.2500  20.7500 Du        
   4044 ****        15.5000  14.2500  21.0000 Du        
   4045 ****        15.5000  14.2500  21.2500 Du        
   4046 ****        15.5000  14.2500  21.5000 Du        
   4047 ****        15.5000  14.2500  21.7500 Du        
   4048 ****        15.5000  14.2500  22.0000 Du        
   4049 ****        15.5000  14.2500  22.2500 Du        
   4050 ****        15.5000  14.2500  22.5000 Du        
   4051 ****        15.5000  14.2500  22.7500 Du        
   4052 ****        15.5000  14.2500  23.0000 Du        
   4053 ****        15.5000  14.2500  23.2500 Du        
   4054 ****        15.5000  14.2500  23.5000 Du        
   4055 ****        15.5000  14.2500  23.7500 Du        
   4056 ****        15.5000  14.2500  24.0000 Du        
   4057 ****        15.5000  14.2500  24.2500 Du        
   4058 ****        15.5000  14.2500  24.5000 Du        
   4059 ****        15.5000  14.2500  24.7500 Du        
   4060 ****        15.5000  14.2500  25.0000 Du        
   4061 ****        15.5000  14.5000  20.0000 Du        
   4062 ****        15.5000  14.5000  20.2500 Du        
   4063 ****        15.5000  14.5000  20.5000 Du        
   4064 ****        15.5000  14.5000  20.7500 Du        
   4065 ****        15.5000  14.5000  21.0000 Du        
   4066 ****        15.5000  14.5000  21.2500 Du        
   4067 ****        15.5000  14.5000  21.5000 Du        
   4068 ****        15.5000  14.5000  21.7500 Du        
   4069 ****        15.5000  14.5000  22.0000 Du        
   4070 ****        15.5000  14.5000  22.2500 Du        
   4071 ****        15.5000  14.5000  22.5000 Du        
   4072 ****        15.5000  14.5000  22.7500 Du        
   4073 ****        15.5000  14.5000  23.0000 Du        
   4074 ****        15.5000  14.5000  23.2500 Du        
   4075 ****        15.5000  14.5000  23.5000 Du        
   4076 ****        15.5000  14.5000  23.7500 Du        
   4077 ****        15.5000  14.5000  24.0000 Du        
   4078 ****        15.5000  14.5000  24.2500 Du        
   4079 ****        15.5000  14.5000  24.5000 Du        
   4080 ****        15.5000  14.5000  24.7500 Du        
   4081 ****        15.5000  14.5000  25.0000 Du        
   4082 ****        15.5000  14.5000  25.2500 Du        
   4083 ****        15.5000  14.5000  25.5000 Du        
   4084 ****        15.5000  14.5000  25.7500 Du        
   4085 ****        15.5000  14.5000  26.0000 Du        
   4086 ****        15.5000  14.5000  26.2500 Du        
   4087 ****        15.5000  14.5000  26.5000 Du        
   4088 ****        15.5000  14.5000  26.7500 Du        
   4089 ****        15.5000  14.7500  19.7500 Du        
   4090 ****        15.5000  14.7500  20.0000 Du        
   4091 ****        15.5000  14.7500  20.2500 Du        
   4092 ****        15.5000  14.7500  20.5000 Du        
   4093 ****        15.5000  14.7500  20.7500 Du        
   4094 ****        15.5000  14.7500  21.0000 Du        
   4095 ****        15.5000  14.7500  21.2500 Du        
   4096 ****        15.5000  14.7500  21.5000 Du        
   4097 ****        15.5000  14.7500  21.7500 Du        
   4098 ****        15.5000  14.7500  22.0000 Du        
   4099 ****        15.5000  14.7500  22.2500 Du        
   4100 ****        15.5000  14.7500  22.5000 Du        
   4101 ****        15.5000  14.7500  22.7500 Du        
   4102 ****        15.5000  14.7500  23.0000 Du        
   4103 ****        15.5000  14.7500  23.2500 Du        
   4104 ****        15.5000  14.7500  23.5000 Du        
   4105 ****        15.5000  14.7500  23.7500 Du        
   4106 ****        15.5000  14.7500  24.0000 Du        
   4107 ****        15.5000  14.7500  24.2500 Du        
   4108 ****        15.5000  14.7500  24.5000 Du        
   4109 ****        15.5000  14.7500  24.7500 Du        
   4110 ****        15.5000  14.7500  25.0000 Du        
   4111 ****        15.5000  14.7500  25.2500 Du        
   4112 ****        15.5000  14.7500  25.5000 Du        
   4113 ****        15.5000  14.7500  25.7500 Du        
   4114 ****        15.5000  14.7500  26.0000 Du        
   4115 ****        15.5000  14.7500  26.2500 Du        
   4116 ****        15.5000  14.7500  26.5000 Du        
   4117 ****        15.5000  14.7500  26.7500 Du        
   4118 ****        15.5000  15.0000  19.7500 Du        
   4119 ****        15.5000  15.0000  20.0000 Du        
   4120 ****        15.5000  15.0000  20.2500 Du        
   4121 ****        15.5000  15.0000  20.5000 Du        
   4122 ****        15.5000  15.0000  20.7500 Du        
   4123 ****        15.5000  15.0000  21.0000 Du        
   4124 ****        15.5000  15.0000  21.2500 Du        
   4125 ****        15.5000  15.0000  21.5000 Du        
   4126 ****        15.5000  15.0000  21.7500 Du        
   4127 ****        15.5000  15.0000  22.0000 Du        
   4128 ****        15.5000  15.0000  22.2500 Du        
   4129 ****        15.5000  15.0000  22.5000 Du        
   4130 ****        15.5000  15.0000  22.7500 Du        
   4131 ****        15.5000  15.0000  23.0000 Du        
   4132 ****        15.5000  15.0000  23.2500 Du        
   4133 ****        15.5000  15.0000  23.5000 Du        
   4134 ****        15.5000  15.0000  23.7500 Du        
   4135 ****        15.5000  15.0000  24.0000 Du        
   4136 ****        15.5000  15.0000  24.2500 Du        
   4137 ****        15.5000  15.0000  24.5000 Du        
   4138 ****        15.5000  15.0000  24.7500 Du        
   4139 ****        15.5000  15.0000  25.0000 Du        
   4140 ****        15.5000  15.0000  25.2500 Du        
   4141 ****        15.5000  15.0000  25.5000 Du        
   4142 ****        15.5000  15.0000  25.7500 Du        
   4143 ****        15.5000  15.0000  26.0000 Du        
   4144 ****        15.5000  15.0000  26.2500 Du        
   4145 ****        15.5000  15.0000  26.5000 Du        
   4146 ****        15.5000  15.0000  26.7500 Du        
   4147 ****        15.5000  15.2500  19.7500 Du        
   4148 ****        15.5000  15.2500  20.0000 Du        
   4149 ****        15.5000  15.2500  20.2500 Du        
   4150 ****        15.5000  15.2500  20.5000 Du        
   4151 ****        15.5000  15.2500  20.7500 Du        
   4152 ****        15.5000  15.2500  21.0000 Du        
   4153 ****        15.5000  15.2500  21.2500 Du        
   4154 ****        15.5000  15.2500  21.5000 Du        
   4155 ****        15.5000  15.2500  21.7500 Du        
   4156 ****        15.5000  15.2500  22.0000 Du        
   4157 ****        15.5000  15.2500  22.2500 Du        
   4158 ****        15.5000  15.2500  22.5000 Du        
   4159 ****        15.5000  15.2500  22.7500 Du        
   4160 ****        15.5000  15.2500  23.0000 Du        
   4161 ****        15.5000  15.2500  23.2500 Du        
   4162 ****        15.5000  15.2500  23.5000 Du        
   4163 ****        15.5000  15.2500  23.7500 Du        
   4164 ****        15.5000  15.2500  24.0000 Du        
   4165 ****        15.5000  15.2500  24.2500 Du        
   4166 ****        15.5000  15.2500  24.5000 Du        
   4167 ****        15.5000  15.2500  24.7500 Du        
   4168 ****        15.5000  15.2500  25.0000 Du        
   4169 ****        15.5000  15.2500  25.2500 Du        
   4170 ****        15.5000  15.2500  25.5000 Du        
   4171 ****        15.5000  15.2500  25.7500 Du        
   4172 ****        15.5000  15.2500  26.0000 Du        
   4173 ****        15.5000  15.2500  26.2500 Du        
   4174 ****        15.5000  15.2500  26.5000 Du        
   4175 ****        15.5000  15.5000  19.5000 Du        
   4176 ****        15.5000  15.5000  19.7500 Du        
   4177 ****        15.5000  15.5000  20.0000 Du        
   4178 ****        15.5000  15.5000  20.2500 Du        
   4179 ****        15.5000  15.5000  20.5000 Du        
   4180 ****        15.5000  15.5000  20.7500 Du        
   4181 ****        15.5000  15.5000  21.0000 Du        
   4182 ****        15.5000  15.5000  21.2500 Du        
   4183 ****        15.5000  15.5000  21.5000 Du        
   4184 ****        15.5000  15.5000  21.7500 Du        
   4185 ****        15.5000  15.5000  22.0000 Du        
   4186 ****        15.5000  15.5000  22.2500 Du        
   4187 ****        15.5000  15.5000  22.5000 Du        
   4188 ****        15.5000  15.5000  22.7500 Du        
   4189 ****        15.5000  15.5000  23.0000 Du        
   4190 ****        15.5000  15.5000  23.2500 Du        
   4191 ****        15.5000  15.5000  23.5000 Du        
   4192 ****        15.5000  15.5000  23.7500 Du        
   4193 ****        15.5000  15.5000  24.0000 Du        
   4194 ****        15.5000  15.5000  24.2500 Du        
   4195 ****        15.5000  15.5000  24.5000 Du        
   4196 ****        15.5000  15.5000  24.7500 Du        
   4197 ****        15.5000  15.5000  25.0000 Du        
   4198 ****        15.5000  15.5000  25.2500 Du        
   4199 ****        15.5000  15.5000  25.5000 Du        
   4200 ****        15.5000  15.5000  25.7500 Du        
   4201 ****        15.5000  15.5000  26.0000 Du        
   4202 ****        15.5000  15.5000  26.2500 Du        
   4203 ****        15.5000  15.5000  26.5000 Du        
   4204 ****        15.5000  15.7500  19.5000 Du        
   4205 ****        15.5000  15.7500  19.7500 Du        
   4206 ****        15.5000  15.7500  20.0000 Du        
   4207 ****        15.5000  15.7500  20.2500 Du        
   4208 ****        15.5000  15.7500  20.5000 Du        
   4209 ****        15.5000  15.7500  20.7500 Du        
   4210 ****        15.5000  15.7500  21.0000 Du        
   4211 ****        15.5000  15.7500  21.2500 Du        
   4212 ****        15.5000  15.7500  21.5000 Du        
   4213 ****        15.5000  15.7500  21.7500 Du        
   4214 ****        15.5000  15.7500  22.0000 Du        
   4215 ****        15.5000  15.7500  22.2500 Du        
   4216 ****        15.5000  15.7500  22.5000 Du        
   4217 ****        15.5000  15.7500  22.7500 Du        
   4218 ****        15.5000  15.7500  23.0000 Du        
   4219 ****        15.5000  15.7500  23.2500 Du        
   4220 ****        15.5000  15.7500  23.5000 Du        
   4221 ****        15.5000  15.7500  23.7500 Du        
   4222 ****        15.5000  15.7500  24.0000 Du        
   4223 ****        15.5000  15.7500  24.2500 Du        
   4224 ****        15.5000  15.7500  24.5000 Du        
   4225 ****        15.5000  15.7500  24.7500 Du        
   4226 ****        15.5000  15.7500  25.0000 Du        
   4227 ****        15.5000  15.7500  25.2500 Du        
   4228 ****        15.5000  15.7500  25.5000 Du        
   4229 ****        15.5000  15.7500  25.7500 Du        
   4230 ****        15.5000  15.7500  26.0000 Du        
   4231 ****        15.5000  15.7500  26.2500 Du        
   4232 ****        15.5000  16.0000  19.7500 Du        
   4233 ****        15.5000  16.0000  20.0000 Du        
   4234 ****        15.5000  16.0000  20.2500 Du        
   4235 ****        15.5000  16.0000  20.5000 Du        
   4236 ****        15.5000  16.0000  20.7500 Du        
   4237 ****        15.5000  16.0000  21.0000 Du        
   4238 ****        15.5000  16.0000  21.2500 Du        
   4239 ****        15.5000  16.0000  21.5000 Du        
   4240 ****        15.5000  16.0000  21.7500 Du        
   4241 ****        15.5000  16.0000  22.0000 Du        
   4242 ****        15.5000  16.0000  22.2500 Du        
   4243 ****        15.5000  16.0000  22.5000 Du        
   4244 ****        15.5000  16.0000  22.7500 Du        
   4245 ****        15.5000  16.0000  23.0000 Du        
   4246 ****        15.5000  16.0000  23.2500 Du        
   4247 ****        15.5000  16.0000  23.5000 Du        
   4248 ****        15.5000  16.0000  23.7500 Du        
   4249 ****        15.5000  16.0000  24.0000 Du        
   4250 ****        15.5000  16.0000  24.2500 Du        
   4251 ****        15.5000  16.0000  24.5000 Du        
   4252 ****        15.5000  16.0000  24.7500 Du        
   4253 ****        15.5000  16.2500  19.7500 Du        
   4254 ****        15.5000  16.2500  20.0000 Du        
   4255 ****        15.5000  16.2500  20.2500 Du        
   4256 ****        15.5000  16.2500  20.5000 Du        
   4257 ****        15.5000  16.2500  20.7500 Du        
   4258 ****        15.5000  16.2500  21.0000 Du        
   4259 ****        15.5000  16.2500  21.2500 Du        
   4260 ****        15.5000  16.2500  21.5000 Du        
   4261 ****        15.5000  16.2500  21.7500 Du        
   4262 ****        15.5000  16.2500  22.0000 Du        
   4263 ****        15.5000  16.2500  22.2500 Du        
   4264 ****        15.5000  16.2500  22.5000 Du        
   4265 ****        15.5000  16.2500  22.7500 Du        
   4266 ****        15.5000  16.2500  23.0000 Du        
   4267 ****        15.5000  16.2500  23.2500 Du        
   4268 ****        15.5000  16.2500  23.5000 Du        
   4269 ****        15.5000  16.2500  23.7500 Du        
   4270 ****        15.5000  16.2500  24.0000 Du        
   4271 ****        15.5000  16.2500  24.2500 Du        
   4272 ****        15.5000  16.2500  24.5000 Du        
   4273 ****        15.5000  16.5000  20.0000 Du        
   4274 ****        15.5000  16.5000  20.2500 Du        
   4275 ****        15.5000  16.5000  20.5000 Du        
   4276 ****        15.5000  16.5000  20.7500 Du        
   4277 ****        15.5000  16.5000  21.0000 Du        
   4278 ****        15.5000  16.5000  21.2500 Du        
   4279 ****        15.5000  16.5000  21.5000 Du        
   4280 ****        15.5000  16.5000  21.7500 Du        
   4281 ****        15.5000  16.5000  22.0000 Du        
   4282 ****        15.5000  16.5000  22.2500 Du        
   4283 ****        15.5000  16.5000  22.5000 Du        
   4284 ****        15.5000  16.5000  22.7500 Du        
   4285 ****        15.5000  16.5000  23.0000 Du        
   4286 ****        15.5000  16.5000  23.2500 Du        
   4287 ****        15.5000  16.5000  23.5000 Du        
   4288 ****        15.5000  16.5000  23.7500 Du        
   4289 ****        15.5000  16.7500  20.0000 Du        
   4290 ****        15.5000  16.7500  20.2500 Du        
   4291 ****        15.5000  16.7500  20.5000 Du        
   4292 ****        15.5000  16.7500  20.7500 Du        
   4293 ****        15.5000  16.7500  21.0000 Du        
   4294 ****        15.5000  16.7500  21.2500 Du        
   4295 ****        15.5000  16.7500  21.5000 Du        
   4296 ****        15.5000  16.7500  21.7500 Du        
   4297 ****        15.5000  16.7500  22.0000 Du        
   4298 ****        15.5000  16.7500  22.2500 Du        
   4299 ****        15.5000  16.7500  22.5000 Du        
   4300 ****        15.5000  16.7500  22.7500 Du        
   4301 ****        15.5000  16.7500  23.0000 Du        
   4302 ****        15.5000  16.7500  23.2500 Du        
   4303 ****        15.5000  16.7500  23.5000 Du        
   4304 ****        15.5000  17.0000  20.2500 Du        
   4305 ****        15.5000  17.0000  20.5000 Du        
   4306 ****        15.5000  17.0000  20.7500 Du        
   4307 ****        15.5000  17.0000  21.0000 Du        
   4308 ****        15.5000  17.0000  21.2500 Du        
   4309 ****        15.5000  17.0000  21.5000 Du        
   4310 ****        15.5000  17.0000  21.7500 Du        
   4311 ****        15.5000  17.0000  22.0000 Du        
   4312 ****        15.5000  17.0000  22.2500 Du        
   4313 ****        15.5000  17.0000  22.5000 Du        
   4314 ****        15.5000  17.0000  22.7500 Du        
   4315 ****        15.5000  17.2500  20.5000 Du        
   4316 ****        15.5000  17.2500  20.7500 Du        
   4317 ****        15.5000  17.2500  21.0000 Du        
   4318 ****        15.5000  17.2500  21.2500 Du        
   4319 ****        15.5000  17.2500  21.5000 Du        
   4320 ****        15.5000  17.2500  21.7500 Du        
   4321 ****        15.5000  17.2500  22.0000 Du        
   4322 ****        15.5000  17.2500  22.2500 Du        
   4323 ****        15.5000  17.2500  26.7500 Du        
   4324 ****        15.5000  17.2500  27.0000 Du        
   4325 ****        15.5000  17.5000  20.7500 Du        
   4326 ****        15.5000  17.5000  21.0000 Du        
   4327 ****        15.5000  17.5000  21.2500 Du        
   4328 ****        15.5000  17.5000  21.5000 Du        
   4329 ****        15.5000  17.5000  21.7500 Du        
   4330 ****        15.5000  17.5000  22.0000 Du        
   4331 ****        15.5000  17.5000  22.2500 Du        
   4332 ****        15.5000  17.5000  22.5000 Du        
   4333 ****        15.5000  17.5000  26.7500 Du        
   4334 ****        15.5000  17.5000  27.0000 Du        
   4335 ****        15.5000  17.5000  27.2500 Du        
   4336 ****        15.5000  17.7500  20.7500 Du        
   4337 ****        15.5000  17.7500  21.0000 Du        
   4338 ****        15.5000  17.7500  21.2500 Du        
   4339 ****        15.5000  17.7500  21.5000 Du        
   4340 ****        15.5000  17.7500  21.7500 Du        
   4341 ****        15.5000  17.7500  22.0000 Du        
   4342 ****        15.5000  17.7500  22.2500 Du        
   4343 ****        15.5000  17.7500  22.5000 Du        
   4344 ****        15.5000  17.7500  26.5000 Du        
   4345 ****        15.5000  17.7500  26.7500 Du        
   4346 ****        15.5000  17.7500  27.0000 Du        
   4347 ****        15.5000  17.7500  27.2500 Du        
   4348 ****        15.5000  17.7500  27.5000 Du        
   4349 ****        15.5000  17.7500  27.7500 Du        
   4350 ****        15.5000  18.0000  21.0000 Du        
   4351 ****        15.5000  18.0000  21.2500 Du        
   4352 ****        15.5000  18.0000  21.5000 Du        
   4353 ****        15.5000  18.0000  21.7500 Du        
   4354 ****        15.5000  18.0000  22.0000 Du        
   4355 ****        15.5000  18.0000  22.2500 Du        
   4356 ****        15.5000  18.0000  22.5000 Du        
   4357 ****        15.5000  18.0000  26.2500 Du        
   4358 ****        15.5000  18.0000  26.5000 Du        
   4359 ****        15.5000  18.0000  26.7500 Du        
   4360 ****        15.5000  18.0000  27.0000 Du        
   4361 ****        15.5000  18.0000  27.2500 Du        
   4362 ****        15.5000  18.0000  27.5000 Du        
   4363 ****        15.5000  18.0000  27.7500 Du        
   4364 ****        15.5000  18.0000  28.0000 Du        
   4365 ****        15.5000  18.2500  21.0000 Du        
   4366 ****        15.5000  18.2500  21.2500 Du        
   4367 ****        15.5000  18.2500  21.5000 Du        
   4368 ****        15.5000  18.2500  21.7500 Du        
   4369 ****        15.5000  18.2500  22.0000 Du        
   4370 ****        15.5000  18.2500  22.2500 Du        
   4371 ****        15.5000  18.2500  22.5000 Du        
   4372 ****        15.5000  18.2500  26.2500 Du        
   4373 ****        15.5000  18.2500  26.5000 Du        
   4374 ****        15.5000  18.2500  26.7500 Du        
   4375 ****        15.5000  18.2500  27.0000 Du        
   4376 ****        15.5000  18.2500  27.2500 Du        
   4377 ****        15.5000  18.2500  27.5000 Du        
   4378 ****        15.5000  18.2500  27.7500 Du        
   4379 ****        15.5000  18.2500  28.0000 Du        
   4380 ****        15.5000  18.2500  28.2500 Du        
   4381 ****        15.5000  18.2500  28.5000 Du        
   4382 ****        15.5000  18.5000  21.2500 Du        
   4383 ****        15.5000  18.5000  21.5000 Du        
   4384 ****        15.5000  18.5000  21.7500 Du        
   4385 ****        15.5000  18.5000  22.0000 Du        
   4386 ****        15.5000  18.5000  22.2500 Du        
   4387 ****        15.5000  18.5000  22.5000 Du        
   4388 ****        15.5000  18.5000  26.0000 Du        
   4389 ****        15.5000  18.5000  26.2500 Du        
   4390 ****        15.5000  18.5000  26.5000 Du        
   4391 ****        15.5000  18.5000  26.7500 Du        
   4392 ****        15.5000  18.5000  27.0000 Du        
   4393 ****        15.5000  18.5000  27.2500 Du        
   4394 ****        15.5000  18.5000  27.5000 Du        
   4395 ****        15.5000  18.5000  27.7500 Du        
   4396 ****        15.5000  18.5000  28.0000 Du        
   4397 ****        15.5000  18.5000  28.2500 Du        
   4398 ****        15.5000  18.5000  28.5000 Du        
   4399 ****        15.5000  18.5000  28.7500 Du        
   4400 ****        15.5000  18.7500  21.2500 Du        
   4401 ****        15.5000  18.7500  21.5000 Du        
   4402 ****        15.5000  18.7500  21.7500 Du        
   4403 ****        15.5000  18.7500  22.0000 Du        
   4404 ****        15.5000  18.7500  22.2500 Du        
   4405 ****        15.5000  18.7500  22.5000 Du        
   4406 ****        15.5000  18.7500  22.7500 Du        
   4407 ****        15.5000  18.7500  23.0000 Du        
   4408 ****        15.5000  18.7500  25.7500 Du        
   4409 ****        15.5000  18.7500  26.0000 Du        
   4410 ****        15.5000  18.7500  26.2500 Du        
   4411 ****        15.5000  18.7500  26.5000 Du        
   4412 ****        15.5000  18.7500  26.7500 Du        
   4413 ****        15.5000  18.7500  27.0000 Du        
   4414 ****        15.5000  18.7500  27.2500 Du        
   4415 ****        15.5000  18.7500  27.5000 Du        
   4416 ****        15.5000  18.7500  27.7500 Du        
   4417 ****        15.5000  18.7500  28.0000 Du        
   4418 ****        15.5000  18.7500  28.2500 Du        
   4419 ****        15.5000  18.7500  28.5000 Du        
   4420 ****        15.5000  18.7500  28.7500 Du        
   4421 ****        15.5000  19.0000  21.2500 Du        
   4422 ****        15.5000  19.0000  21.5000 Du        
   4423 ****        15.5000  19.0000  21.7500 Du        
   4424 ****        15.5000  19.0000  22.0000 Du        
   4425 ****        15.5000  19.0000  22.2500 Du        
   4426 ****        15.5000  19.0000  22.5000 Du        
   4427 ****        15.5000  19.0000  22.7500 Du        
   4428 ****        15.5000  19.0000  23.0000 Du        
   4429 ****        15.5000  19.0000  26.0000 Du        
   4430 ****        15.5000  19.0000  26.2500 Du        
   4431 ****        15.5000  19.0000  26.5000 Du        
   4432 ****        15.5000  19.0000  26.7500 Du        
   4433 ****        15.5000  19.0000  27.0000 Du        
   4434 ****        15.5000  19.0000  27.2500 Du        
   4435 ****        15.5000  19.0000  27.5000 Du        
   4436 ****        15.5000  19.0000  27.7500 Du        
   4437 ****        15.5000  19.0000  28.0000 Du        
   4438 ****        15.5000  19.0000  28.2500 Du        
   4439 ****        15.5000  19.0000  28.5000 Du        
   4440 ****        15.5000  19.0000  28.7500 Du        
   4441 ****        15.5000  19.2500  21.2500 Du        
   4442 ****        15.5000  19.2500  21.5000 Du        
   4443 ****        15.5000  19.2500  21.7500 Du        
   4444 ****        15.5000  19.2500  22.0000 Du        
   4445 ****        15.5000  19.2500  22.2500 Du        
   4446 ****        15.5000  19.2500  22.5000 Du        
   4447 ****        15.5000  19.2500  22.7500 Du        
   4448 ****        15.5000  19.2500  23.0000 Du        
   4449 ****        15.5000  19.2500  23.2500 Du        
   4450 ****        15.5000  19.2500  26.0000 Du        
   4451 ****        15.5000  19.2500  26.2500 Du        
   4452 ****        15.5000  19.2500  26.5000 Du        
   4453 ****        15.5000  19.2500  26.7500 Du        
   4454 ****        15.5000  19.2500  27.0000 Du        
   4455 ****        15.5000  19.2500  27.2500 Du        
   4456 ****        15.5000  19.2500  27.5000 Du        
   4457 ****        15.5000  19.2500  27.7500 Du        
   4458 ****        15.5000  19.2500  28.0000 Du        
   4459 ****        15.5000  19.2500  28.2500 Du        
   4460 ****        15.5000  19.5000  21.2500 Du        
   4461 ****        15.5000  19.5000  21.5000 Du        
   4462 ****        15.5000  19.5000  21.7500 Du        
   4463 ****        15.5000  19.5000  22.0000 Du        
   4464 ****        15.5000  19.5000  22.2500 Du        
   4465 ****        15.5000  19.5000  22.5000 Du        
   4466 ****        15.5000  19.5000  22.7500 Du        
   4467 ****        15.5000  19.5000  25.7500 Du        
   4468 ****        15.5000  19.5000  26.0000 Du        
   4469 ****        15.5000  19.5000  26.2500 Du        
   4470 ****        15.5000  19.5000  26.5000 Du        
   4471 ****        15.5000  19.5000  26.7500 Du        
   4472 ****        15.5000  19.5000  27.0000 Du        
   4473 ****        15.5000  19.5000  27.2500 Du        
   4474 ****        15.5000  19.5000  27.5000 Du        
   4475 ****        15.5000  19.5000  27.7500 Du        
   4476 ****        15.5000  19.7500  21.2500 Du        
   4477 ****        15.5000  19.7500  21.5000 Du        
   4478 ****        15.5000  19.7500  21.7500 Du        
   4479 ****        15.5000  19.7500  22.0000 Du        
   4480 ****        15.5000  19.7500  22.2500 Du        
   4481 ****        15.5000  19.7500  22.5000 Du        
   4482 ****        15.5000  19.7500  22.7500 Du        
   4483 ****        15.5000  19.7500  25.7500 Du        
   4484 ****        15.5000  19.7500  26.0000 Du        
   4485 ****        15.5000  19.7500  26.2500 Du        
   4486 ****        15.5000  19.7500  26.5000 Du        
   4487 ****        15.5000  19.7500  26.7500 Du        
   4488 ****        15.5000  19.7500  27.0000 Du        
   4489 ****        15.5000  19.7500  27.2500 Du        
   4490 ****        15.5000  20.0000  21.2500 Du        
   4491 ****        15.5000  20.0000  21.5000 Du        
   4492 ****        15.5000  20.0000  21.7500 Du        
   4493 ****        15.5000  20.0000  22.0000 Du        
   4494 ****        15.5000  20.0000  22.2500 Du        
   4495 ****        15.5000  20.0000  22.5000 Du        
   4496 ****        15.5000  20.0000  22.7500 Du        
   4497 ****        15.5000  20.0000  25.7500 Du        
   4498 ****        15.5000  20.0000  26.0000 Du        
   4499 ****        15.5000  20.0000  26.2500 Du        
   4500 ****        15.5000  20.0000  26.5000 Du        
   4501 ****        15.5000  20.0000  26.7500 Du        
   4502 ****        15.5000  20.0000  27.0000 Du        
   4503 ****        15.5000  20.2500  21.5000 Du        
   4504 ****        15.5000  20.2500  21.7500 Du        
   4505 ****        15.5000  20.2500  22.0000 Du        
   4506 ****        15.5000  20.2500  22.2500 Du        
   4507 ****        15.5000  20.2500  22.5000 Du        
   4508 ****        15.5000  20.2500  22.7500 Du        
   4509 ****        15.5000  20.2500  23.0000 Du        
   4510 ****        15.5000  20.2500  26.0000 Du        
   4511 ****        15.5000  20.2500  26.2500 Du        
   4512 ****        15.5000  20.2500  26.5000 Du        
   4513 ****        15.5000  20.2500  26.7500 Du        
   4514 ****        15.5000  20.5000  21.5000 Du        
   4515 ****        15.5000  20.5000  21.7500 Du        
   4516 ****        15.5000  20.5000  22.0000 Du        
   4517 ****        15.5000  20.5000  22.2500 Du        
   4518 ****        15.5000  20.5000  22.5000 Du        
   4519 ****        15.5000  20.5000  22.7500 Du        
   4520 ****        15.5000  20.7500  21.7500 Du        
   4521 ****        15.5000  20.7500  22.0000 Du        
   4522 ****        15.5000  20.7500  22.2500 Du        
   4523 ****        15.5000  20.7500  22.5000 Du        
   4524 ****        15.5000  21.0000  22.0000 Du        
   4525 ****        15.5000  21.0000  22.2500 Du        
   4526 ****        15.5000  21.0000  22.5000 Du        
   4527 ****        15.5000  21.2500  22.2500 Du        
   4528 ****        15.7500   9.5000  32.2500 Du        
   4529 ****        15.7500   9.5000  32.5000 Du        
   4530 ****        15.7500   9.7500  32.0000 Du        
   4531 ****        15.7500   9.7500  32.2500 Du        
   4532 ****        15.7500   9.7500  32.5000 Du        
   4533 ****        15.7500  10.0000  31.7500 Du        
   4534 ****        15.7500  10.0000  32.0000 Du        
   4535 ****        15.7500  10.0000  32.2500 Du        
   4536 ****        15.7500  10.2500  31.5000 Du        
   4537 ****        15.7500  10.2500  31.7500 Du        
   4538 ****        15.7500  10.2500  32.0000 Du        
   4539 ****        15.7500  10.5000  31.2500 Du        
   4540 ****        15.7500  10.5000  31.5000 Du        
   4541 ****        15.7500  10.5000  31.7500 Du        
   4542 ****        15.7500  10.7500  30.7500 Du        
   4543 ****        15.7500  10.7500  31.0000 Du        
   4544 ****        15.7500  10.7500  31.2500 Du        
   4545 ****        15.7500  10.7500  31.5000 Du        
   4546 ****        15.7500  11.0000  30.2500 Du        
   4547 ****        15.7500  11.0000  30.5000 Du        
   4548 ****        15.7500  11.0000  30.7500 Du        
   4549 ****        15.7500  11.0000  31.0000 Du        
   4550 ****        15.7500  11.0000  31.2500 Du        
   4551 ****        15.7500  11.0000  31.5000 Du        
   4552 ****        15.7500  11.2500  29.7500 Du        
   4553 ****        15.7500  11.2500  30.0000 Du        
   4554 ****        15.7500  11.2500  30.2500 Du        
   4555 ****        15.7500  11.2500  30.5000 Du        
   4556 ****        15.7500  11.2500  30.7500 Du        
   4557 ****        15.7500  11.2500  31.0000 Du        
   4558 ****        15.7500  11.2500  31.2500 Du        
   4559 ****        15.7500  11.5000  29.5000 Du        
   4560 ****        15.7500  11.5000  29.7500 Du        
   4561 ****        15.7500  11.5000  30.0000 Du        
   4562 ****        15.7500  11.5000  30.2500 Du        
   4563 ****        15.7500  11.5000  30.5000 Du        
   4564 ****        15.7500  11.5000  30.7500 Du        
   4565 ****        15.7500  11.5000  31.0000 Du        
   4566 ****        15.7500  11.7500  29.0000 Du        
   4567 ****        15.7500  11.7500  29.2500 Du        
   4568 ****        15.7500  11.7500  29.5000 Du        
   4569 ****        15.7500  11.7500  29.7500 Du        
   4570 ****        15.7500  11.7500  30.0000 Du        
   4571 ****        15.7500  11.7500  30.2500 Du        
   4572 ****        15.7500  11.7500  30.5000 Du        
   4573 ****        15.7500  11.7500  30.7500 Du        
   4574 ****        15.7500  11.7500  31.0000 Du        
   4575 ****        15.7500  12.0000  28.7500 Du        
   4576 ****        15.7500  12.0000  29.0000 Du        
   4577 ****        15.7500  12.0000  29.2500 Du        
   4578 ****        15.7500  12.0000  29.5000 Du        
   4579 ****        15.7500  12.0000  29.7500 Du        
   4580 ****        15.7500  12.0000  30.0000 Du        
   4581 ****        15.7500  12.0000  30.2500 Du        
   4582 ****        15.7500  12.0000  30.5000 Du        
   4583 ****        15.7500  12.0000  30.7500 Du        
   4584 ****        15.7500  12.2500  28.7500 Du        
   4585 ****        15.7500  12.2500  29.0000 Du        
   4586 ****        15.7500  12.2500  29.2500 Du        
   4587 ****        15.7500  12.2500  29.5000 Du        
   4588 ****        15.7500  12.2500  29.7500 Du        
   4589 ****        15.7500  12.2500  30.0000 Du        
   4590 ****        15.7500  12.2500  30.2500 Du        
   4591 ****        15.7500  12.5000  28.7500 Du        
   4592 ****        15.7500  12.5000  29.0000 Du        
   4593 ****        15.7500  12.5000  29.2500 Du        
   4594 ****        15.7500  12.5000  29.5000 Du        
   4595 ****        15.7500  12.5000  29.7500 Du        
   4596 ****        15.7500  12.5000  30.0000 Du        
   4597 ****        15.7500  12.7500  29.0000 Du        
   4598 ****        15.7500  12.7500  29.2500 Du        
   4599 ****        15.7500  12.7500  29.5000 Du        
   4600 ****        15.7500  12.7500  29.7500 Du        
   4601 ****        15.7500  13.0000  21.5000 Du        
   4602 ****        15.7500  13.0000  21.7500 Du        
   4603 ****        15.7500  13.0000  22.0000 Du        
   4604 ****        15.7500  13.0000  22.2500 Du        
   4605 ****        15.7500  13.2500  21.0000 Du        
   4606 ****        15.7500  13.2500  21.2500 Du        
   4607 ****        15.7500  13.2500  21.5000 Du        
   4608 ****        15.7500  13.2500  21.7500 Du        
   4609 ****        15.7500  13.2500  22.0000 Du        
   4610 ****        15.7500  13.2500  22.2500 Du        
   4611 ****        15.7500  13.2500  22.5000 Du        
   4612 ****        15.7500  13.2500  22.7500 Du        
   4613 ****        15.7500  13.2500  23.0000 Du        
   4614 ****        15.7500  13.5000  20.5000 Du        
   4615 ****        15.7500  13.5000  20.7500 Du        
   4616 ****        15.7500  13.5000  21.0000 Du        
   4617 ****        15.7500  13.5000  21.2500 Du        
   4618 ****        15.7500  13.5000  21.5000 Du        
   4619 ****        15.7500  13.5000  21.7500 Du        
   4620 ****        15.7500  13.5000  22.0000 Du        
   4621 ****        15.7500  13.5000  22.2500 Du        
   4622 ****        15.7500  13.5000  22.5000 Du        
   4623 ****        15.7500  13.5000  22.7500 Du        
   4624 ****        15.7500  13.5000  23.0000 Du        
   4625 ****        15.7500  13.5000  23.2500 Du        
   4626 ****        15.7500  13.5000  23.5000 Du        
   4627 ****        15.7500  13.7500  20.2500 Du        
   4628 ****        15.7500  13.7500  20.5000 Du        
   4629 ****        15.7500  13.7500  20.7500 Du        
   4630 ****        15.7500  13.7500  21.0000 Du        
   4631 ****        15.7500  13.7500  21.2500 Du        
   4632 ****        15.7500  13.7500  21.5000 Du        
   4633 ****        15.7500  13.7500  21.7500 Du        
   4634 ****        15.7500  13.7500  22.0000 Du        
   4635 ****        15.7500  13.7500  22.2500 Du        
   4636 ****        15.7500  13.7500  22.5000 Du        
   4637 ****        15.7500  13.7500  22.7500 Du        
   4638 ****        15.7500  13.7500  23.0000 Du        
   4639 ****        15.7500  13.7500  23.2500 Du        
   4640 ****        15.7500  13.7500  23.5000 Du        
   4641 ****        15.7500  13.7500  23.7500 Du        
   4642 ****        15.7500  13.7500  24.0000 Du        
   4643 ****        15.7500  13.7500  24.2500 Du        
   4644 ****        15.7500  14.0000  20.0000 Du        
   4645 ****        15.7500  14.0000  20.2500 Du        
   4646 ****        15.7500  14.0000  20.5000 Du        
   4647 ****        15.7500  14.0000  20.7500 Du        
   4648 ****        15.7500  14.0000  21.0000 Du        
   4649 ****        15.7500  14.0000  21.2500 Du        
   4650 ****        15.7500  14.0000  21.5000 Du        
   4651 ****        15.7500  14.0000  21.7500 Du        
   4652 ****        15.7500  14.0000  22.0000 Du        
   4653 ****        15.7500  14.0000  22.2500 Du        
   4654 ****        15.7500  14.0000  22.5000 Du        
   4655 ****        15.7500  14.0000  22.7500 Du        
   4656 ****        15.7500  14.0000  23.0000 Du        
   4657 ****        15.7500  14.0000  23.2500 Du        
   4658 ****        15.7500  14.0000  23.5000 Du        
   4659 ****        15.7500  14.0000  23.7500 Du        
   4660 ****        15.7500  14.0000  24.0000 Du        
   4661 ****        15.7500  14.0000  24.2500 Du        
   4662 ****        15.7500  14.0000  24.5000 Du        
   4663 ****        15.7500  14.0000  24.7500 Du        
   4664 ****        15.7500  14.0000  27.0000 Du        
   4665 ****        15.7500  14.0000  27.2500 Du        
   4666 ****        15.7500  14.2500  20.0000 Du        
   4667 ****        15.7500  14.2500  20.2500 Du        
   4668 ****        15.7500  14.2500  20.5000 Du        
   4669 ****        15.7500  14.2500  20.7500 Du        
   4670 ****        15.7500  14.2500  21.0000 Du        
   4671 ****        15.7500  14.2500  21.2500 Du        
   4672 ****        15.7500  14.2500  21.5000 Du        
   4673 ****        15.7500  14.2500  21.7500 Du        
   4674 ****        15.7500  14.2500  22.0000 Du        
   4675 ****        15.7500  14.2500  22.2500 Du        
   4676 ****        15.7500  14.2500  22.5000 Du        
   4677 ****        15.7500  14.2500  22.7500 Du        
   4678 ****        15.7500  14.2500  23.0000 Du        
   4679 ****        15.7500  14.2500  23.2500 Du        
   4680 ****        15.7500  14.2500  23.5000 Du        
   4681 ****        15.7500  14.2500  23.7500 Du        
   4682 ****        15.7500  14.2500  24.0000 Du        
   4683 ****        15.7500  14.2500  24.2500 Du        
   4684 ****        15.7500  14.2500  24.5000 Du        
   4685 ****        15.7500  14.2500  24.7500 Du        
   4686 ****        15.7500  14.2500  25.0000 Du        
   4687 ****        15.7500  14.2500  25.2500 Du        
   4688 ****        15.7500  14.2500  25.5000 Du        
   4689 ****        15.7500  14.2500  25.7500 Du        
   4690 ****        15.7500  14.2500  26.0000 Du        
   4691 ****        15.7500  14.2500  26.2500 Du        
   4692 ****        15.7500  14.2500  26.5000 Du        
   4693 ****        15.7500  14.2500  26.7500 Du        
   4694 ****        15.7500  14.2500  27.0000 Du        
   4695 ****        15.7500  14.5000  20.0000 Du        
   4696 ****        15.7500  14.5000  20.2500 Du        
   4697 ****        15.7500  14.5000  20.5000 Du        
   4698 ****        15.7500  14.5000  20.7500 Du        
   4699 ****        15.7500  14.5000  21.0000 Du        
   4700 ****        15.7500  14.5000  21.2500 Du        
   4701 ****        15.7500  14.5000  21.5000 Du        
   4702 ****        15.7500  14.5000  21.7500 Du        
   4703 ****        15.7500  14.5000  22.0000 Du        
   4704 ****        15.7500  14.5000  22.2500 Du        
   4705 ****        15.7500  14.5000  22.5000 Du        
   4706 ****        15.7500  14.5000  22.7500 Du        
   4707 ****        15.7500  14.5000  23.0000 Du        
   4708 ****        15.7500  14.5000  23.2500 Du        
   4709 ****        15.7500  14.5000  23.5000 Du        
   4710 ****        15.7500  14.5000  23.7500 Du        
   4711 ****        15.7500  14.5000  24.0000 Du        
   4712 ****        15.7500  14.5000  24.2500 Du        
   4713 ****        15.7500  14.5000  24.5000 Du        
   4714 ****        15.7500  14.5000  24.7500 Du        
   4715 ****        15.7500  14.5000  25.0000 Du        
   4716 ****        15.7500  14.5000  25.2500 Du        
   4717 ****        15.7500  14.5000  25.5000 Du        
   4718 ****        15.7500  14.5000  25.7500 Du        
   4719 ****        15.7500  14.5000  26.0000 Du        
   4720 ****        15.7500  14.5000  26.2500 Du        
   4721 ****        15.7500  14.5000  26.5000 Du        
   4722 ****        15.7500  14.5000  26.7500 Du        
   4723 ****        15.7500  14.5000  27.0000 Du        
   4724 ****        15.7500  14.7500  20.0000 Du        
   4725 ****        15.7500  14.7500  20.2500 Du        
   4726 ****        15.7500  14.7500  20.5000 Du        
   4727 ****        15.7500  14.7500  20.7500 Du        
   4728 ****        15.7500  14.7500  21.0000 Du        
   4729 ****        15.7500  14.7500  21.2500 Du        
   4730 ****        15.7500  14.7500  21.5000 Du        
   4731 ****        15.7500  14.7500  21.7500 Du        
   4732 ****        15.7500  14.7500  22.0000 Du        
   4733 ****        15.7500  14.7500  22.2500 Du        
   4734 ****        15.7500  14.7500  22.5000 Du        
   4735 ****        15.7500  14.7500  22.7500 Du        
   4736 ****        15.7500  14.7500  23.0000 Du        
   4737 ****        15.7500  14.7500  23.2500 Du        
   4738 ****        15.7500  14.7500  23.5000 Du        
   4739 ****        15.7500  14.7500  23.7500 Du        
   4740 ****        15.7500  14.7500  24.0000 Du        
   4741 ****        15.7500  14.7500  24.2500 Du        
   4742 ****        15.7500  14.7500  24.5000 Du        
   4743 ****        15.7500  14.7500  24.7500 Du        
   4744 ****        15.7500  14.7500  25.0000 Du        
   4745 ****        15.7500  14.7500  25.2500 Du        
   4746 ****        15.7500  14.7500  25.5000 Du        
   4747 ****        15.7500  14.7500  25.7500 Du        
   4748 ****        15.7500  14.7500  26.0000 Du        
   4749 ****        15.7500  14.7500  26.2500 Du        
   4750 ****        15.7500  14.7500  26.5000 Du        
   4751 ****        15.7500  14.7500  26.7500 Du        
   4752 ****        15.7500  14.7500  27.0000 Du        
   4753 ****        15.7500  15.0000  19.7500 Du        
   4754 ****        15.7500  15.0000  20.0000 Du        
   4755 ****        15.7500  15.0000  20.2500 Du        
   4756 ****        15.7500  15.0000  20.5000 Du        
   4757 ****        15.7500  15.0000  20.7500 Du        
   4758 ****        15.7500  15.0000  21.0000 Du        
   4759 ****        15.7500  15.0000  21.2500 Du        
   4760 ****        15.7500  15.0000  21.5000 Du        
   4761 ****        15.7500  15.0000  21.7500 Du        
   4762 ****        15.7500  15.0000  22.0000 Du        
   4763 ****        15.7500  15.0000  22.2500 Du        
   4764 ****        15.7500  15.0000  22.5000 Du        
   4765 ****        15.7500  15.0000  22.7500 Du        
   4766 ****        15.7500  15.0000  23.0000 Du        
   4767 ****        15.7500  15.0000  23.2500 Du        
   4768 ****        15.7500  15.0000  23.5000 Du        
   4769 ****        15.7500  15.0000  23.7500 Du        
   4770 ****        15.7500  15.0000  24.0000 Du        
   4771 ****        15.7500  15.0000  24.2500 Du        
   4772 ****        15.7500  15.0000  24.5000 Du        
   4773 ****        15.7500  15.0000  24.7500 Du        
   4774 ****        15.7500  15.0000  25.0000 Du        
   4775 ****        15.7500  15.0000  25.2500 Du        
   4776 ****        15.7500  15.0000  25.5000 Du        
   4777 ****        15.7500  15.0000  25.7500 Du        
   4778 ****        15.7500  15.0000  26.0000 Du        
   4779 ****        15.7500  15.0000  26.2500 Du        
   4780 ****        15.7500  15.0000  26.5000 Du        
   4781 ****        15.7500  15.0000  26.7500 Du        
   4782 ****        15.7500  15.2500  19.7500 Du        
   4783 ****        15.7500  15.2500  20.0000 Du        
   4784 ****        15.7500  15.2500  20.2500 Du        
   4785 ****        15.7500  15.2500  20.5000 Du        
   4786 ****        15.7500  15.2500  20.7500 Du        
   4787 ****        15.7500  15.2500  21.0000 Du        
   4788 ****        15.7500  15.2500  21.2500 Du        
   4789 ****        15.7500  15.2500  21.5000 Du        
   4790 ****        15.7500  15.2500  21.7500 Du        
   4791 ****        15.7500  15.2500  22.0000 Du        
   4792 ****        15.7500  15.2500  22.2500 Du        
   4793 ****        15.7500  15.2500  22.5000 Du        
   4794 ****        15.7500  15.2500  22.7500 Du        
   4795 ****        15.7500  15.2500  23.0000 Du        
   4796 ****        15.7500  15.2500  23.2500 Du        
   4797 ****        15.7500  15.2500  23.5000 Du        
   4798 ****        15.7500  15.2500  23.7500 Du        
   4799 ****        15.7500  15.2500  24.0000 Du        
   4800 ****        15.7500  15.2500  24.2500 Du        
   4801 ****        15.7500  15.2500  24.5000 Du        
   4802 ****        15.7500  15.2500  24.7500 Du        
   4803 ****        15.7500  15.2500  25.0000 Du        
   4804 ****        15.7500  15.2500  25.2500 Du        
   4805 ****        15.7500  15.2500  25.5000 Du        
   4806 ****        15.7500  15.2500  25.7500 Du        
   4807 ****        15.7500  15.2500  26.0000 Du        
   4808 ****        15.7500  15.2500  26.2500 Du        
   4809 ****        15.7500  15.2500  26.5000 Du        
   4810 ****        15.7500  15.2500  26.7500 Du        
   4811 ****        15.7500  15.5000  19.7500 Du        
   4812 ****        15.7500  15.5000  20.0000 Du        
   4813 ****        15.7500  15.5000  20.2500 Du        
   4814 ****        15.7500  15.5000  20.5000 Du        
   4815 ****        15.7500  15.5000  20.7500 Du        
   4816 ****        15.7500  15.5000  21.0000 Du        
   4817 ****        15.7500  15.5000  21.2500 Du        
   4818 ****        15.7500  15.5000  21.5000 Du        
   4819 ****        15.7500  15.5000  21.7500 Du        
   4820 ****        15.7500  15.5000  22.0000 Du        
   4821 ****        15.7500  15.5000  22.2500 Du        
   4822 ****        15.7500  15.5000  22.5000 Du        
   4823 ****        15.7500  15.5000  22.7500 Du        
   4824 ****        15.7500  15.5000  23.0000 Du        
   4825 ****        15.7500  15.5000  23.2500 Du        
   4826 ****        15.7500  15.5000  23.5000 Du        
   4827 ****        15.7500  15.5000  23.7500 Du        
   4828 ****        15.7500  15.5000  24.0000 Du        
   4829 ****        15.7500  15.5000  24.2500 Du        
   4830 ****        15.7500  15.5000  24.5000 Du        
   4831 ****        15.7500  15.5000  24.7500 Du        
   4832 ****        15.7500  15.5000  26.2500 Du        
   4833 ****        15.7500  15.5000  26.5000 Du        
   4834 ****        15.7500  15.7500  19.5000 Du        
   4835 ****        15.7500  15.7500  19.7500 Du        
   4836 ****        15.7500  15.7500  20.0000 Du        
   4837 ****        15.7500  15.7500  20.2500 Du        
   4838 ****        15.7500  15.7500  20.5000 Du        
   4839 ****        15.7500  15.7500  20.7500 Du        
   4840 ****        15.7500  15.7500  21.0000 Du        
   4841 ****        15.7500  15.7500  21.2500 Du        
   4842 ****        15.7500  15.7500  21.5000 Du        
   4843 ****        15.7500  15.7500  21.7500 Du        
   4844 ****        15.7500  15.7500  22.0000 Du        
   4845 ****        15.7500  15.7500  22.2500 Du        
   4846 ****        15.7500  15.7500  22.5000 Du        
   4847 ****        15.7500  15.7500  22.7500 Du        
   4848 ****        15.7500  15.7500  23.0000 Du        
   4849 ****        15.7500  15.7500  23.2500 Du        
   4850 ****        15.7500  15.7500  23.5000 Du        
   4851 ****        15.7500  15.7500  23.7500 Du        
   4852 ****        15.7500  15.7500  24.0000 Du        
   4853 ****        15.7500  15.7500  24.2500 Du        
   4854 ****        15.7500  16.0000  19.5000 Du        
   4855 ****        15.7500  16.0000  19.7500 Du        
   4856 ****        15.7500  16.0000  20.0000 Du        
   4857 ****        15.7500  16.0000  20.2500 Du        
   4858 ****        15.7500  16.0000  20.5000 Du        
   4859 ****        15.7500  16.0000  20.7500 Du        
   4860 ****        15.7500  16.0000  21.0000 Du        
   4861 ****        15.7500  16.0000  21.2500 Du        
   4862 ****        15.7500  16.0000  21.5000 Du        
   4863 ****        15.7500  16.0000  21.7500 Du        
   4864 ****        15.7500  16.0000  22.0000 Du        
   4865 ****        15.7500  16.0000  22.2500 Du        
   4866 ****        15.7500  16.0000  22.5000 Du        
   4867 ****        15.7500  16.0000  22.7500 Du        
   4868 ****        15.7500  16.0000  23.0000 Du        
   4869 ****        15.7500  16.0000  23.2500 Du        
   4870 ****        15.7500  16.0000  23.5000 Du        
   4871 ****        15.7500  16.0000  23.7500 Du        
   4872 ****        15.7500  16.0000  24.0000 Du        
   4873 ****        15.7500  16.2500  19.5000 Du        
   4874 ****        15.7500  16.2500  19.7500 Du        
   4875 ****        15.7500  16.2500  20.0000 Du        
   4876 ****        15.7500  16.2500  20.2500 Du        
   4877 ****        15.7500  16.2500  20.5000 Du        
   4878 ****        15.7500  16.2500  20.7500 Du        
   4879 ****        15.7500  16.2500  21.0000 Du        
   4880 ****        15.7500  16.2500  21.2500 Du        
   4881 ****        15.7500  16.2500  21.5000 Du        
   4882 ****        15.7500  16.2500  21.7500 Du        
   4883 ****        15.7500  16.2500  22.0000 Du        
   4884 ****        15.7500  16.2500  22.2500 Du        
   4885 ****        15.7500  16.2500  22.5000 Du        
   4886 ****        15.7500  16.2500  22.7500 Du        
   4887 ****        15.7500  16.2500  23.0000 Du        
   4888 ****        15.7500  16.2500  23.2500 Du        
   4889 ****        15.7500  16.2500  23.5000 Du        
   4890 ****        15.7500  16.2500  23.7500 Du        
   4891 ****        15.7500  16.5000  19.7500 Du        
   4892 ****        15.7500  16.5000  20.0000 Du        
   4893 ****        15.7500  16.5000  20.2500 Du        
   4894 ****        15.7500  16.5000  20.5000 Du        
   4895 ****        15.7500  16.5000  20.7500 Du        
   4896 ****        15.7500  16.5000  21.0000 Du        
   4897 ****        15.7500  16.5000  21.2500 Du        
   4898 ****        15.7500  16.5000  21.5000 Du        
   4899 ****        15.7500  16.5000  21.7500 Du        
   4900 ****        15.7500  16.5000  22.0000 Du        
   4901 ****        15.7500  16.5000  22.2500 Du        
   4902 ****        15.7500  16.5000  22.5000 Du        
   4903 ****        15.7500  16.5000  22.7500 Du        
   4904 ****        15.7500  16.5000  23.0000 Du        
   4905 ****        15.7500  16.5000  23.2500 Du        
   4906 ****        15.7500  16.5000  23.5000 Du        
   4907 ****        15.7500  16.7500  20.0000 Du        
   4908 ****        15.7500  16.7500  20.2500 Du        
   4909 ****        15.7500  16.7500  20.5000 Du        
   4910 ****        15.7500  16.7500  20.7500 Du        
   4911 ****        15.7500  16.7500  21.0000 Du        
   4912 ****        15.7500  16.7500  21.2500 Du        
   4913 ****        15.7500  16.7500  21.5000 Du        
   4914 ****        15.7500  16.7500  21.7500 Du        
   4915 ****        15.7500  16.7500  22.0000 Du        
   4916 ****        15.7500  16.7500  22.2500 Du        
   4917 ****        15.7500  16.7500  22.5000 Du        
   4918 ****        15.7500  16.7500  22.7500 Du        
   4919 ****        15.7500  16.7500  23.0000 Du        
   4920 ****        15.7500  16.7500  23.2500 Du        
   4921 ****        15.7500  16.7500  23.5000 Du        
   4922 ****        15.7500  17.0000  20.2500 Du        
   4923 ****        15.7500  17.0000  20.5000 Du        
   4924 ****        15.7500  17.0000  20.7500 Du        
   4925 ****        15.7500  17.0000  21.0000 Du        
   4926 ****        15.7500  17.0000  21.2500 Du        
   4927 ****        15.7500  17.0000  21.5000 Du        
   4928 ****        15.7500  17.0000  21.7500 Du        
   4929 ****        15.7500  17.0000  22.0000 Du        
   4930 ****        15.7500  17.0000  22.2500 Du        
   4931 ****        15.7500  17.0000  22.5000 Du        
   4932 ****        15.7500  17.0000  22.7500 Du        
   4933 ****        15.7500  17.0000  23.0000 Du        
   4934 ****        15.7500  17.0000  23.2500 Du        
   4935 ****        15.7500  17.0000  27.0000 Du        
   4936 ****        15.7500  17.0000  27.2500 Du        
   4937 ****        15.7500  17.2500  20.5000 Du        
   4938 ****        15.7500  17.2500  20.7500 Du        
   4939 ****        15.7500  17.2500  21.0000 Du        
   4940 ****        15.7500  17.2500  21.2500 Du        
   4941 ****        15.7500  17.2500  21.5000 Du        
   4942 ****        15.7500  17.2500  21.7500 Du        
   4943 ****        15.7500  17.2500  22.0000 Du        
   4944 ****        15.7500  17.2500  22.2500 Du        
   4945 ****        15.7500  17.2500  22.5000 Du        
   4946 ****        15.7500  17.2500  22.7500 Du        
   4947 ****        15.7500  17.2500  23.0000 Du        
   4948 ****        15.7500  17.2500  23.2500 Du        
   4949 ****        15.7500  17.2500  27.0000 Du        
   4950 ****        15.7500  17.2500  27.2500 Du        
   4951 ****        15.7500  17.2500  27.5000 Du        
   4952 ****        15.7500  17.5000  20.7500 Du        
   4953 ****        15.7500  17.5000  21.0000 Du        
   4954 ****        15.7500  17.5000  21.2500 Du        
   4955 ****        15.7500  17.5000  21.5000 Du        
   4956 ****        15.7500  17.5000  21.7500 Du        
   4957 ****        15.7500  17.5000  22.0000 Du        
   4958 ****        15.7500  17.5000  22.2500 Du        
   4959 ****        15.7500  17.5000  22.5000 Du        
   4960 ****        15.7500  17.5000  22.7500 Du        
   4961 ****        15.7500  17.5000  23.0000 Du        
   4962 ****        15.7500  17.5000  23.2500 Du        
   4963 ****        15.7500  17.5000  27.0000 Du        
   4964 ****        15.7500  17.5000  27.2500 Du        
   4965 ****        15.7500  17.5000  27.5000 Du        
   4966 ****        15.7500  17.5000  27.7500 Du        
   4967 ****        15.7500  17.7500  21.0000 Du        
   4968 ****        15.7500  17.7500  21.2500 Du        
   4969 ****        15.7500  17.7500  21.5000 Du        
   4970 ****        15.7500  17.7500  21.7500 Du        
   4971 ****        15.7500  17.7500  22.0000 Du        
   4972 ****        15.7500  17.7500  22.2500 Du        
   4973 ****        15.7500  17.7500  22.5000 Du        
   4974 ****        15.7500  17.7500  22.7500 Du        
   4975 ****        15.7500  17.7500  23.0000 Du        
   4976 ****        15.7500  17.7500  23.2500 Du        
   4977 ****        15.7500  17.7500  26.7500 Du        
   4978 ****        15.7500  17.7500  27.0000 Du        
   4979 ****        15.7500  17.7500  27.2500 Du        
   4980 ****        15.7500  17.7500  27.5000 Du        
   4981 ****        15.7500  17.7500  27.7500 Du        
   4982 ****        15.7500  17.7500  28.0000 Du        
   4983 ****        15.7500  18.0000  21.0000 Du        
   4984 ****        15.7500  18.0000  21.2500 Du        
   4985 ****        15.7500  18.0000  21.5000 Du        
   4986 ****        15.7500  18.0000  21.7500 Du        
   4987 ****        15.7500  18.0000  22.0000 Du        
   4988 ****        15.7500  18.0000  22.2500 Du        
   4989 ****        15.7500  18.0000  22.5000 Du        
   4990 ****        15.7500  18.0000  22.7500 Du        
   4991 ****        15.7500  18.0000  23.0000 Du        
   4992 ****        15.7500  18.0000  23.2500 Du        
   4993 ****        15.7500  18.0000  26.5000 Du        
   4994 ****        15.7500  18.0000  26.7500 Du        
   4995 ****        15.7500  18.0000  27.0000 Du        
   4996 ****        15.7500  18.0000  27.2500 Du        
   4997 ****        15.7500  18.0000  27.5000 Du        
   4998 ****        15.7500  18.0000  27.7500 Du        
   4999 ****        15.7500  18.0000  28.0000 Du        
   5000 ****        15.7500  18.0000  28.2500 Du        
   5001 ****        15.7500  18.2500  21.2500 Du        
   5002 ****        15.7500  18.2500  21.5000 Du        
   5003 ****        15.7500  18.2500  21.7500 Du        
   5004 ****        15.7500  18.2500  22.0000 Du        
   5005 ****        15.7500  18.2500  22.2500 Du        
   5006 ****        15.7500  18.2500  22.5000 Du        
   5007 ****        15.7500  18.2500  22.7500 Du        
   5008 ****        15.7500  18.2500  23.0000 Du        
   5009 ****        15.7500  18.2500  23.2500 Du        
   5010 ****        15.7500  18.2500  26.5000 Du        
   5011 ****        15.7500  18.2500  26.7500 Du        
   5012 ****        15.7500  18.2500  27.0000 Du        
   5013 ****        15.7500  18.2500  27.2500 Du        
   5014 ****        15.7500  18.2500  27.5000 Du        
   5015 ****        15.7500  18.2500  27.7500 Du        
   5016 ****        15.7500  18.2500  28.0000 Du        
   5017 ****        15.7500  18.2500  28.2500 Du        
   5018 ****        15.7500  18.2500  28.5000 Du        
   5019 ****        15.7500  18.5000  21.5000 Du        
   5020 ****        15.7500  18.5000  21.7500 Du        
   5021 ****        15.7500  18.5000  22.0000 Du        
   5022 ****        15.7500  18.5000  22.2500 Du        
   5023 ****        15.7500  18.5000  22.5000 Du        
   5024 ****        15.7500  18.5000  22.7500 Du        
   5025 ****        15.7500  18.5000  23.0000 Du        
   5026 ****        15.7500  18.5000  23.2500 Du        
   5027 ****        15.7500  18.5000  26.0000 Du        
   5028 ****        15.7500  18.5000  26.2500 Du        
   5029 ****        15.7500  18.5000  26.5000 Du        
   5030 ****        15.7500  18.5000  26.7500 Du        
   5031 ****        15.7500  18.5000  27.0000 Du        
   5032 ****        15.7500  18.5000  27.2500 Du        
   5033 ****        15.7500  18.5000  27.5000 Du        
   5034 ****        15.7500  18.5000  27.7500 Du        
   5035 ****        15.7500  18.5000  28.0000 Du        
   5036 ****        15.7500  18.5000  28.2500 Du        
   5037 ****        15.7500  18.5000  28.5000 Du        
   5038 ****        15.7500  18.5000  28.7500 Du        
   5039 ****        15.7500  18.7500  21.5000 Du        
   5040 ****        15.7500  18.7500  21.7500 Du        
   5041 ****        15.7500  18.7500  22.0000 Du        
   5042 ****        15.7500  18.7500  22.2500 Du        
   5043 ****        15.7500  18.7500  22.5000 Du        
   5044 ****        15.7500  18.7500  22.7500 Du        
   5045 ****        15.7500  18.7500  23.0000 Du        
   5046 ****        15.7500  18.7500  23.2500 Du        
   5047 ****        15.7500  18.7500  26.0000 Du        
   5048 ****        15.7500  18.7500  26.2500 Du        
   5049 ****        15.7500  18.7500  26.5000 Du        
   5050 ****        15.7500  18.7500  26.7500 Du        
   5051 ****        15.7500  18.7500  27.0000 Du        
   5052 ****        15.7500  18.7500  27.2500 Du        
   5053 ****        15.7500  18.7500  27.5000 Du        
   5054 ****        15.7500  18.7500  27.7500 Du        
   5055 ****        15.7500  18.7500  28.0000 Du        
   5056 ****        15.7500  18.7500  28.2500 Du        
   5057 ****        15.7500  18.7500  28.5000 Du        
   5058 ****        15.7500  18.7500  28.7500 Du        
   5059 ****        15.7500  19.0000  21.5000 Du        
   5060 ****        15.7500  19.0000  21.7500 Du        
   5061 ****        15.7500  19.0000  22.0000 Du        
   5062 ****        15.7500  19.0000  22.2500 Du        
   5063 ****        15.7500  19.0000  22.5000 Du        
   5064 ****        15.7500  19.0000  22.7500 Du        
   5065 ****        15.7500  19.0000  23.0000 Du        
   5066 ****        15.7500  19.0000  23.2500 Du        
   5067 ****        15.7500  19.0000  26.0000 Du        
   5068 ****        15.7500  19.0000  26.2500 Du        
   5069 ****        15.7500  19.0000  26.5000 Du        
   5070 ****        15.7500  19.0000  26.7500 Du        
   5071 ****        15.7500  19.0000  27.0000 Du        
   5072 ****        15.7500  19.0000  27.2500 Du        
   5073 ****        15.7500  19.0000  27.5000 Du        
   5074 ****        15.7500  19.0000  27.7500 Du        
   5075 ****        15.7500  19.0000  28.0000 Du        
   5076 ****        15.7500  19.0000  28.2500 Du        
   5077 ****        15.7500  19.0000  28.5000 Du        
   5078 ****        15.7500  19.2500  21.5000 Du        
   5079 ****        15.7500  19.2500  21.7500 Du        
   5080 ****        15.7500  19.2500  22.0000 Du        
   5081 ****        15.7500  19.2500  22.2500 Du        
   5082 ****        15.7500  19.2500  22.5000 Du        
   5083 ****        15.7500  19.2500  22.7500 Du        
   5084 ****        15.7500  19.2500  23.0000 Du        
   5085 ****        15.7500  19.2500  23.2500 Du        
   5086 ****        15.7500  19.2500  26.0000 Du        
   5087 ****        15.7500  19.2500  26.2500 Du        
   5088 ****        15.7500  19.2500  26.5000 Du        
   5089 ****        15.7500  19.2500  26.7500 Du        
   5090 ****        15.7500  19.2500  27.0000 Du        
   5091 ****        15.7500  19.2500  27.2500 Du        
   5092 ****        15.7500  19.2500  27.5000 Du        
   5093 ****        15.7500  19.2500  27.7500 Du        
   5094 ****        15.7500  19.2500  28.0000 Du        
   5095 ****        15.7500  19.5000  21.5000 Du        
   5096 ****        15.7500  19.5000  21.7500 Du        
   5097 ****        15.7500  19.5000  22.0000 Du        
   5098 ****        15.7500  19.5000  22.2500 Du        
   5099 ****        15.7500  19.5000  22.5000 Du        
   5100 ****        15.7500  19.5000  22.7500 Du        
   5101 ****        15.7500  19.5000  23.0000 Du        
   5102 ****        15.7500  19.5000  25.7500 Du        
   5103 ****        15.7500  19.5000  26.0000 Du        
   5104 ****        15.7500  19.5000  26.2500 Du        
   5105 ****        15.7500  19.5000  26.5000 Du        
   5106 ****        15.7500  19.5000  26.7500 Du        
   5107 ****        15.7500  19.5000  27.0000 Du        
   5108 ****        15.7500  19.5000  27.2500 Du        
   5109 ****        15.7500  19.5000  27.5000 Du        
   5110 ****        15.7500  19.7500  21.5000 Du        
   5111 ****        15.7500  19.7500  21.7500 Du        
   5112 ****        15.7500  19.7500  22.0000 Du        
   5113 ****        15.7500  19.7500  22.2500 Du        
   5114 ****        15.7500  19.7500  22.5000 Du        
   5115 ****        15.7500  19.7500  22.7500 Du        
   5116 ****        15.7500  19.7500  23.0000 Du        
   5117 ****        15.7500  19.7500  25.7500 Du        
   5118 ****        15.7500  19.7500  26.0000 Du        
   5119 ****        15.7500  19.7500  26.2500 Du        
   5120 ****        15.7500  19.7500  26.5000 Du        
   5121 ****        15.7500  19.7500  26.7500 Du        
   5122 ****        15.7500  19.7500  27.0000 Du        
   5123 ****        15.7500  19.7500  27.2500 Du        
   5124 ****        15.7500  20.0000  21.5000 Du        
   5125 ****        15.7500  20.0000  21.7500 Du        
   5126 ****        15.7500  20.0000  22.0000 Du        
   5127 ****        15.7500  20.0000  22.2500 Du        
   5128 ****        15.7500  20.0000  22.5000 Du        
   5129 ****        15.7500  20.0000  22.7500 Du        
   5130 ****        15.7500  20.0000  23.0000 Du        
   5131 ****        15.7500  20.0000  25.7500 Du        
   5132 ****        15.7500  20.0000  26.0000 Du        
   5133 ****        15.7500  20.0000  26.2500 Du        
   5134 ****        15.7500  20.0000  26.5000 Du        
   5135 ****        15.7500  20.0000  26.7500 Du        
   5136 ****        15.7500  20.0000  27.0000 Du        
   5137 ****        15.7500  20.2500  21.5000 Du        
   5138 ****        15.7500  20.2500  21.7500 Du        
   5139 ****        15.7500  20.2500  22.0000 Du        
   5140 ****        15.7500  20.2500  22.2500 Du        
   5141 ****        15.7500  20.2500  22.5000 Du        
   5142 ****        15.7500  20.2500  22.7500 Du        
   5143 ****        15.7500  20.2500  23.0000 Du        
   5144 ****        15.7500  20.2500  26.0000 Du        
   5145 ****        15.7500  20.2500  26.2500 Du        
   5146 ****        15.7500  20.2500  26.5000 Du        
   5147 ****        15.7500  20.5000  21.7500 Du        
   5148 ****        15.7500  20.5000  22.0000 Du        
   5149 ****        15.7500  20.5000  22.2500 Du        
   5150 ****        15.7500  20.5000  22.5000 Du        
   5151 ****        15.7500  20.5000  22.7500 Du        
   5152 ****        15.7500  20.7500  21.7500 Du        
   5153 ****        15.7500  20.7500  22.0000 Du        
   5154 ****        15.7500  20.7500  22.2500 Du        
   5155 ****        15.7500  20.7500  22.5000 Du        
   5156 ****        15.7500  20.7500  22.7500 Du        
   5157 ****        15.7500  21.0000  21.7500 Du        
   5158 ****        15.7500  21.0000  22.0000 Du        
   5159 ****        15.7500  21.0000  22.2500 Du        
   5160 ****        15.7500  21.0000  22.5000 Du        
   5161 ****        15.7500  21.0000  22.7500 Du        
   5162 ****        15.7500  21.2500  22.0000 Du        
   5163 ****        15.7500  21.2500  22.2500 Du        
   5164 ****        15.7500  21.2500  22.5000 Du        
   5165 ****        15.7500  21.2500  22.7500 Du        
   5166 ****        16.0000   9.2500  32.2500 Du        
   5167 ****        16.0000   9.2500  32.5000 Du        
   5168 ****        16.0000   9.5000  32.0000 Du        
   5169 ****        16.0000   9.5000  32.2500 Du        
   5170 ****        16.0000   9.5000  32.5000 Du        
   5171 ****        16.0000   9.7500  31.7500 Du        
   5172 ****        16.0000   9.7500  32.0000 Du        
   5173 ****        16.0000   9.7500  32.2500 Du        
   5174 ****        16.0000   9.7500  32.5000 Du        
   5175 ****        16.0000  10.0000  31.5000 Du        
   5176 ****        16.0000  10.0000  31.7500 Du        
   5177 ****        16.0000  10.0000  32.0000 Du        
   5178 ****        16.0000  10.0000  32.2500 Du        
   5179 ****        16.0000  10.2500  31.2500 Du        
   5180 ****        16.0000  10.2500  31.5000 Du        
   5181 ****        16.0000  10.2500  31.7500 Du        
   5182 ****        16.0000  10.2500  32.0000 Du        
   5183 ****        16.0000  10.5000  31.0000 Du        
   5184 ****        16.0000  10.5000  31.2500 Du        
   5185 ****        16.0000  10.5000  31.5000 Du        
   5186 ****        16.0000  10.5000  31.7500 Du        
   5187 ****        16.0000  10.7500  30.5000 Du        
   5188 ****        16.0000  10.7500  30.7500 Du        
   5189 ****        16.0000  10.7500  31.0000 Du        
   5190 ****        16.0000  10.7500  31.2500 Du        
   5191 ****        16.0000  10.7500  31.5000 Du        
   5192 ****        16.0000  11.0000  30.2500 Du        
   5193 ****        16.0000  11.0000  30.5000 Du        
   5194 ****        16.0000  11.0000  30.7500 Du        
   5195 ****        16.0000  11.0000  31.0000 Du        
   5196 ****        16.0000  11.0000  31.2500 Du        
   5197 ****        16.0000  11.0000  31.5000 Du        
   5198 ****        16.0000  11.2500  29.7500 Du        
   5199 ****        16.0000  11.2500  30.0000 Du        
   5200 ****        16.0000  11.2500  30.2500 Du        
   5201 ****        16.0000  11.2500  30.5000 Du        
   5202 ****        16.0000  11.2500  30.7500 Du        
   5203 ****        16.0000  11.2500  31.0000 Du        
   5204 ****        16.0000  11.2500  31.2500 Du        
   5205 ****        16.0000  11.5000  29.2500 Du        
   5206 ****        16.0000  11.5000  29.5000 Du        
   5207 ****        16.0000  11.5000  29.7500 Du        
   5208 ****        16.0000  11.5000  30.0000 Du        
   5209 ****        16.0000  11.5000  30.2500 Du        
   5210 ****        16.0000  11.5000  30.5000 Du        
   5211 ****        16.0000  11.5000  30.7500 Du        
   5212 ****        16.0000  11.5000  31.0000 Du        
   5213 ****        16.0000  11.5000  31.2500 Du        
   5214 ****        16.0000  11.7500  29.0000 Du        
   5215 ****        16.0000  11.7500  29.2500 Du        
   5216 ****        16.0000  11.7500  29.5000 Du        
   5217 ****        16.0000  11.7500  29.7500 Du        
   5218 ****        16.0000  11.7500  30.0000 Du        
   5219 ****        16.0000  11.7500  30.2500 Du        
   5220 ****        16.0000  11.7500  30.5000 Du        
   5221 ****        16.0000  11.7500  30.7500 Du        
   5222 ****        16.0000  11.7500  31.0000 Du        
   5223 ****        16.0000  12.0000  28.5000 Du        
   5224 ****        16.0000  12.0000  28.7500 Du        
   5225 ****        16.0000  12.0000  29.0000 Du        
   5226 ****        16.0000  12.0000  29.2500 Du        
   5227 ****        16.0000  12.0000  29.5000 Du        
   5228 ****        16.0000  12.0000  29.7500 Du        
   5229 ****        16.0000  12.0000  30.0000 Du        
   5230 ****        16.0000  12.0000  30.2500 Du        
   5231 ****        16.0000  12.0000  30.5000 Du        
   5232 ****        16.0000  12.0000  30.7500 Du        
   5233 ****        16.0000  12.2500  28.2500 Du        
   5234 ****        16.0000  12.2500  28.5000 Du        
   5235 ****        16.0000  12.2500  28.7500 Du        
   5236 ****        16.0000  12.2500  29.0000 Du        
   5237 ****        16.0000  12.2500  29.2500 Du        
   5238 ****        16.0000  12.2500  29.5000 Du        
   5239 ****        16.0000  12.2500  29.7500 Du        
   5240 ****        16.0000  12.2500  30.0000 Du        
   5241 ****        16.0000  12.2500  30.2500 Du        
   5242 ****        16.0000  12.5000  28.0000 Du        
   5243 ****        16.0000  12.5000  28.2500 Du        
   5244 ****        16.0000  12.5000  28.5000 Du        
   5245 ****        16.0000  12.5000  28.7500 Du        
   5246 ****        16.0000  12.5000  29.0000 Du        
   5247 ****        16.0000  12.5000  29.2500 Du        
   5248 ****        16.0000  12.5000  29.5000 Du        
   5249 ****        16.0000  12.5000  29.7500 Du        
   5250 ****        16.0000  12.5000  30.0000 Du        
   5251 ****        16.0000  12.7500  28.0000 Du        
   5252 ****        16.0000  12.7500  28.2500 Du        
   5253 ****        16.0000  12.7500  28.5000 Du        
   5254 ****        16.0000  12.7500  28.7500 Du        
   5255 ****        16.0000  12.7500  29.0000 Du        
   5256 ****        16.0000  12.7500  29.2500 Du        
   5257 ****        16.0000  12.7500  29.5000 Du        
   5258 ****        16.0000  12.7500  29.7500 Du        
   5259 ****        16.0000  13.0000  21.5000 Du        
   5260 ****        16.0000  13.0000  21.7500 Du        
   5261 ****        16.0000  13.0000  22.0000 Du        
   5262 ****        16.0000  13.0000  27.7500 Du        
   5263 ****        16.0000  13.0000  28.0000 Du        
   5264 ****        16.0000  13.0000  28.2500 Du        
   5265 ****        16.0000  13.0000  28.5000 Du        
   5266 ****        16.0000  13.0000  28.7500 Du        
   5267 ****        16.0000  13.0000  29.0000 Du        
   5268 ****        16.0000  13.0000  29.2500 Du        
   5269 ****        16.0000  13.0000  29.5000 Du        
   5270 ****        16.0000  13.2500  21.0000 Du        
   5271 ****        16.0000  13.2500  21.2500 Du        
   5272 ****        16.0000  13.2500  21.5000 Du        
   5273 ****        16.0000  13.2500  21.7500 Du        
   5274 ****        16.0000  13.2500  22.0000 Du        
   5275 ****        16.0000  13.2500  22.2500 Du        
   5276 ****        16.0000  13.2500  22.5000 Du        
   5277 ****        16.0000  13.2500  22.7500 Du        
   5278 ****        16.0000  13.2500  27.5000 Du        
   5279 ****        16.0000  13.2500  27.7500 Du        
   5280 ****        16.0000  13.2500  28.0000 Du        
   5281 ****        16.0000  13.2500  28.2500 Du        
   5282 ****        16.0000  13.2500  28.5000 Du        
   5283 ****        16.0000  13.5000  20.5000 Du        
   5284 ****        16.0000  13.5000  20.7500 Du        
   5285 ****        16.0000  13.5000  21.0000 Du        
   5286 ****        16.0000  13.5000  21.2500 Du        
   5287 ****        16.0000  13.5000  21.5000 Du        
   5288 ****        16.0000  13.5000  21.7500 Du        
   5289 ****        16.0000  13.5000  22.0000 Du        
   5290 ****        16.0000  13.5000  22.2500 Du        
   5291 ****        16.0000  13.5000  22.5000 Du        
   5292 ****        16.0000  13.5000  22.7500 Du        
   5293 ****        16.0000  13.5000  23.0000 Du        
   5294 ****        16.0000  13.5000  23.2500 Du        
   5295 ****        16.0000  13.5000  23.5000 Du        
   5296 ****        16.0000  13.5000  27.2500 Du        
   5297 ****        16.0000  13.5000  27.5000 Du        
   5298 ****        16.0000  13.5000  27.7500 Du        
   5299 ****        16.0000  13.5000  28.0000 Du        
   5300 ****        16.0000  13.7500  20.2500 Du        
   5301 ****        16.0000  13.7500  20.5000 Du        
   5302 ****        16.0000  13.7500  20.7500 Du        
   5303 ****        16.0000  13.7500  21.0000 Du        
   5304 ****        16.0000  13.7500  21.2500 Du        
   5305 ****        16.0000  13.7500  21.5000 Du        
   5306 ****        16.0000  13.7500  21.7500 Du        
   5307 ****        16.0000  13.7500  22.0000 Du        
   5308 ****        16.0000  13.7500  22.2500 Du        
   5309 ****        16.0000  13.7500  22.5000 Du        
   5310 ****        16.0000  13.7500  22.7500 Du        
   5311 ****        16.0000  13.7500  23.0000 Du        
   5312 ****        16.0000  13.7500  23.2500 Du        
   5313 ****        16.0000  13.7500  23.5000 Du        
   5314 ****        16.0000  13.7500  23.7500 Du        
   5315 ****        16.0000  13.7500  24.0000 Du        
   5316 ****        16.0000  13.7500  24.2500 Du        
   5317 ****        16.0000  13.7500  26.7500 Du        
   5318 ****        16.0000  13.7500  27.0000 Du        
   5319 ****        16.0000  13.7500  27.2500 Du        
   5320 ****        16.0000  13.7500  27.5000 Du        
   5321 ****        16.0000  13.7500  27.7500 Du        
   5322 ****        16.0000  14.0000  20.2500 Du        
   5323 ****        16.0000  14.0000  20.5000 Du        
   5324 ****        16.0000  14.0000  20.7500 Du        
   5325 ****        16.0000  14.0000  21.0000 Du        
   5326 ****        16.0000  14.0000  21.2500 Du        
   5327 ****        16.0000  14.0000  21.5000 Du        
   5328 ****        16.0000  14.0000  21.7500 Du        
   5329 ****        16.0000  14.0000  22.0000 Du        
   5330 ****        16.0000  14.0000  22.2500 Du        
   5331 ****        16.0000  14.0000  22.5000 Du        
   5332 ****        16.0000  14.0000  22.7500 Du        
   5333 ****        16.0000  14.0000  23.0000 Du        
   5334 ****        16.0000  14.0000  23.2500 Du        
   5335 ****        16.0000  14.0000  23.5000 Du        
   5336 ****        16.0000  14.0000  23.7500 Du        
   5337 ****        16.0000  14.0000  24.0000 Du        
   5338 ****        16.0000  14.0000  24.2500 Du        
   5339 ****        16.0000  14.0000  24.5000 Du        
   5340 ****        16.0000  14.0000  24.7500 Du        
   5341 ****        16.0000  14.0000  25.0000 Du        
   5342 ****        16.0000  14.0000  26.2500 Du        
   5343 ****        16.0000  14.0000  26.5000 Du        
   5344 ****        16.0000  14.0000  26.7500 Du        
   5345 ****        16.0000  14.0000  27.0000 Du        
   5346 ****        16.0000  14.0000  27.2500 Du        
   5347 ****        16.0000  14.0000  27.5000 Du        
   5348 ****        16.0000  14.2500  20.0000 Du        
   5349 ****        16.0000  14.2500  20.2500 Du        
   5350 ****        16.0000  14.2500  20.5000 Du        
   5351 ****        16.0000  14.2500  20.7500 Du        
   5352 ****        16.0000  14.2500  21.0000 Du        
   5353 ****        16.0000  14.2500  21.2500 Du        
   5354 ****        16.0000  14.2500  21.5000 Du        
   5355 ****        16.0000  14.2500  21.7500 Du        
   5356 ****        16.0000  14.2500  22.0000 Du        
   5357 ****        16.0000  14.2500  22.2500 Du        
   5358 ****        16.0000  14.2500  22.5000 Du        
   5359 ****        16.0000  14.2500  22.7500 Du        
   5360 ****        16.0000  14.2500  23.0000 Du        
   5361 ****        16.0000  14.2500  23.2500 Du        
   5362 ****        16.0000  14.2500  23.5000 Du        
   5363 ****        16.0000  14.2500  23.7500 Du        
   5364 ****        16.0000  14.2500  24.0000 Du        
   5365 ****        16.0000  14.2500  24.2500 Du        
   5366 ****        16.0000  14.2500  24.5000 Du        
   5367 ****        16.0000  14.2500  24.7500 Du        
   5368 ****        16.0000  14.2500  25.0000 Du        
   5369 ****        16.0000  14.2500  25.2500 Du        
   5370 ****        16.0000  14.2500  25.5000 Du        
   5371 ****        16.0000  14.2500  25.7500 Du        
   5372 ****        16.0000  14.2500  26.0000 Du        
   5373 ****        16.0000  14.2500  26.2500 Du        
   5374 ****        16.0000  14.2500  26.5000 Du        
   5375 ****        16.0000  14.2500  26.7500 Du        
   5376 ****        16.0000  14.2500  27.0000 Du        
   5377 ****        16.0000  14.2500  27.2500 Du        
   5378 ****        16.0000  14.5000  20.0000 Du        
   5379 ****        16.0000  14.5000  20.2500 Du        
   5380 ****        16.0000  14.5000  20.5000 Du        
   5381 ****        16.0000  14.5000  20.7500 Du        
   5382 ****        16.0000  14.5000  21.0000 Du        
   5383 ****        16.0000  14.5000  21.2500 Du        
   5384 ****        16.0000  14.5000  21.5000 Du        
   5385 ****        16.0000  14.5000  21.7500 Du        
   5386 ****        16.0000  14.5000  22.0000 Du        
   5387 ****        16.0000  14.5000  22.2500 Du        
   5388 ****        16.0000  14.5000  22.5000 Du        
   5389 ****        16.0000  14.5000  22.7500 Du        
   5390 ****        16.0000  14.5000  23.0000 Du        
   5391 ****        16.0000  14.5000  23.2500 Du        
   5392 ****        16.0000  14.5000  23.5000 Du        
   5393 ****        16.0000  14.5000  23.7500 Du        
   5394 ****        16.0000  14.5000  24.0000 Du        
   5395 ****        16.0000  14.5000  24.2500 Du        
   5396 ****        16.0000  14.5000  24.5000 Du        
   5397 ****        16.0000  14.5000  24.7500 Du        
   5398 ****        16.0000  14.5000  25.0000 Du        
   5399 ****        16.0000  14.5000  25.2500 Du        
   5400 ****        16.0000  14.5000  25.5000 Du        
   5401 ****        16.0000  14.5000  25.7500 Du        
   5402 ****        16.0000  14.5000  26.0000 Du        
   5403 ****        16.0000  14.5000  26.2500 Du        
   5404 ****        16.0000  14.5000  26.5000 Du        
   5405 ****        16.0000  14.5000  26.7500 Du        
   5406 ****        16.0000  14.5000  27.0000 Du        
   5407 ****        16.0000  14.5000  27.2500 Du        
   5408 ****        16.0000  14.7500  20.0000 Du        
   5409 ****        16.0000  14.7500  20.2500 Du        
   5410 ****        16.0000  14.7500  20.5000 Du        
   5411 ****        16.0000  14.7500  20.7500 Du        
   5412 ****        16.0000  14.7500  21.0000 Du        
   5413 ****        16.0000  14.7500  21.2500 Du        
   5414 ****        16.0000  14.7500  21.5000 Du        
   5415 ****        16.0000  14.7500  21.7500 Du        
   5416 ****        16.0000  14.7500  22.0000 Du        
   5417 ****        16.0000  14.7500  22.2500 Du        
   5418 ****        16.0000  14.7500  22.5000 Du        
   5419 ****        16.0000  14.7500  22.7500 Du        
   5420 ****        16.0000  14.7500  23.0000 Du        
   5421 ****        16.0000  14.7500  23.2500 Du        
   5422 ****        16.0000  14.7500  23.5000 Du        
   5423 ****        16.0000  14.7500  23.7500 Du        
   5424 ****        16.0000  14.7500  24.0000 Du        
   5425 ****        16.0000  14.7500  24.2500 Du        
   5426 ****        16.0000  14.7500  24.5000 Du        
   5427 ****        16.0000  14.7500  24.7500 Du        
   5428 ****        16.0000  14.7500  25.0000 Du        
   5429 ****        16.0000  14.7500  25.2500 Du        
   5430 ****        16.0000  14.7500  25.5000 Du        
   5431 ****        16.0000  14.7500  25.7500 Du        
   5432 ****        16.0000  14.7500  26.0000 Du        
   5433 ****        16.0000  14.7500  26.2500 Du        
   5434 ****        16.0000  14.7500  26.5000 Du        
   5435 ****        16.0000  14.7500  26.7500 Du        
   5436 ****        16.0000  14.7500  27.0000 Du        
   5437 ****        16.0000  15.0000  20.0000 Du        
   5438 ****        16.0000  15.0000  20.2500 Du        
   5439 ****        16.0000  15.0000  20.5000 Du        
   5440 ****        16.0000  15.0000  20.7500 Du        
   5441 ****        16.0000  15.0000  21.0000 Du        
   5442 ****        16.0000  15.0000  21.2500 Du        
   5443 ****        16.0000  15.0000  21.5000 Du        
   5444 ****        16.0000  15.0000  21.7500 Du        
   5445 ****        16.0000  15.0000  22.0000 Du        
   5446 ****        16.0000  15.0000  22.2500 Du        
   5447 ****        16.0000  15.0000  22.5000 Du        
   5448 ****        16.0000  15.0000  22.7500 Du        
   5449 ****        16.0000  15.0000  23.0000 Du        
   5450 ****        16.0000  15.0000  23.2500 Du        
   5451 ****        16.0000  15.0000  23.5000 Du        
   5452 ****        16.0000  15.0000  23.7500 Du        
   5453 ****        16.0000  15.0000  24.0000 Du        
   5454 ****        16.0000  15.0000  24.2500 Du        
   5455 ****        16.0000  15.0000  24.5000 Du        
   5456 ****        16.0000  15.0000  24.7500 Du        
   5457 ****        16.0000  15.0000  25.7500 Du        
   5458 ****        16.0000  15.0000  26.0000 Du        
   5459 ****        16.0000  15.0000  26.2500 Du        
   5460 ****        16.0000  15.0000  26.5000 Du        
   5461 ****        16.0000  15.0000  26.7500 Du        
   5462 ****        16.0000  15.0000  27.0000 Du        
   5463 ****        16.0000  15.2500  19.7500 Du        
   5464 ****        16.0000  15.2500  20.0000 Du        
   5465 ****        16.0000  15.2500  20.2500 Du        
   5466 ****        16.0000  15.2500  20.5000 Du        
   5467 ****        16.0000  15.2500  20.7500 Du        
   5468 ****        16.0000  15.2500  21.0000 Du        
   5469 ****        16.0000  15.2500  21.2500 Du        
   5470 ****        16.0000  15.2500  21.5000 Du        
   5471 ****        16.0000  15.2500  21.7500 Du        
   5472 ****        16.0000  15.2500  22.0000 Du        
   5473 ****        16.0000  15.2500  22.2500 Du        
   5474 ****        16.0000  15.2500  22.5000 Du        
   5475 ****        16.0000  15.2500  22.7500 Du        
   5476 ****        16.0000  15.2500  23.0000 Du        
   5477 ****        16.0000  15.2500  23.2500 Du        
   5478 ****        16.0000  15.2500  23.5000 Du        
   5479 ****        16.0000  15.2500  23.7500 Du        
   5480 ****        16.0000  15.2500  24.0000 Du        
   5481 ****        16.0000  15.2500  24.2500 Du        
   5482 ****        16.0000  15.5000  19.7500 Du        
   5483 ****        16.0000  15.5000  20.0000 Du        
   5484 ****        16.0000  15.5000  20.2500 Du        
   5485 ****        16.0000  15.5000  20.5000 Du        
   5486 ****        16.0000  15.5000  20.7500 Du        
   5487 ****        16.0000  15.5000  21.0000 Du        
   5488 ****        16.0000  15.5000  21.2500 Du        
   5489 ****        16.0000  15.5000  21.5000 Du        
   5490 ****        16.0000  15.5000  21.7500 Du        
   5491 ****        16.0000  15.5000  22.0000 Du        
   5492 ****        16.0000  15.5000  22.2500 Du        
   5493 ****        16.0000  15.5000  22.5000 Du        
   5494 ****        16.0000  15.5000  22.7500 Du        
   5495 ****        16.0000  15.5000  23.0000 Du        
   5496 ****        16.0000  15.5000  23.2500 Du        
   5497 ****        16.0000  15.5000  23.5000 Du        
   5498 ****        16.0000  15.5000  23.7500 Du        
   5499 ****        16.0000  15.5000  24.0000 Du        
   5500 ****        16.0000  15.7500  19.7500 Du        
   5501 ****        16.0000  15.7500  20.0000 Du        
   5502 ****        16.0000  15.7500  20.2500 Du        
   5503 ****        16.0000  15.7500  20.5000 Du        
   5504 ****        16.0000  15.7500  20.7500 Du        
   5505 ****        16.0000  15.7500  21.0000 Du        
   5506 ****        16.0000  15.7500  21.2500 Du        
   5507 ****        16.0000  15.7500  21.5000 Du        
   5508 ****        16.0000  15.7500  21.7500 Du        
   5509 ****        16.0000  15.7500  22.0000 Du        
   5510 ****        16.0000  15.7500  22.2500 Du        
   5511 ****        16.0000  15.7500  22.5000 Du        
   5512 ****        16.0000  15.7500  22.7500 Du        
   5513 ****        16.0000  15.7500  23.0000 Du        
   5514 ****        16.0000  15.7500  23.2500 Du        
   5515 ****        16.0000  15.7500  23.5000 Du        
   5516 ****        16.0000  15.7500  23.7500 Du        
   5517 ****        16.0000  16.0000  19.5000 Du        
   5518 ****        16.0000  16.0000  19.7500 Du        
   5519 ****        16.0000  16.0000  20.0000 Du        
   5520 ****        16.0000  16.0000  20.2500 Du        
   5521 ****        16.0000  16.0000  20.5000 Du        
   5522 ****        16.0000  16.0000  20.7500 Du        
   5523 ****        16.0000  16.0000  21.0000 Du        
   5524 ****        16.0000  16.0000  21.2500 Du        
   5525 ****        16.0000  16.0000  21.5000 Du        
   5526 ****        16.0000  16.0000  21.7500 Du        
   5527 ****        16.0000  16.0000  22.0000 Du        
   5528 ****        16.0000  16.0000  22.2500 Du        
   5529 ****        16.0000  16.0000  22.5000 Du        
   5530 ****        16.0000  16.0000  22.7500 Du        
   5531 ****        16.0000  16.0000  23.0000 Du        
   5532 ****        16.0000  16.0000  23.2500 Du        
   5533 ****        16.0000  16.0000  23.5000 Du        
   5534 ****        16.0000  16.2500  19.5000 Du        
   5535 ****        16.0000  16.2500  19.7500 Du        
   5536 ****        16.0000  16.2500  20.0000 Du        
   5537 ****        16.0000  16.2500  20.2500 Du        
   5538 ****        16.0000  16.2500  20.5000 Du        
   5539 ****        16.0000  16.2500  20.7500 Du        
   5540 ****        16.0000  16.2500  21.0000 Du        
   5541 ****        16.0000  16.2500  21.2500 Du        
   5542 ****        16.0000  16.2500  21.5000 Du        
   5543 ****        16.0000  16.2500  21.7500 Du        
   5544 ****        16.0000  16.2500  22.0000 Du        
   5545 ****        16.0000  16.2500  22.2500 Du        
   5546 ****        16.0000  16.2500  22.5000 Du        
   5547 ****        16.0000  16.2500  22.7500 Du        
   5548 ****        16.0000  16.2500  23.0000 Du        
   5549 ****        16.0000  16.2500  23.2500 Du        
   5550 ****        16.0000  16.5000  19.7500 Du        
   5551 ****        16.0000  16.5000  20.0000 Du        
   5552 ****        16.0000  16.5000  20.2500 Du        
   5553 ****        16.0000  16.5000  20.5000 Du        
   5554 ****        16.0000  16.5000  20.7500 Du        
   5555 ****        16.0000  16.5000  21.0000 Du        
   5556 ****        16.0000  16.5000  21.2500 Du        
   5557 ****        16.0000  16.5000  21.5000 Du        
   5558 ****        16.0000  16.5000  21.7500 Du        
   5559 ****        16.0000  16.5000  22.0000 Du        
   5560 ****        16.0000  16.5000  22.2500 Du        
   5561 ****        16.0000  16.5000  22.5000 Du        
   5562 ****        16.0000  16.5000  22.7500 Du        
   5563 ****        16.0000  16.5000  23.0000 Du        
   5564 ****        16.0000  16.5000  23.2500 Du        
   5565 ****        16.0000  16.7500  20.0000 Du        
   5566 ****        16.0000  16.7500  20.2500 Du        
   5567 ****        16.0000  16.7500  20.5000 Du        
   5568 ****        16.0000  16.7500  20.7500 Du        
   5569 ****        16.0000  16.7500  21.0000 Du        
   5570 ****        16.0000  16.7500  21.2500 Du        
   5571 ****        16.0000  16.7500  21.5000 Du        
   5572 ****        16.0000  16.7500  21.7500 Du        
   5573 ****        16.0000  16.7500  22.0000 Du        
   5574 ****        16.0000  16.7500  22.2500 Du        
   5575 ****        16.0000  16.7500  22.5000 Du        
   5576 ****        16.0000  16.7500  22.7500 Du        
   5577 ****        16.0000  16.7500  23.0000 Du        
   5578 ****        16.0000  16.7500  23.2500 Du        
   5579 ****        16.0000  17.0000  20.2500 Du        
   5580 ****        16.0000  17.0000  20.5000 Du        
   5581 ****        16.0000  17.0000  20.7500 Du        
   5582 ****        16.0000  17.0000  21.0000 Du        
   5583 ****        16.0000  17.0000  21.2500 Du        
   5584 ****        16.0000  17.0000  21.5000 Du        
   5585 ****        16.0000  17.0000  21.7500 Du        
   5586 ****        16.0000  17.0000  22.0000 Du        
   5587 ****        16.0000  17.0000  22.2500 Du        
   5588 ****        16.0000  17.0000  22.5000 Du        
   5589 ****        16.0000  17.0000  22.7500 Du        
   5590 ****        16.0000  17.0000  23.0000 Du        
   5591 ****        16.0000  17.0000  23.2500 Du        
   5592 ****        16.0000  17.2500  20.7500 Du        
   5593 ****        16.0000  17.2500  21.0000 Du        
   5594 ****        16.0000  17.2500  21.2500 Du        
   5595 ****        16.0000  17.2500  21.5000 Du        
   5596 ****        16.0000  17.2500  21.7500 Du        
   5597 ****        16.0000  17.2500  22.0000 Du        
   5598 ****        16.0000  17.2500  22.2500 Du        
   5599 ****        16.0000  17.2500  22.5000 Du        
   5600 ****        16.0000  17.2500  22.7500 Du        
   5601 ****        16.0000  17.2500  23.0000 Du        
   5602 ****        16.0000  17.2500  23.2500 Du        
   5603 ****        16.0000  17.2500  27.2500 Du        
   5604 ****        16.0000  17.2500  27.5000 Du        
   5605 ****        16.0000  17.2500  27.7500 Du        
   5606 ****        16.0000  17.5000  21.0000 Du        
   5607 ****        16.0000  17.5000  21.2500 Du        
   5608 ****        16.0000  17.5000  21.5000 Du        
   5609 ****        16.0000  17.5000  21.7500 Du        
   5610 ****        16.0000  17.5000  22.0000 Du        
   5611 ****        16.0000  17.5000  22.2500 Du        
   5612 ****        16.0000  17.5000  22.5000 Du        
   5613 ****        16.0000  17.5000  22.7500 Du        
   5614 ****        16.0000  17.5000  23.0000 Du        
   5615 ****        16.0000  17.5000  23.2500 Du        
   5616 ****        16.0000  17.5000  27.2500 Du        
   5617 ****        16.0000  17.5000  27.5000 Du        
   5618 ****        16.0000  17.5000  27.7500 Du        
   5619 ****        16.0000  17.5000  28.0000 Du        
   5620 ****        16.0000  17.7500  21.2500 Du        
   5621 ****        16.0000  17.7500  21.5000 Du        
   5622 ****        16.0000  17.7500  21.7500 Du        
   5623 ****        16.0000  17.7500  22.0000 Du        
   5624 ****        16.0000  17.7500  22.2500 Du        
   5625 ****        16.0000  17.7500  22.5000 Du        
   5626 ****        16.0000  17.7500  22.7500 Du        
   5627 ****        16.0000  17.7500  23.0000 Du        
   5628 ****        16.0000  17.7500  23.2500 Du        
   5629 ****        16.0000  17.7500  27.0000 Du        
   5630 ****        16.0000  17.7500  27.2500 Du        
   5631 ****        16.0000  17.7500  27.5000 Du        
   5632 ****        16.0000  17.7500  27.7500 Du        
   5633 ****        16.0000  17.7500  28.0000 Du        
   5634 ****        16.0000  17.7500  28.2500 Du        
   5635 ****        16.0000  18.0000  21.2500 Du        
   5636 ****        16.0000  18.0000  21.5000 Du        
   5637 ****        16.0000  18.0000  21.7500 Du        
   5638 ****        16.0000  18.0000  22.0000 Du        
   5639 ****        16.0000  18.0000  22.2500 Du        
   5640 ****        16.0000  18.0000  22.5000 Du        
   5641 ****        16.0000  18.0000  22.7500 Du        
   5642 ****        16.0000  18.0000  23.0000 Du        
   5643 ****        16.0000  18.0000  23.2500 Du        
   5644 ****        16.0000  18.0000  27.0000 Du        
   5645 ****        16.0000  18.0000  27.2500 Du        
   5646 ****        16.0000  18.0000  27.5000 Du        
   5647 ****        16.0000  18.0000  27.7500 Du        
   5648 ****        16.0000  18.0000  28.0000 Du        
   5649 ****        16.0000  18.0000  28.2500 Du        
   5650 ****        16.0000  18.0000  28.5000 Du        
   5651 ****        16.0000  18.2500  21.5000 Du        
   5652 ****        16.0000  18.2500  21.7500 Du        
   5653 ****        16.0000  18.2500  22.0000 Du        
   5654 ****        16.0000  18.2500  22.2500 Du        
   5655 ****        16.0000  18.2500  22.5000 Du        
   5656 ****        16.0000  18.2500  22.7500 Du        
   5657 ****        16.0000  18.2500  23.0000 Du        
   5658 ****        16.0000  18.2500  23.2500 Du        
   5659 ****        16.0000  18.2500  26.7500 Du        
   5660 ****        16.0000  18.2500  27.0000 Du        
   5661 ****        16.0000  18.2500  27.2500 Du        
   5662 ****        16.0000  18.2500  27.5000 Du        
   5663 ****        16.0000  18.2500  27.7500 Du        
   5664 ****        16.0000  18.2500  28.0000 Du        
   5665 ****        16.0000  18.2500  28.2500 Du        
   5666 ****        16.0000  18.2500  28.5000 Du        
   5667 ****        16.0000  18.5000  21.7500 Du        
   5668 ****        16.0000  18.5000  22.0000 Du        
   5669 ****        16.0000  18.5000  22.2500 Du        
   5670 ****        16.0000  18.5000  22.5000 Du        
   5671 ****        16.0000  18.5000  22.7500 Du        
   5672 ****        16.0000  18.5000  23.0000 Du        
   5673 ****        16.0000  18.5000  23.2500 Du        
   5674 ****        16.0000  18.5000  26.5000 Du        
   5675 ****        16.0000  18.5000  26.7500 Du        
   5676 ****        16.0000  18.5000  27.0000 Du        
   5677 ****        16.0000  18.5000  27.2500 Du        
   5678 ****        16.0000  18.5000  27.5000 Du        
   5679 ****        16.0000  18.5000  27.7500 Du        
   5680 ****        16.0000  18.5000  28.0000 Du        
   5681 ****        16.0000  18.5000  28.2500 Du        
   5682 ****        16.0000  18.5000  28.5000 Du        
   5683 ****        16.0000  18.5000  28.7500 Du        
   5684 ****        16.0000  18.7500  21.7500 Du        
   5685 ****        16.0000  18.7500  22.0000 Du        
   5686 ****        16.0000  18.7500  22.2500 Du        
   5687 ****        16.0000  18.7500  22.5000 Du        
   5688 ****        16.0000  18.7500  22.7500 Du        
   5689 ****        16.0000  18.7500  23.0000 Du        
   5690 ****        16.0000  18.7500  23.2500 Du        
   5691 ****        16.0000  18.7500  26.2500 Du        
   5692 ****        16.0000  18.7500  26.5000 Du        
   5693 ****        16.0000  18.7500  26.7500 Du        
   5694 ****        16.0000  18.7500  27.0000 Du        
   5695 ****        16.0000  18.7500  27.2500 Du        
   5696 ****        16.0000  18.7500  27.5000 Du        
   5697 ****        16.0000  18.7500  27.7500 Du        
   5698 ****        16.0000  18.7500  28.0000 Du        
   5699 ****        16.0000  18.7500  28.2500 Du        
   5700 ****        16.0000  18.7500  28.5000 Du        
   5701 ****        16.0000  18.7500  28.7500 Du        
   5702 ****        16.0000  19.0000  21.7500 Du        
   5703 ****        16.0000  19.0000  22.0000 Du        
   5704 ****        16.0000  19.0000  22.2500 Du        
   5705 ****        16.0000  19.0000  22.5000 Du        
   5706 ****        16.0000  19.0000  22.7500 Du        
   5707 ****        16.0000  19.0000  23.0000 Du        
   5708 ****        16.0000  19.0000  23.2500 Du        
   5709 ****        16.0000  19.0000  26.0000 Du        
   5710 ****        16.0000  19.0000  26.2500 Du        
   5711 ****        16.0000  19.0000  26.5000 Du        
   5712 ****        16.0000  19.0000  26.7500 Du        
   5713 ****        16.0000  19.0000  27.0000 Du        
   5714 ****        16.0000  19.0000  27.2500 Du        
   5715 ****        16.0000  19.0000  27.5000 Du        
   5716 ****        16.0000  19.0000  27.7500 Du        
   5717 ****        16.0000  19.0000  28.0000 Du        
   5718 ****        16.0000  19.0000  28.2500 Du        
   5719 ****        16.0000  19.0000  28.5000 Du        
   5720 ****        16.0000  19.2500  21.7500 Du        
   5721 ****        16.0000  19.2500  22.0000 Du        
   5722 ****        16.0000  19.2500  22.2500 Du        
   5723 ****        16.0000  19.2500  22.5000 Du        
   5724 ****        16.0000  19.2500  22.7500 Du        
   5725 ****        16.0000  19.2500  23.0000 Du        
   5726 ****        16.0000  19.2500  23.2500 Du        
   5727 ****        16.0000  19.2500  26.0000 Du        
   5728 ****        16.0000  19.2500  26.2500 Du        
   5729 ****        16.0000  19.2500  26.5000 Du        
   5730 ****        16.0000  19.2500  26.7500 Du        
   5731 ****        16.0000  19.2500  27.0000 Du        
   5732 ****        16.0000  19.2500  27.2500 Du        
   5733 ****        16.0000  19.2500  27.5000 Du        
   5734 ****        16.0000  19.2500  27.7500 Du        
   5735 ****        16.0000  19.5000  21.7500 Du        
   5736 ****        16.0000  19.5000  22.0000 Du        
   5737 ****        16.0000  19.5000  22.2500 Du        
   5738 ****        16.0000  19.5000  22.5000 Du        
   5739 ****        16.0000  19.5000  22.7500 Du        
   5740 ****        16.0000  19.5000  23.0000 Du        
   5741 ****        16.0000  19.5000  23.2500 Du        
   5742 ****        16.0000  19.5000  26.0000 Du        
   5743 ****        16.0000  19.5000  26.2500 Du        
   5744 ****        16.0000  19.5000  26.5000 Du        
   5745 ****        16.0000  19.5000  26.7500 Du        
   5746 ****        16.0000  19.5000  27.0000 Du        
   5747 ****        16.0000  19.5000  27.2500 Du        
   5748 ****        16.0000  19.5000  27.5000 Du        
   5749 ****        16.0000  19.7500  21.7500 Du        
   5750 ****        16.0000  19.7500  22.0000 Du        
   5751 ****        16.0000  19.7500  22.2500 Du        
   5752 ****        16.0000  19.7500  22.5000 Du        
   5753 ****        16.0000  19.7500  22.7500 Du        
   5754 ****        16.0000  19.7500  23.0000 Du        
   5755 ****        16.0000  19.7500  23.2500 Du        
   5756 ****        16.0000  19.7500  26.0000 Du        
   5757 ****        16.0000  19.7500  26.2500 Du        
   5758 ****        16.0000  19.7500  26.5000 Du        
   5759 ****        16.0000  19.7500  26.7500 Du        
   5760 ****        16.0000  19.7500  27.0000 Du        
   5761 ****        16.0000  19.7500  27.2500 Du        
   5762 ****        16.0000  20.0000  21.7500 Du        
   5763 ****        16.0000  20.0000  22.0000 Du        
   5764 ****        16.0000  20.0000  22.2500 Du        
   5765 ****        16.0000  20.0000  22.5000 Du        
   5766 ****        16.0000  20.0000  22.7500 Du        
   5767 ****        16.0000  20.0000  23.0000 Du        
   5768 ****        16.0000  20.0000  23.2500 Du        
   5769 ****        16.0000  20.0000  26.0000 Du        
   5770 ****        16.0000  20.0000  26.2500 Du        
   5771 ****        16.0000  20.0000  26.5000 Du        
   5772 ****        16.0000  20.0000  26.7500 Du        
   5773 ****        16.0000  20.2500  21.7500 Du        
   5774 ****        16.0000  20.2500  22.0000 Du        
   5775 ****        16.0000  20.2500  22.2500 Du        
   5776 ****        16.0000  20.2500  22.5000 Du        
   5777 ****        16.0000  20.2500  22.7500 Du        
   5778 ****        16.0000  20.2500  23.0000 Du        
   5779 ****        16.0000  20.2500  23.2500 Du        
   5780 ****        16.0000  20.2500  26.0000 Du        
   5781 ****        16.0000  20.2500  26.2500 Du        
   5782 ****        16.0000  20.2500  26.5000 Du        
   5783 ****        16.0000  20.5000  21.7500 Du        
   5784 ****        16.0000  20.5000  22.0000 Du        
   5785 ****        16.0000  20.5000  22.2500 Du        
   5786 ****        16.0000  20.5000  22.5000 Du        
   5787 ****        16.0000  20.5000  22.7500 Du        
   5788 ****        16.0000  20.5000  23.0000 Du        
   5789 ****        16.0000  20.7500  21.7500 Du        
   5790 ****        16.0000  20.7500  22.0000 Du        
   5791 ****        16.0000  20.7500  22.2500 Du        
   5792 ****        16.0000  20.7500  22.5000 Du        
   5793 ****        16.0000  20.7500  22.7500 Du        
   5794 ****        16.0000  20.7500  23.0000 Du        
   5795 ****        16.0000  21.0000  21.7500 Du        
   5796 ****        16.0000  21.0000  22.0000 Du        
   5797 ****        16.0000  21.0000  22.2500 Du        
   5798 ****        16.0000  21.0000  22.5000 Du        
   5799 ****        16.0000  21.0000  22.7500 Du        
   5800 ****        16.0000  21.0000  23.0000 Du        
   5801 ****        16.0000  21.2500  22.0000 Du        
   5802 ****        16.0000  21.2500  22.2500 Du        
   5803 ****        16.0000  21.2500  22.5000 Du        
   5804 ****        16.0000  21.2500  22.7500 Du        
   5805 ****        16.0000  21.2500  23.0000 Du        
   5806 ****        16.0000  21.5000  22.2500 Du        
   5807 ****        16.2500   9.2500  32.0000 Du        
   5808 ****        16.2500   9.2500  32.2500 Du        
   5809 ****        16.2500   9.2500  32.5000 Du        
   5810 ****        16.2500   9.5000  31.7500 Du        
   5811 ****        16.2500   9.5000  32.0000 Du        
   5812 ****        16.2500   9.5000  32.2500 Du        
   5813 ****        16.2500   9.5000  32.5000 Du        
   5814 ****        16.2500   9.5000  32.7500 Du        
   5815 ****        16.2500   9.7500  31.5000 Du        
   5816 ****        16.2500   9.7500  31.7500 Du        
   5817 ****        16.2500   9.7500  32.0000 Du        
   5818 ****        16.2500   9.7500  32.2500 Du        
   5819 ****        16.2500   9.7500  32.5000 Du        
   5820 ****        16.2500  10.0000  31.2500 Du        
   5821 ****        16.2500  10.0000  31.5000 Du        
   5822 ****        16.2500  10.0000  31.7500 Du        
   5823 ****        16.2500  10.0000  32.0000 Du        
   5824 ****        16.2500  10.0000  32.2500 Du        
   5825 ****        16.2500  10.2500  31.0000 Du        
   5826 ****        16.2500  10.2500  31.2500 Du        
   5827 ****        16.2500  10.2500  31.5000 Du        
   5828 ****        16.2500  10.2500  31.7500 Du        
   5829 ****        16.2500  10.2500  32.0000 Du        
   5830 ****        16.2500  10.5000  30.7500 Du        
   5831 ****        16.2500  10.5000  31.0000 Du        
   5832 ****        16.2500  10.5000  31.2500 Du        
   5833 ****        16.2500  10.5000  31.5000 Du        
   5834 ****        16.2500  10.5000  31.7500 Du        
   5835 ****        16.2500  10.7500  30.5000 Du        
   5836 ****        16.2500  10.7500  30.7500 Du        
   5837 ****        16.2500  10.7500  31.0000 Du        
   5838 ****        16.2500  10.7500  31.2500 Du        
   5839 ****        16.2500  10.7500  31.5000 Du        
   5840 ****        16.2500  10.7500  31.7500 Du        
   5841 ****        16.2500  11.0000  30.0000 Du        
   5842 ****        16.2500  11.0000  30.2500 Du        
   5843 ****        16.2500  11.0000  30.5000 Du        
   5844 ****        16.2500  11.0000  30.7500 Du        
   5845 ****        16.2500  11.0000  31.0000 Du        
   5846 ****        16.2500  11.0000  31.2500 Du        
   5847 ****        16.2500  11.0000  31.5000 Du        
   5848 ****        16.2500  11.2500  29.7500 Du        
   5849 ****        16.2500  11.2500  30.0000 Du        
   5850 ****        16.2500  11.2500  30.2500 Du        
   5851 ****        16.2500  11.2500  30.5000 Du        
   5852 ****        16.2500  11.2500  30.7500 Du        
   5853 ****        16.2500  11.2500  31.0000 Du        
   5854 ****        16.2500  11.2500  31.2500 Du        
   5855 ****        16.2500  11.5000  29.2500 Du        
   5856 ****        16.2500  11.5000  29.5000 Du        
   5857 ****        16.2500  11.5000  29.7500 Du        
   5858 ****        16.2500  11.5000  30.0000 Du        
   5859 ****        16.2500  11.5000  30.2500 Du        
   5860 ****        16.2500  11.5000  30.5000 Du        
   5861 ****        16.2500  11.5000  30.7500 Du        
   5862 ****        16.2500  11.5000  31.0000 Du        
   5863 ****        16.2500  11.5000  31.2500 Du        
   5864 ****        16.2500  11.7500  29.0000 Du        
   5865 ****        16.2500  11.7500  29.2500 Du        
   5866 ****        16.2500  11.7500  29.5000 Du        
   5867 ****        16.2500  11.7500  29.7500 Du        
   5868 ****        16.2500  11.7500  30.0000 Du        
   5869 ****        16.2500  11.7500  30.2500 Du        
   5870 ****        16.2500  11.7500  30.5000 Du        
   5871 ****        16.2500  11.7500  30.7500 Du        
   5872 ****        16.2500  11.7500  31.0000 Du        
   5873 ****        16.2500  12.0000  28.7500 Du        
   5874 ****        16.2500  12.0000  29.0000 Du        
   5875 ****        16.2500  12.0000  29.2500 Du        
   5876 ****        16.2500  12.0000  29.5000 Du        
   5877 ****        16.2500  12.0000  29.7500 Du        
   5878 ****        16.2500  12.0000  30.0000 Du        
   5879 ****        16.2500  12.0000  30.2500 Du        
   5880 ****        16.2500  12.0000  30.5000 Du        
   5881 ****        16.2500  12.0000  30.7500 Du        
   5882 ****        16.2500  12.2500  28.2500 Du        
   5883 ****        16.2500  12.2500  28.5000 Du        
   5884 ****        16.2500  12.2500  28.7500 Du        
   5885 ****        16.2500  12.2500  29.0000 Du        
   5886 ****        16.2500  12.2500  29.2500 Du        
   5887 ****        16.2500  12.2500  29.5000 Du        
   5888 ****        16.2500  12.2500  29.7500 Du        
   5889 ****        16.2500  12.2500  30.0000 Du        
   5890 ****        16.2500  12.2500  30.2500 Du        
   5891 ****        16.2500  12.5000  28.0000 Du        
   5892 ****        16.2500  12.5000  28.2500 Du        
   5893 ****        16.2500  12.5000  28.5000 Du        
   5894 ****        16.2500  12.5000  28.7500 Du        
   5895 ****        16.2500  12.5000  29.0000 Du        
   5896 ****        16.2500  12.5000  29.2500 Du        
   5897 ****        16.2500  12.5000  29.5000 Du        
   5898 ****        16.2500  12.5000  29.7500 Du        
   5899 ****        16.2500  12.5000  30.0000 Du        
   5900 ****        16.2500  12.7500  27.7500 Du        
   5901 ****        16.2500  12.7500  28.0000 Du        
   5902 ****        16.2500  12.7500  28.2500 Du        
   5903 ****        16.2500  12.7500  28.5000 Du        
   5904 ****        16.2500  12.7500  28.7500 Du        
   5905 ****        16.2500  12.7500  29.0000 Du        
   5906 ****        16.2500  12.7500  29.2500 Du        
   5907 ****        16.2500  12.7500  29.5000 Du        
   5908 ****        16.2500  12.7500  29.7500 Du        
   5909 ****        16.2500  12.7500  30.0000 Du        
   5910 ****        16.2500  13.0000  21.5000 Du        
   5911 ****        16.2500  13.0000  21.7500 Du        
   5912 ****        16.2500  13.0000  22.0000 Du        
   5913 ****        16.2500  13.0000  27.5000 Du        
   5914 ****        16.2500  13.0000  27.7500 Du        
   5915 ****        16.2500  13.0000  28.0000 Du        
   5916 ****        16.2500  13.0000  28.2500 Du        
   5917 ****        16.2500  13.0000  28.5000 Du        
   5918 ****        16.2500  13.0000  28.7500 Du        
   5919 ****        16.2500  13.0000  29.0000 Du        
   5920 ****        16.2500  13.0000  29.2500 Du        
   5921 ****        16.2500  13.0000  29.5000 Du        
   5922 ****        16.2500  13.0000  29.7500 Du        
   5923 ****        16.2500  13.2500  21.0000 Du        
   5924 ****        16.2500  13.2500  21.2500 Du        
   5925 ****        16.2500  13.2500  21.5000 Du        
   5926 ****        16.2500  13.2500  21.7500 Du        
   5927 ****        16.2500  13.2500  22.0000 Du        
   5928 ****        16.2500  13.2500  22.2500 Du        
   5929 ****        16.2500  13.2500  22.5000 Du        
   5930 ****        16.2500  13.2500  27.2500 Du        
   5931 ****        16.2500  13.2500  27.5000 Du        
   5932 ****        16.2500  13.2500  27.7500 Du        
   5933 ****        16.2500  13.2500  28.0000 Du        
   5934 ****        16.2500  13.2500  28.2500 Du        
   5935 ****        16.2500  13.2500  28.5000 Du        
   5936 ****        16.2500  13.2500  28.7500 Du        
   5937 ****        16.2500  13.2500  29.0000 Du        
   5938 ****        16.2500  13.2500  29.2500 Du        
   5939 ****        16.2500  13.5000  20.5000 Du        
   5940 ****        16.2500  13.5000  20.7500 Du        
   5941 ****        16.2500  13.5000  21.0000 Du        
   5942 ****        16.2500  13.5000  21.2500 Du        
   5943 ****        16.2500  13.5000  21.5000 Du        
   5944 ****        16.2500  13.5000  21.7500 Du        
   5945 ****        16.2500  13.5000  22.0000 Du        
   5946 ****        16.2500  13.5000  22.2500 Du        
   5947 ****        16.2500  13.5000  22.5000 Du        
   5948 ****        16.2500  13.5000  22.7500 Du        
   5949 ****        16.2500  13.5000  23.0000 Du        
   5950 ****        16.2500  13.5000  27.0000 Du        
   5951 ****        16.2500  13.5000  27.2500 Du        
   5952 ****        16.2500  13.5000  27.5000 Du        
   5953 ****        16.2500  13.5000  27.7500 Du        
   5954 ****        16.2500  13.5000  28.0000 Du        
   5955 ****        16.2500  13.5000  28.2500 Du        
   5956 ****        16.2500  13.5000  28.5000 Du        
   5957 ****        16.2500  13.7500  20.5000 Du        
   5958 ****        16.2500  13.7500  20.7500 Du        
   5959 ****        16.2500  13.7500  21.0000 Du        
   5960 ****        16.2500  13.7500  21.2500 Du        
   5961 ****        16.2500  13.7500  21.5000 Du        
   5962 ****        16.2500  13.7500  21.7500 Du        
   5963 ****        16.2500  13.7500  22.0000 Du        
   5964 ****        16.2500  13.7500  22.2500 Du        
   5965 ****        16.2500  13.7500  22.5000 Du        
   5966 ****        16.2500  13.7500  22.7500 Du        
   5967 ****        16.2500  13.7500  23.0000 Du        
   5968 ****        16.2500  13.7500  23.2500 Du        
   5969 ****        16.2500  13.7500  23.5000 Du        
   5970 ****        16.2500  13.7500  23.7500 Du        
   5971 ****        16.2500  13.7500  26.7500 Du        
   5972 ****        16.2500  13.7500  27.0000 Du        
   5973 ****        16.2500  13.7500  27.2500 Du        
   5974 ****        16.2500  13.7500  27.5000 Du        
   5975 ****        16.2500  13.7500  27.7500 Du        
   5976 ****        16.2500  13.7500  28.0000 Du        
   5977 ****        16.2500  13.7500  28.2500 Du        
   5978 ****        16.2500  14.0000  20.2500 Du        
   5979 ****        16.2500  14.0000  20.5000 Du        
   5980 ****        16.2500  14.0000  20.7500 Du        
   5981 ****        16.2500  14.0000  21.0000 Du        
   5982 ****        16.2500  14.0000  21.2500 Du        
   5983 ****        16.2500  14.0000  21.5000 Du        
   5984 ****        16.2500  14.0000  21.7500 Du        
   5985 ****        16.2500  14.0000  22.0000 Du        
   5986 ****        16.2500  14.0000  22.2500 Du        
   5987 ****        16.2500  14.0000  22.5000 Du        
   5988 ****        16.2500  14.0000  22.7500 Du        
   5989 ****        16.2500  14.0000  23.0000 Du        
   5990 ****        16.2500  14.0000  23.2500 Du        
   5991 ****        16.2500  14.0000  23.5000 Du        
   5992 ****        16.2500  14.0000  23.7500 Du        
   5993 ****        16.2500  14.0000  24.0000 Du        
   5994 ****        16.2500  14.0000  24.2500 Du        
   5995 ****        16.2500  14.0000  26.5000 Du        
   5996 ****        16.2500  14.0000  26.7500 Du        
   5997 ****        16.2500  14.0000  27.0000 Du        
   5998 ****        16.2500  14.0000  27.2500 Du        
   5999 ****        16.2500  14.0000  27.5000 Du        
   6000 ****        16.2500  14.0000  27.7500 Du        
   6001 ****        16.2500  14.2500  20.2500 Du        
   6002 ****        16.2500  14.2500  20.5000 Du        
   6003 ****        16.2500  14.2500  20.7500 Du        
   6004 ****        16.2500  14.2500  21.0000 Du        
   6005 ****        16.2500  14.2500  21.2500 Du        
   6006 ****        16.2500  14.2500  21.5000 Du        
   6007 ****        16.2500  14.2500  21.7500 Du        
   6008 ****        16.2500  14.2500  22.0000 Du        
   6009 ****        16.2500  14.2500  22.2500 Du        
   6010 ****        16.2500  14.2500  22.5000 Du        
   6011 ****        16.2500  14.2500  22.7500 Du        
   6012 ****        16.2500  14.2500  23.0000 Du        
   6013 ****        16.2500  14.2500  23.2500 Du        
   6014 ****        16.2500  14.2500  23.5000 Du        
   6015 ****        16.2500  14.2500  23.7500 Du        
   6016 ****        16.2500  14.2500  24.0000 Du        
   6017 ****        16.2500  14.2500  24.2500 Du        
   6018 ****        16.2500  14.2500  24.5000 Du        
   6019 ****        16.2500  14.2500  26.5000 Du        
   6020 ****        16.2500  14.2500  26.7500 Du        
   6021 ****        16.2500  14.2500  27.0000 Du        
   6022 ****        16.2500  14.2500  27.2500 Du        
   6023 ****        16.2500  14.2500  27.5000 Du        
   6024 ****        16.2500  14.5000  20.2500 Du        
   6025 ****        16.2500  14.5000  20.5000 Du        
   6026 ****        16.2500  14.5000  20.7500 Du        
   6027 ****        16.2500  14.5000  21.0000 Du        
   6028 ****        16.2500  14.5000  21.2500 Du        
   6029 ****        16.2500  14.5000  21.5000 Du        
   6030 ****        16.2500  14.5000  21.7500 Du        
   6031 ****        16.2500  14.5000  22.0000 Du        
   6032 ****        16.2500  14.5000  22.2500 Du        
   6033 ****        16.2500  14.5000  22.5000 Du        
   6034 ****        16.2500  14.5000  22.7500 Du        
   6035 ****        16.2500  14.5000  23.0000 Du        
   6036 ****        16.2500  14.5000  23.2500 Du        
   6037 ****        16.2500  14.5000  23.5000 Du        
   6038 ****        16.2500  14.5000  23.7500 Du        
   6039 ****        16.2500  14.5000  24.0000 Du        
   6040 ****        16.2500  14.5000  24.2500 Du        
   6041 ****        16.2500  14.5000  26.7500 Du        
   6042 ****        16.2500  14.7500  20.2500 Du        
   6043 ****        16.2500  14.7500  20.5000 Du        
   6044 ****        16.2500  14.7500  20.7500 Du        
   6045 ****        16.2500  14.7500  21.0000 Du        
   6046 ****        16.2500  14.7500  21.2500 Du        
   6047 ****        16.2500  14.7500  21.5000 Du        
   6048 ****        16.2500  14.7500  21.7500 Du        
   6049 ****        16.2500  14.7500  22.0000 Du        
   6050 ****        16.2500  14.7500  22.2500 Du        
   6051 ****        16.2500  14.7500  22.5000 Du        
   6052 ****        16.2500  14.7500  22.7500 Du        
   6053 ****        16.2500  14.7500  23.0000 Du        
   6054 ****        16.2500  14.7500  23.2500 Du        
   6055 ****        16.2500  14.7500  23.5000 Du        
   6056 ****        16.2500  14.7500  23.7500 Du        
   6057 ****        16.2500  14.7500  24.0000 Du        
   6058 ****        16.2500  14.7500  24.2500 Du        
   6059 ****        16.2500  15.0000  20.0000 Du        
   6060 ****        16.2500  15.0000  20.2500 Du        
   6061 ****        16.2500  15.0000  20.5000 Du        
   6062 ****        16.2500  15.0000  20.7500 Du        
   6063 ****        16.2500  15.0000  21.0000 Du        
   6064 ****        16.2500  15.0000  21.2500 Du        
   6065 ****        16.2500  15.0000  21.5000 Du        
   6066 ****        16.2500  15.0000  21.7500 Du        
   6067 ****        16.2500  15.0000  22.0000 Du        
   6068 ****        16.2500  15.0000  22.2500 Du        
   6069 ****        16.2500  15.0000  22.5000 Du        
   6070 ****        16.2500  15.0000  22.7500 Du        
   6071 ****        16.2500  15.0000  23.0000 Du        
   6072 ****        16.2500  15.0000  23.2500 Du        
   6073 ****        16.2500  15.0000  23.5000 Du        
   6074 ****        16.2500  15.0000  23.7500 Du        
   6075 ****        16.2500  15.0000  24.0000 Du        
   6076 ****        16.2500  15.2500  20.0000 Du        
   6077 ****        16.2500  15.2500  20.2500 Du        
   6078 ****        16.2500  15.2500  20.5000 Du        
   6079 ****        16.2500  15.2500  20.7500 Du        
   6080 ****        16.2500  15.2500  21.0000 Du        
   6081 ****        16.2500  15.2500  21.2500 Du        
   6082 ****        16.2500  15.2500  21.5000 Du        
   6083 ****        16.2500  15.2500  21.7500 Du        
   6084 ****        16.2500  15.2500  22.0000 Du        
   6085 ****        16.2500  15.2500  22.2500 Du        
   6086 ****        16.2500  15.2500  22.5000 Du        
   6087 ****        16.2500  15.2500  22.7500 Du        
   6088 ****        16.2500  15.2500  23.0000 Du        
   6089 ****        16.2500  15.2500  23.2500 Du        
   6090 ****        16.2500  15.2500  23.5000 Du        
   6091 ****        16.2500  15.2500  23.7500 Du        
   6092 ****        16.2500  15.5000  20.0000 Du        
   6093 ****        16.2500  15.5000  20.2500 Du        
   6094 ****        16.2500  15.5000  20.5000 Du        
   6095 ****        16.2500  15.5000  20.7500 Du        
   6096 ****        16.2500  15.5000  21.0000 Du        
   6097 ****        16.2500  15.5000  21.2500 Du        
   6098 ****        16.2500  15.5000  21.5000 Du        
   6099 ****        16.2500  15.5000  21.7500 Du        
   6100 ****        16.2500  15.5000  22.0000 Du        
   6101 ****        16.2500  15.5000  22.2500 Du        
   6102 ****        16.2500  15.5000  22.5000 Du        
   6103 ****        16.2500  15.5000  22.7500 Du        
   6104 ****        16.2500  15.5000  23.0000 Du        
   6105 ****        16.2500  15.5000  23.2500 Du        
   6106 ****        16.2500  15.7500  19.7500 Du        
   6107 ****        16.2500  15.7500  20.0000 Du        
   6108 ****        16.2500  15.7500  20.2500 Du        
   6109 ****        16.2500  15.7500  20.5000 Du        
   6110 ****        16.2500  15.7500  20.7500 Du        
   6111 ****        16.2500  15.7500  21.0000 Du        
   6112 ****        16.2500  15.7500  21.2500 Du        
   6113 ****        16.2500  15.7500  21.5000 Du        
   6114 ****        16.2500  15.7500  21.7500 Du        
   6115 ****        16.2500  15.7500  22.0000 Du        
   6116 ****        16.2500  15.7500  22.2500 Du        
   6117 ****        16.2500  15.7500  22.5000 Du        
   6118 ****        16.2500  15.7500  22.7500 Du        
   6119 ****        16.2500  15.7500  23.0000 Du        
   6120 ****        16.2500  15.7500  23.2500 Du        
   6121 ****        16.2500  16.0000  19.7500 Du        
   6122 ****        16.2500  16.0000  20.0000 Du        
   6123 ****        16.2500  16.0000  20.2500 Du        
   6124 ****        16.2500  16.0000  20.5000 Du        
   6125 ****        16.2500  16.0000  20.7500 Du        
   6126 ****        16.2500  16.0000  21.0000 Du        
   6127 ****        16.2500  16.0000  21.2500 Du        
   6128 ****        16.2500  16.0000  21.5000 Du        
   6129 ****        16.2500  16.0000  21.7500 Du        
   6130 ****        16.2500  16.0000  22.0000 Du        
   6131 ****        16.2500  16.0000  22.2500 Du        
   6132 ****        16.2500  16.0000  22.5000 Du        
   6133 ****        16.2500  16.0000  22.7500 Du        
   6134 ****        16.2500  16.0000  23.0000 Du        
   6135 ****        16.2500  16.0000  23.2500 Du        
   6136 ****        16.2500  16.2500  19.7500 Du        
   6137 ****        16.2500  16.2500  20.0000 Du        
   6138 ****        16.2500  16.2500  20.2500 Du        
   6139 ****        16.2500  16.2500  20.5000 Du        
   6140 ****        16.2500  16.2500  20.7500 Du        
   6141 ****        16.2500  16.2500  21.0000 Du        
   6142 ****        16.2500  16.2500  21.2500 Du        
   6143 ****        16.2500  16.2500  21.5000 Du        
   6144 ****        16.2500  16.2500  21.7500 Du        
   6145 ****        16.2500  16.2500  22.0000 Du        
   6146 ****        16.2500  16.2500  22.2500 Du        
   6147 ****        16.2500  16.2500  22.5000 Du        
   6148 ****        16.2500  16.2500  22.7500 Du        
   6149 ****        16.2500  16.2500  23.0000 Du        
   6150 ****        16.2500  16.5000  19.7500 Du        
   6151 ****        16.2500  16.5000  20.0000 Du        
   6152 ****        16.2500  16.5000  20.2500 Du        
   6153 ****        16.2500  16.5000  20.5000 Du        
   6154 ****        16.2500  16.5000  20.7500 Du        
   6155 ****        16.2500  16.5000  21.0000 Du        
   6156 ****        16.2500  16.5000  21.2500 Du        
   6157 ****        16.2500  16.5000  21.5000 Du        
   6158 ****        16.2500  16.5000  21.7500 Du        
   6159 ****        16.2500  16.5000  22.0000 Du        
   6160 ****        16.2500  16.5000  22.2500 Du        
   6161 ****        16.2500  16.5000  22.5000 Du        
   6162 ****        16.2500  16.5000  22.7500 Du        
   6163 ****        16.2500  16.5000  23.0000 Du        
   6164 ****        16.2500  16.7500  20.2500 Du        
   6165 ****        16.2500  16.7500  20.5000 Du        
   6166 ****        16.2500  16.7500  20.7500 Du        
   6167 ****        16.2500  16.7500  21.0000 Du        
   6168 ****        16.2500  16.7500  21.2500 Du        
   6169 ****        16.2500  16.7500  21.5000 Du        
   6170 ****        16.2500  16.7500  21.7500 Du        
   6171 ****        16.2500  16.7500  22.0000 Du        
   6172 ****        16.2500  16.7500  22.2500 Du        
   6173 ****        16.2500  16.7500  22.5000 Du        
   6174 ****        16.2500  16.7500  22.7500 Du        
   6175 ****        16.2500  16.7500  23.0000 Du        
   6176 ****        16.2500  17.0000  20.7500 Du        
   6177 ****        16.2500  17.0000  21.0000 Du        
   6178 ****        16.2500  17.0000  21.2500 Du        
   6179 ****        16.2500  17.0000  21.5000 Du        
   6180 ****        16.2500  17.0000  21.7500 Du        
   6181 ****        16.2500  17.0000  22.0000 Du        
   6182 ****        16.2500  17.0000  22.2500 Du        
   6183 ****        16.2500  17.0000  22.5000 Du        
   6184 ****        16.2500  17.0000  22.7500 Du        
   6185 ****        16.2500  17.0000  23.0000 Du        
   6186 ****        16.2500  17.2500  21.0000 Du        
   6187 ****        16.2500  17.2500  21.2500 Du        
   6188 ****        16.2500  17.2500  21.5000 Du        
   6189 ****        16.2500  17.2500  21.7500 Du        
   6190 ****        16.2500  17.2500  22.0000 Du        
   6191 ****        16.2500  17.2500  22.2500 Du        
   6192 ****        16.2500  17.2500  22.5000 Du        
   6193 ****        16.2500  17.2500  22.7500 Du        
   6194 ****        16.2500  17.2500  23.0000 Du        
   6195 ****        16.2500  17.2500  27.7500 Du        
   6196 ****        16.2500  17.2500  28.0000 Du        
   6197 ****        16.2500  17.5000  21.2500 Du        
   6198 ****        16.2500  17.5000  21.5000 Du        
   6199 ****        16.2500  17.5000  21.7500 Du        
   6200 ****        16.2500  17.5000  22.0000 Du        
   6201 ****        16.2500  17.5000  22.2500 Du        
   6202 ****        16.2500  17.5000  22.5000 Du        
   6203 ****        16.2500  17.5000  22.7500 Du        
   6204 ****        16.2500  17.5000  23.0000 Du        
   6205 ****        16.2500  17.5000  27.5000 Du        
   6206 ****        16.2500  17.5000  27.7500 Du        
   6207 ****        16.2500  17.5000  28.0000 Du        
   6208 ****        16.2500  17.5000  28.2500 Du        
   6209 ****        16.2500  17.7500  21.5000 Du        
   6210 ****        16.2500  17.7500  21.7500 Du        
   6211 ****        16.2500  17.7500  22.0000 Du        
   6212 ****        16.2500  17.7500  22.2500 Du        
   6213 ****        16.2500  17.7500  22.5000 Du        
   6214 ****        16.2500  17.7500  22.7500 Du        
   6215 ****        16.2500  17.7500  23.0000 Du        
   6216 ****        16.2500  17.7500  27.2500 Du        
   6217 ****        16.2500  17.7500  27.5000 Du        
   6218 ****        16.2500  17.7500  27.7500 Du        
   6219 ****        16.2500  17.7500  28.0000 Du        
   6220 ****        16.2500  17.7500  28.2500 Du        
   6221 ****        16.2500  18.0000  21.7500 Du        
   6222 ****        16.2500  18.0000  22.0000 Du        
   6223 ****        16.2500  18.0000  22.2500 Du        
   6224 ****        16.2500  18.0000  22.5000 Du        
   6225 ****        16.2500  18.0000  22.7500 Du        
   6226 ****        16.2500  18.0000  23.0000 Du        
   6227 ****        16.2500  18.0000  23.2500 Du        
   6228 ****        16.2500  18.0000  27.2500 Du        
   6229 ****        16.2500  18.0000  27.5000 Du        
   6230 ****        16.2500  18.0000  27.7500 Du        
   6231 ****        16.2500  18.0000  28.0000 Du        
   6232 ****        16.2500  18.0000  28.2500 Du        
   6233 ****        16.2500  18.0000  28.5000 Du        
   6234 ****        16.2500  18.2500  21.7500 Du        
   6235 ****        16.2500  18.2500  22.0000 Du        
   6236 ****        16.2500  18.2500  22.2500 Du        
   6237 ****        16.2500  18.2500  22.5000 Du        
   6238 ****        16.2500  18.2500  22.7500 Du        
   6239 ****        16.2500  18.2500  23.0000 Du        
   6240 ****        16.2500  18.2500  23.2500 Du        
   6241 ****        16.2500  18.2500  27.0000 Du        
   6242 ****        16.2500  18.2500  27.2500 Du        
   6243 ****        16.2500  18.2500  27.5000 Du        
   6244 ****        16.2500  18.2500  27.7500 Du        
   6245 ****        16.2500  18.2500  28.0000 Du        
   6246 ****        16.2500  18.2500  28.2500 Du        
   6247 ****        16.2500  18.2500  28.5000 Du        
   6248 ****        16.2500  18.2500  28.7500 Du        
   6249 ****        16.2500  18.5000  21.7500 Du        
   6250 ****        16.2500  18.5000  22.0000 Du        
   6251 ****        16.2500  18.5000  22.2500 Du        
   6252 ****        16.2500  18.5000  22.5000 Du        
   6253 ****        16.2500  18.5000  22.7500 Du        
   6254 ****        16.2500  18.5000  23.0000 Du        
   6255 ****        16.2500  18.5000  26.7500 Du        
   6256 ****        16.2500  18.5000  27.0000 Du        
   6257 ****        16.2500  18.5000  27.2500 Du        
   6258 ****        16.2500  18.5000  27.5000 Du        
   6259 ****        16.2500  18.5000  27.7500 Du        
   6260 ****        16.2500  18.5000  28.0000 Du        
   6261 ****        16.2500  18.5000  28.2500 Du        
   6262 ****        16.2500  18.5000  28.5000 Du        
   6263 ****        16.2500  18.5000  28.7500 Du        
   6264 ****        16.2500  18.7500  21.7500 Du        
   6265 ****        16.2500  18.7500  22.0000 Du        
   6266 ****        16.2500  18.7500  22.2500 Du        
   6267 ****        16.2500  18.7500  22.5000 Du        
   6268 ****        16.2500  18.7500  22.7500 Du        
   6269 ****        16.2500  18.7500  23.0000 Du        
   6270 ****        16.2500  18.7500  23.2500 Du        
   6271 ****        16.2500  18.7500  26.7500 Du        
   6272 ****        16.2500  18.7500  27.0000 Du        
   6273 ****        16.2500  18.7500  27.2500 Du        
   6274 ****        16.2500  18.7500  27.5000 Du        
   6275 ****        16.2500  18.7500  27.7500 Du        
   6276 ****        16.2500  18.7500  28.0000 Du        
   6277 ****        16.2500  18.7500  28.2500 Du        
   6278 ****        16.2500  18.7500  28.5000 Du        
   6279 ****        16.2500  18.7500  28.7500 Du        
   6280 ****        16.2500  19.0000  21.7500 Du        
   6281 ****        16.2500  19.0000  22.0000 Du        
   6282 ****        16.2500  19.0000  22.2500 Du        
   6283 ****        16.2500  19.0000  22.5000 Du        
   6284 ****        16.2500  19.0000  22.7500 Du        
   6285 ****        16.2500  19.0000  23.0000 Du        
   6286 ****        16.2500  19.0000  23.2500 Du        
   6287 ****        16.2500  19.0000  26.2500 Du        
   6288 ****        16.2500  19.0000  26.5000 Du        
   6289 ****        16.2500  19.0000  26.7500 Du        
   6290 ****        16.2500  19.0000  27.0000 Du        
   6291 ****        16.2500  19.0000  27.2500 Du        
   6292 ****        16.2500  19.0000  27.5000 Du        
   6293 ****        16.2500  19.0000  27.7500 Du        
   6294 ****        16.2500  19.0000  28.0000 Du        
   6295 ****        16.2500  19.0000  28.2500 Du        
   6296 ****        16.2500  19.2500  21.7500 Du        
   6297 ****        16.2500  19.2500  22.0000 Du        
   6298 ****        16.2500  19.2500  22.2500 Du        
   6299 ****        16.2500  19.2500  22.5000 Du        
   6300 ****        16.2500  19.2500  22.7500 Du        
   6301 ****        16.2500  19.2500  23.0000 Du        
   6302 ****        16.2500  19.2500  23.2500 Du        
   6303 ****        16.2500  19.2500  26.2500 Du        
   6304 ****        16.2500  19.2500  26.5000 Du        
   6305 ****        16.2500  19.2500  26.7500 Du        
   6306 ****        16.2500  19.2500  27.0000 Du        
   6307 ****        16.2500  19.2500  27.2500 Du        
   6308 ****        16.2500  19.2500  27.5000 Du        
   6309 ****        16.2500  19.2500  27.7500 Du        
   6310 ****        16.2500  19.5000  21.7500 Du        
   6311 ****        16.2500  19.5000  22.0000 Du        
   6312 ****        16.2500  19.5000  22.2500 Du        
   6313 ****        16.2500  19.5000  22.5000 Du        
   6314 ****        16.2500  19.5000  22.7500 Du        
   6315 ****        16.2500  19.5000  23.0000 Du        
   6316 ****        16.2500  19.5000  23.2500 Du        
   6317 ****        16.2500  19.5000  26.5000 Du        
   6318 ****        16.2500  19.5000  26.7500 Du        
   6319 ****        16.2500  19.5000  27.0000 Du        
   6320 ****        16.2500  19.5000  27.2500 Du        
   6321 ****        16.2500  19.7500  21.7500 Du        
   6322 ****        16.2500  19.7500  22.0000 Du        
   6323 ****        16.2500  19.7500  22.2500 Du        
   6324 ****        16.2500  19.7500  22.5000 Du        
   6325 ****        16.2500  19.7500  22.7500 Du        
   6326 ****        16.2500  19.7500  23.0000 Du        
   6327 ****        16.2500  19.7500  23.2500 Du        
   6328 ****        16.2500  19.7500  26.2500 Du        
   6329 ****        16.2500  19.7500  26.5000 Du        
   6330 ****        16.2500  19.7500  26.7500 Du        
   6331 ****        16.2500  19.7500  27.0000 Du        
   6332 ****        16.2500  20.0000  22.0000 Du        
   6333 ****        16.2500  20.0000  22.2500 Du        
   6334 ****        16.2500  20.0000  22.5000 Du        
   6335 ****        16.2500  20.0000  22.7500 Du        
   6336 ****        16.2500  20.0000  23.0000 Du        
   6337 ****        16.2500  20.0000  23.2500 Du        
   6338 ****        16.2500  20.0000  26.2500 Du        
   6339 ****        16.2500  20.0000  26.5000 Du        
   6340 ****        16.2500  20.0000  26.7500 Du        
   6341 ****        16.2500  20.2500  22.0000 Du        
   6342 ****        16.2500  20.2500  22.2500 Du        
   6343 ****        16.2500  20.2500  22.5000 Du        
   6344 ****        16.2500  20.2500  22.7500 Du        
   6345 ****        16.2500  20.2500  23.0000 Du        
   6346 ****        16.2500  20.2500  23.2500 Du        
   6347 ****        16.2500  20.5000  22.0000 Du        
   6348 ****        16.2500  20.5000  22.2500 Du        
   6349 ****        16.2500  20.5000  22.5000 Du        
   6350 ****        16.2500  20.5000  22.7500 Du        
   6351 ****        16.2500  20.5000  23.0000 Du        
   6352 ****        16.2500  20.5000  23.2500 Du        
   6353 ****        16.2500  20.7500  22.0000 Du        
   6354 ****        16.2500  20.7500  22.2500 Du        
   6355 ****        16.2500  20.7500  22.5000 Du        
   6356 ****        16.2500  20.7500  22.7500 Du        
   6357 ****        16.2500  20.7500  23.0000 Du        
   6358 ****        16.2500  20.7500  23.2500 Du        
   6359 ****        16.2500  21.0000  22.0000 Du        
   6360 ****        16.2500  21.0000  22.2500 Du        
   6361 ****        16.2500  21.0000  22.5000 Du        
   6362 ****        16.2500  21.0000  22.7500 Du        
   6363 ****        16.2500  21.0000  23.0000 Du        
   6364 ****        16.2500  21.2500  22.2500 Du        
   6365 ****        16.2500  21.2500  22.5000 Du        
   6366 ****        16.2500  21.2500  22.7500 Du        
   6367 ****        16.2500  21.2500  23.0000 Du        
   6368 ****        16.2500  21.2500  23.2500 Du        
   6369 ****        16.5000   9.2500  32.0000 Du        
   6370 ****        16.5000   9.2500  32.2500 Du        
   6371 ****        16.5000   9.5000  31.7500 Du        
   6372 ****        16.5000   9.5000  32.0000 Du        
   6373 ****        16.5000   9.5000  32.2500 Du        
   6374 ****        16.5000   9.5000  32.5000 Du        
   6375 ****        16.5000   9.5000  32.7500 Du        
   6376 ****        16.5000   9.7500  31.5000 Du        
   6377 ****        16.5000   9.7500  31.7500 Du        
   6378 ****        16.5000   9.7500  32.0000 Du        
   6379 ****        16.5000   9.7500  32.2500 Du        
   6380 ****        16.5000   9.7500  32.5000 Du        
   6381 ****        16.5000  10.0000  31.2500 Du        
   6382 ****        16.5000  10.0000  31.5000 Du        
   6383 ****        16.5000  10.0000  31.7500 Du        
   6384 ****        16.5000  10.0000  32.0000 Du        
   6385 ****        16.5000  10.0000  32.2500 Du        
   6386 ****        16.5000  10.0000  32.5000 Du        
   6387 ****        16.5000  10.2500  31.0000 Du        
   6388 ****        16.5000  10.2500  31.2500 Du        
   6389 ****        16.5000  10.2500  31.5000 Du        
   6390 ****        16.5000  10.2500  31.7500 Du        
   6391 ****        16.5000  10.2500  32.0000 Du        
   6392 ****        16.5000  10.5000  30.7500 Du        
   6393 ****        16.5000  10.5000  31.0000 Du        
   6394 ****        16.5000  10.5000  31.2500 Du        
   6395 ****        16.5000  10.5000  31.5000 Du        
   6396 ****        16.5000  10.5000  31.7500 Du        
   6397 ****        16.5000  10.7500  30.2500 Du        
   6398 ****        16.5000  10.7500  30.5000 Du        
   6399 ****        16.5000  10.7500  30.7500 Du        
   6400 ****        16.5000  10.7500  31.0000 Du        
   6401 ****        16.5000  10.7500  31.2500 Du        
   6402 ****        16.5000  10.7500  31.5000 Du        
   6403 ****        16.5000  10.7500  31.7500 Du        
   6404 ****        16.5000  11.0000  30.0000 Du        
   6405 ****        16.5000  11.0000  30.2500 Du        
   6406 ****        16.5000  11.0000  30.5000 Du        
   6407 ****        16.5000  11.0000  30.7500 Du        
   6408 ****        16.5000  11.0000  31.0000 Du        
   6409 ****        16.5000  11.0000  31.2500 Du        
   6410 ****        16.5000  11.0000  31.5000 Du        
   6411 ****        16.5000  11.2500  29.5000 Du        
   6412 ****        16.5000  11.2500  29.7500 Du        
   6413 ****        16.5000  11.2500  30.0000 Du        
   6414 ****        16.5000  11.2500  30.2500 Du        
   6415 ****        16.5000  11.2500  30.5000 Du        
   6416 ****        16.5000  11.2500  30.7500 Du        
   6417 ****        16.5000  11.2500  31.0000 Du        
   6418 ****        16.5000  11.2500  31.2500 Du        
   6419 ****        16.5000  11.5000  29.2500 Du        
   6420 ****        16.5000  11.5000  29.5000 Du        
   6421 ****        16.5000  11.5000  29.7500 Du        
   6422 ****        16.5000  11.5000  30.0000 Du        
   6423 ****        16.5000  11.5000  30.2500 Du        
   6424 ****        16.5000  11.5000  30.5000 Du        
   6425 ****        16.5000  11.5000  30.7500 Du        
   6426 ****        16.5000  11.5000  31.0000 Du        
   6427 ****        16.5000  11.7500  29.0000 Du        
   6428 ****        16.5000  11.7500  29.2500 Du        
   6429 ****        16.5000  11.7500  29.5000 Du        
   6430 ****        16.5000  11.7500  29.7500 Du        
   6431 ****        16.5000  11.7500  30.0000 Du        
   6432 ****        16.5000  11.7500  30.2500 Du        
   6433 ****        16.5000  11.7500  30.5000 Du        
   6434 ****        16.5000  11.7500  30.7500 Du        
   6435 ****        16.5000  11.7500  31.0000 Du        
   6436 ****        16.5000  12.0000  28.7500 Du        
   6437 ****        16.5000  12.0000  29.0000 Du        
   6438 ****        16.5000  12.0000  29.2500 Du        
   6439 ****        16.5000  12.0000  29.5000 Du        
   6440 ****        16.5000  12.0000  29.7500 Du        
   6441 ****        16.5000  12.0000  30.0000 Du        
   6442 ****        16.5000  12.0000  30.2500 Du        
   6443 ****        16.5000  12.0000  30.5000 Du        
   6444 ****        16.5000  12.0000  30.7500 Du        
   6445 ****        16.5000  12.2500  28.5000 Du        
   6446 ****        16.5000  12.2500  28.7500 Du        
   6447 ****        16.5000  12.2500  29.0000 Du        
   6448 ****        16.5000  12.2500  29.2500 Du        
   6449 ****        16.5000  12.2500  29.5000 Du        
   6450 ****        16.5000  12.2500  29.7500 Du        
   6451 ****        16.5000  12.2500  30.0000 Du        
   6452 ****        16.5000  12.2500  30.2500 Du        
   6453 ****        16.5000  12.5000  28.0000 Du        
   6454 ****        16.5000  12.5000  28.2500 Du        
   6455 ****        16.5000  12.5000  28.5000 Du        
   6456 ****        16.5000  12.5000  28.7500 Du        
   6457 ****        16.5000  12.5000  29.0000 Du        
   6458 ****        16.5000  12.5000  29.2500 Du        
   6459 ****        16.5000  12.5000  29.5000 Du        
   6460 ****        16.5000  12.5000  29.7500 Du        
   6461 ****        16.5000  12.5000  30.0000 Du        
   6462 ****        16.5000  12.5000  30.2500 Du        
   6463 ****        16.5000  12.7500  27.5000 Du        
   6464 ****        16.5000  12.7500  27.7500 Du        
   6465 ****        16.5000  12.7500  28.0000 Du        
   6466 ****        16.5000  12.7500  28.2500 Du        
   6467 ****        16.5000  12.7500  28.5000 Du        
   6468 ****        16.5000  12.7500  28.7500 Du        
   6469 ****        16.5000  12.7500  29.0000 Du        
   6470 ****        16.5000  12.7500  29.2500 Du        
   6471 ****        16.5000  12.7500  29.5000 Du        
   6472 ****        16.5000  12.7500  29.7500 Du        
   6473 ****        16.5000  12.7500  30.0000 Du        
   6474 ****        16.5000  13.0000  21.5000 Du        
   6475 ****        16.5000  13.0000  21.7500 Du        
   6476 ****        16.5000  13.0000  27.2500 Du        
   6477 ****        16.5000  13.0000  27.5000 Du        
   6478 ****        16.5000  13.0000  27.7500 Du        
   6479 ****        16.5000  13.0000  28.0000 Du        
   6480 ****        16.5000  13.0000  28.2500 Du        
   6481 ****        16.5000  13.0000  28.5000 Du        
   6482 ****        16.5000  13.0000  28.7500 Du        
   6483 ****        16.5000  13.0000  29.0000 Du        
   6484 ****        16.5000  13.0000  29.2500 Du        
   6485 ****        16.5000  13.0000  29.5000 Du        
   6486 ****        16.5000  13.0000  29.7500 Du        
   6487 ****        16.5000  13.2500  21.0000 Du        
   6488 ****        16.5000  13.2500  21.2500 Du        
   6489 ****        16.5000  13.2500  21.5000 Du        
   6490 ****        16.5000  13.2500  21.7500 Du        
   6491 ****        16.5000  13.2500  22.0000 Du        
   6492 ****        16.5000  13.2500  22.2500 Du        
   6493 ****        16.5000  13.2500  27.2500 Du        
   6494 ****        16.5000  13.2500  27.5000 Du        
   6495 ****        16.5000  13.2500  27.7500 Du        
   6496 ****        16.5000  13.2500  28.0000 Du        
   6497 ****        16.5000  13.2500  28.2500 Du        
   6498 ****        16.5000  13.2500  28.5000 Du        
   6499 ****        16.5000  13.2500  28.7500 Du        
   6500 ****        16.5000  13.2500  29.0000 Du        
   6501 ****        16.5000  13.2500  29.2500 Du        
   6502 ****        16.5000  13.2500  29.5000 Du        
   6503 ****        16.5000  13.5000  20.7500 Du        
   6504 ****        16.5000  13.5000  21.0000 Du        
   6505 ****        16.5000  13.5000  21.2500 Du        
   6506 ****        16.5000  13.5000  21.5000 Du        
   6507 ****        16.5000  13.5000  21.7500 Du        
   6508 ****        16.5000  13.5000  22.0000 Du        
   6509 ****        16.5000  13.5000  22.2500 Du        
   6510 ****        16.5000  13.5000  22.5000 Du        
   6511 ****        16.5000  13.5000  22.7500 Du        
   6512 ****        16.5000  13.5000  27.0000 Du        
   6513 ****        16.5000  13.5000  27.2500 Du        
   6514 ****        16.5000  13.5000  27.5000 Du        
   6515 ****        16.5000  13.5000  27.7500 Du        
   6516 ****        16.5000  13.5000  28.0000 Du        
   6517 ****        16.5000  13.5000  28.2500 Du        
   6518 ****        16.5000  13.5000  28.5000 Du        
   6519 ****        16.5000  13.5000  28.7500 Du        
   6520 ****        16.5000  13.5000  29.0000 Du        
   6521 ****        16.5000  13.7500  20.5000 Du        
   6522 ****        16.5000  13.7500  20.7500 Du        
   6523 ****        16.5000  13.7500  21.0000 Du        
   6524 ****        16.5000  13.7500  21.2500 Du        
   6525 ****        16.5000  13.7500  21.5000 Du        
   6526 ****        16.5000  13.7500  21.7500 Du        
   6527 ****        16.5000  13.7500  22.0000 Du        
   6528 ****        16.5000  13.7500  22.2500 Du        
   6529 ****        16.5000  13.7500  22.5000 Du        
   6530 ****        16.5000  13.7500  22.7500 Du        
   6531 ****        16.5000  13.7500  23.0000 Du        
   6532 ****        16.5000  13.7500  23.2500 Du        
   6533 ****        16.5000  13.7500  27.0000 Du        
   6534 ****        16.5000  13.7500  27.2500 Du        
   6535 ****        16.5000  13.7500  27.5000 Du        
   6536 ****        16.5000  13.7500  27.7500 Du        
   6537 ****        16.5000  13.7500  28.0000 Du        
   6538 ****        16.5000  13.7500  28.2500 Du        
   6539 ****        16.5000  13.7500  28.5000 Du        
   6540 ****        16.5000  14.0000  20.5000 Du        
   6541 ****        16.5000  14.0000  20.7500 Du        
   6542 ****        16.5000  14.0000  21.0000 Du        
   6543 ****        16.5000  14.0000  21.2500 Du        
   6544 ****        16.5000  14.0000  21.5000 Du        
   6545 ****        16.5000  14.0000  21.7500 Du        
   6546 ****        16.5000  14.0000  22.0000 Du        
   6547 ****        16.5000  14.0000  22.2500 Du        
   6548 ****        16.5000  14.0000  22.5000 Du        
   6549 ****        16.5000  14.0000  22.7500 Du        
   6550 ****        16.5000  14.0000  23.0000 Du        
   6551 ****        16.5000  14.0000  23.2500 Du        
   6552 ****        16.5000  14.0000  23.5000 Du        
   6553 ****        16.5000  14.0000  23.7500 Du        
   6554 ****        16.5000  14.0000  27.5000 Du        
   6555 ****        16.5000  14.2500  20.2500 Du        
   6556 ****        16.5000  14.2500  20.5000 Du        
   6557 ****        16.5000  14.2500  20.7500 Du        
   6558 ****        16.5000  14.2500  21.0000 Du        
   6559 ****        16.5000  14.2500  21.2500 Du        
   6560 ****        16.5000  14.2500  21.5000 Du        
   6561 ****        16.5000  14.2500  21.7500 Du        
   6562 ****        16.5000  14.2500  22.0000 Du        
   6563 ****        16.5000  14.2500  22.2500 Du        
   6564 ****        16.5000  14.2500  22.5000 Du        
   6565 ****        16.5000  14.2500  22.7500 Du        
   6566 ****        16.5000  14.2500  23.0000 Du        
   6567 ****        16.5000  14.2500  23.2500 Du        
   6568 ****        16.5000  14.2500  23.5000 Du        
   6569 ****        16.5000  14.2500  23.7500 Du        
   6570 ****        16.5000  14.5000  20.2500 Du        
   6571 ****        16.5000  14.5000  20.5000 Du        
   6572 ****        16.5000  14.5000  20.7500 Du        
   6573 ****        16.5000  14.5000  21.0000 Du        
   6574 ****        16.5000  14.5000  21.2500 Du        
   6575 ****        16.5000  14.5000  21.5000 Du        
   6576 ****        16.5000  14.5000  21.7500 Du        
   6577 ****        16.5000  14.5000  22.0000 Du        
   6578 ****        16.5000  14.5000  22.2500 Du        
   6579 ****        16.5000  14.5000  22.5000 Du        
   6580 ****        16.5000  14.5000  22.7500 Du        
   6581 ****        16.5000  14.5000  23.0000 Du        
   6582 ****        16.5000  14.5000  23.2500 Du        
   6583 ****        16.5000  14.5000  23.5000 Du        
   6584 ****        16.5000  14.5000  23.7500 Du        
   6585 ****        16.5000  14.7500  20.2500 Du        
   6586 ****        16.5000  14.7500  20.5000 Du        
   6587 ****        16.5000  14.7500  20.7500 Du        
   6588 ****        16.5000  14.7500  21.0000 Du        
   6589 ****        16.5000  14.7500  21.2500 Du        
   6590 ****        16.5000  14.7500  21.5000 Du        
   6591 ****        16.5000  14.7500  21.7500 Du        
   6592 ****        16.5000  14.7500  22.0000 Du        
   6593 ****        16.5000  14.7500  22.2500 Du        
   6594 ****        16.5000  14.7500  22.5000 Du        
   6595 ****        16.5000  14.7500  22.7500 Du        
   6596 ****        16.5000  14.7500  23.0000 Du        
   6597 ****        16.5000  14.7500  23.2500 Du        
   6598 ****        16.5000  14.7500  23.5000 Du        
   6599 ****        16.5000  14.7500  23.7500 Du        
   6600 ****        16.5000  15.0000  20.2500 Du        
   6601 ****        16.5000  15.0000  20.5000 Du        
   6602 ****        16.5000  15.0000  20.7500 Du        
   6603 ****        16.5000  15.0000  21.0000 Du        
   6604 ****        16.5000  15.0000  21.2500 Du        
   6605 ****        16.5000  15.0000  21.5000 Du        
   6606 ****        16.5000  15.0000  21.7500 Du        
   6607 ****        16.5000  15.0000  22.0000 Du        
   6608 ****        16.5000  15.0000  22.2500 Du        
   6609 ****        16.5000  15.0000  22.5000 Du        
   6610 ****        16.5000  15.0000  22.7500 Du        
   6611 ****        16.5000  15.0000  23.0000 Du        
   6612 ****        16.5000  15.0000  23.2500 Du        
   6613 ****        16.5000  15.0000  23.5000 Du        
   6614 ****        16.5000  15.2500  20.2500 Du        
   6615 ****        16.5000  15.2500  20.5000 Du        
   6616 ****        16.5000  15.2500  20.7500 Du        
   6617 ****        16.5000  15.2500  21.0000 Du        
   6618 ****        16.5000  15.2500  21.2500 Du        
   6619 ****        16.5000  15.2500  21.5000 Du        
   6620 ****        16.5000  15.2500  21.7500 Du        
   6621 ****        16.5000  15.2500  22.0000 Du        
   6622 ****        16.5000  15.2500  22.2500 Du        
   6623 ****        16.5000  15.2500  22.5000 Du        
   6624 ****        16.5000  15.2500  22.7500 Du        
   6625 ****        16.5000  15.2500  23.0000 Du        
   6626 ****        16.5000  15.2500  23.2500 Du        
   6627 ****        16.5000  15.5000  20.2500 Du        
   6628 ****        16.5000  15.5000  20.5000 Du        
   6629 ****        16.5000  15.5000  20.7500 Du        
   6630 ****        16.5000  15.5000  21.0000 Du        
   6631 ****        16.5000  15.5000  21.2500 Du        
   6632 ****        16.5000  15.5000  21.5000 Du        
   6633 ****        16.5000  15.5000  21.7500 Du        
   6634 ****        16.5000  15.5000  22.0000 Du        
   6635 ****        16.5000  15.5000  22.2500 Du        
   6636 ****        16.5000  15.5000  22.5000 Du        
   6637 ****        16.5000  15.5000  22.7500 Du        
   6638 ****        16.5000  15.5000  23.0000 Du        
   6639 ****        16.5000  15.5000  23.2500 Du        
   6640 ****        16.5000  15.7500  20.2500 Du        
   6641 ****        16.5000  15.7500  20.5000 Du        
   6642 ****        16.5000  15.7500  20.7500 Du        
   6643 ****        16.5000  15.7500  21.0000 Du        
   6644 ****        16.5000  15.7500  21.2500 Du        
   6645 ****        16.5000  15.7500  21.5000 Du        
   6646 ****        16.5000  15.7500  21.7500 Du        
   6647 ****        16.5000  15.7500  22.0000 Du        
   6648 ****        16.5000  15.7500  22.2500 Du        
   6649 ****        16.5000  15.7500  22.5000 Du        
   6650 ****        16.5000  15.7500  22.7500 Du        
   6651 ****        16.5000  15.7500  23.0000 Du        
   6652 ****        16.5000  16.0000  20.0000 Du        
   6653 ****        16.5000  16.0000  20.2500 Du        
   6654 ****        16.5000  16.0000  20.5000 Du        
   6655 ****        16.5000  16.0000  20.7500 Du        
   6656 ****        16.5000  16.0000  21.0000 Du        
   6657 ****        16.5000  16.0000  21.2500 Du        
   6658 ****        16.5000  16.0000  21.5000 Du        
   6659 ****        16.5000  16.0000  21.7500 Du        
   6660 ****        16.5000  16.0000  22.0000 Du        
   6661 ****        16.5000  16.0000  22.2500 Du        
   6662 ****        16.5000  16.0000  22.5000 Du        
   6663 ****        16.5000  16.0000  22.7500 Du        
   6664 ****        16.5000  16.2500  20.2500 Du        
   6665 ****        16.5000  16.2500  20.5000 Du        
   6666 ****        16.5000  16.2500  20.7500 Du        
   6667 ****        16.5000  16.2500  21.0000 Du        
   6668 ****        16.5000  16.2500  21.2500 Du        
   6669 ****        16.5000  16.2500  21.5000 Du        
   6670 ****        16.5000  16.2500  21.7500 Du        
   6671 ****        16.5000  16.2500  22.0000 Du        
   6672 ****        16.5000  16.2500  22.2500 Du        
   6673 ****        16.5000  16.2500  22.5000 Du        
   6674 ****        16.5000  16.2500  22.7500 Du        
   6675 ****        16.5000  16.5000  20.5000 Du        
   6676 ****        16.5000  16.5000  20.7500 Du        
   6677 ****        16.5000  16.5000  21.0000 Du        
   6678 ****        16.5000  16.5000  21.2500 Du        
   6679 ****        16.5000  16.5000  21.5000 Du        
   6680 ****        16.5000  16.5000  21.7500 Du        
   6681 ****        16.5000  16.5000  22.0000 Du        
   6682 ****        16.5000  16.5000  22.2500 Du        
   6683 ****        16.5000  16.5000  22.5000 Du        
   6684 ****        16.5000  16.7500  20.7500 Du        
   6685 ****        16.5000  16.7500  21.0000 Du        
   6686 ****        16.5000  16.7500  21.2500 Du        
   6687 ****        16.5000  16.7500  21.5000 Du        
   6688 ****        16.5000  16.7500  21.7500 Du        
   6689 ****        16.5000  16.7500  22.0000 Du        
   6690 ****        16.5000  16.7500  22.2500 Du        
   6691 ****        16.5000  16.7500  22.5000 Du        
   6692 ****        16.5000  17.0000  21.0000 Du        
   6693 ****        16.5000  17.0000  21.2500 Du        
   6694 ****        16.5000  17.0000  21.5000 Du        
   6695 ****        16.5000  17.0000  21.7500 Du        
   6696 ****        16.5000  17.0000  22.0000 Du        
   6697 ****        16.5000  17.0000  22.2500 Du        
   6698 ****        16.5000  17.0000  22.5000 Du        
   6699 ****        16.5000  17.2500  21.2500 Du        
   6700 ****        16.5000  17.2500  21.5000 Du        
   6701 ****        16.5000  17.2500  21.7500 Du        
   6702 ****        16.5000  17.2500  22.0000 Du        
   6703 ****        16.5000  17.2500  22.2500 Du        
   6704 ****        16.5000  17.2500  22.5000 Du        
   6705 ****        16.5000  17.2500  22.7500 Du        
   6706 ****        16.5000  17.5000  21.5000 Du        
   6707 ****        16.5000  17.5000  21.7500 Du        
   6708 ****        16.5000  17.5000  22.0000 Du        
   6709 ****        16.5000  17.5000  22.2500 Du        
   6710 ****        16.5000  17.5000  22.5000 Du        
   6711 ****        16.5000  17.5000  22.7500 Du        
   6712 ****        16.5000  17.5000  27.7500 Du        
   6713 ****        16.5000  17.5000  28.0000 Du        
   6714 ****        16.5000  17.5000  28.2500 Du        
   6715 ****        16.5000  17.7500  21.7500 Du        
   6716 ****        16.5000  17.7500  22.0000 Du        
   6717 ****        16.5000  17.7500  22.2500 Du        
   6718 ****        16.5000  17.7500  22.5000 Du        
   6719 ****        16.5000  17.7500  22.7500 Du        
   6720 ****        16.5000  17.7500  27.5000 Du        
   6721 ****        16.5000  17.7500  27.7500 Du        
   6722 ****        16.5000  17.7500  28.0000 Du        
   6723 ****        16.5000  17.7500  28.2500 Du        
   6724 ****        16.5000  17.7500  28.5000 Du        
   6725 ****        16.5000  18.0000  21.7500 Du        
   6726 ****        16.5000  18.0000  22.0000 Du        
   6727 ****        16.5000  18.0000  22.2500 Du        
   6728 ****        16.5000  18.0000  22.5000 Du        
   6729 ****        16.5000  18.0000  22.7500 Du        
   6730 ****        16.5000  18.0000  23.0000 Du        
   6731 ****        16.5000  18.0000  27.5000 Du        
   6732 ****        16.5000  18.0000  27.7500 Du        
   6733 ****        16.5000  18.0000  28.0000 Du        
   6734 ****        16.5000  18.0000  28.2500 Du        
   6735 ****        16.5000  18.0000  28.5000 Du        
   6736 ****        16.5000  18.2500  22.0000 Du        
   6737 ****        16.5000  18.2500  22.2500 Du        
   6738 ****        16.5000  18.2500  22.5000 Du        
   6739 ****        16.5000  18.2500  22.7500 Du        
   6740 ****        16.5000  18.2500  23.0000 Du        
   6741 ****        16.5000  18.2500  27.2500 Du        
   6742 ****        16.5000  18.2500  27.5000 Du        
   6743 ****        16.5000  18.2500  27.7500 Du        
   6744 ****        16.5000  18.2500  28.0000 Du        
   6745 ****        16.5000  18.2500  28.2500 Du        
   6746 ****        16.5000  18.2500  28.5000 Du        
   6747 ****        16.5000  18.2500  28.7500 Du        
   6748 ****        16.5000  18.5000  22.0000 Du        
   6749 ****        16.5000  18.5000  22.2500 Du        
   6750 ****        16.5000  18.5000  22.5000 Du        
   6751 ****        16.5000  18.5000  22.7500 Du        
   6752 ****        16.5000  18.5000  23.0000 Du        
   6753 ****        16.5000  18.5000  27.0000 Du        
   6754 ****        16.5000  18.5000  27.2500 Du        
   6755 ****        16.5000  18.5000  27.5000 Du        
   6756 ****        16.5000  18.5000  27.7500 Du        
   6757 ****        16.5000  18.5000  28.0000 Du        
   6758 ****        16.5000  18.5000  28.2500 Du        
   6759 ****        16.5000  18.5000  28.5000 Du        
   6760 ****        16.5000  18.5000  28.7500 Du        
   6761 ****        16.5000  18.7500  22.0000 Du        
   6762 ****        16.5000  18.7500  22.2500 Du        
   6763 ****        16.5000  18.7500  22.5000 Du        
   6764 ****        16.5000  18.7500  22.7500 Du        
   6765 ****        16.5000  18.7500  23.0000 Du        
   6766 ****        16.5000  18.7500  27.0000 Du        
   6767 ****        16.5000  18.7500  27.2500 Du        
   6768 ****        16.5000  18.7500  27.5000 Du        
   6769 ****        16.5000  18.7500  27.7500 Du        
   6770 ****        16.5000  18.7500  28.0000 Du        
   6771 ****        16.5000  18.7500  28.2500 Du        
   6772 ****        16.5000  18.7500  28.5000 Du        
   6773 ****        16.5000  19.0000  22.0000 Du        
   6774 ****        16.5000  19.0000  22.2500 Du        
   6775 ****        16.5000  19.0000  22.5000 Du        
   6776 ****        16.5000  19.0000  22.7500 Du        
   6777 ****        16.5000  19.0000  23.0000 Du        
   6778 ****        16.5000  19.0000  26.7500 Du        
   6779 ****        16.5000  19.0000  27.0000 Du        
   6780 ****        16.5000  19.0000  27.2500 Du        
   6781 ****        16.5000  19.0000  27.5000 Du        
   6782 ****        16.5000  19.0000  27.7500 Du        
   6783 ****        16.5000  19.0000  28.0000 Du        
   6784 ****        16.5000  19.0000  28.2500 Du        
   6785 ****        16.5000  19.2500  22.0000 Du        
   6786 ****        16.5000  19.2500  22.2500 Du        
   6787 ****        16.5000  19.2500  22.5000 Du        
   6788 ****        16.5000  19.2500  22.7500 Du        
   6789 ****        16.5000  19.2500  23.0000 Du        
   6790 ****        16.5000  19.2500  26.7500 Du        
   6791 ****        16.5000  19.2500  27.0000 Du        
   6792 ****        16.5000  19.2500  27.2500 Du        
   6793 ****        16.5000  19.2500  27.5000 Du        
   6794 ****        16.5000  19.2500  27.7500 Du        
   6795 ****        16.5000  19.5000  22.0000 Du        
   6796 ****        16.5000  19.5000  22.2500 Du        
   6797 ****        16.5000  19.5000  22.5000 Du        
   6798 ****        16.5000  19.5000  22.7500 Du        
   6799 ****        16.5000  19.5000  23.0000 Du        
   6800 ****        16.5000  19.5000  23.2500 Du        
   6801 ****        16.5000  19.5000  26.5000 Du        
   6802 ****        16.5000  19.5000  26.7500 Du        
   6803 ****        16.5000  19.5000  27.0000 Du        
   6804 ****        16.5000  19.5000  27.2500 Du        
   6805 ****        16.5000  19.7500  22.0000 Du        
   6806 ****        16.5000  19.7500  22.2500 Du        
   6807 ****        16.5000  19.7500  22.5000 Du        
   6808 ****        16.5000  19.7500  22.7500 Du        
   6809 ****        16.5000  19.7500  23.0000 Du        
   6810 ****        16.5000  19.7500  23.2500 Du        
   6811 ****        16.5000  19.7500  26.5000 Du        
   6812 ****        16.5000  19.7500  26.7500 Du        
   6813 ****        16.5000  20.0000  22.2500 Du        
   6814 ****        16.5000  20.0000  22.5000 Du        
   6815 ****        16.5000  20.0000  22.7500 Du        
   6816 ****        16.5000  20.0000  23.0000 Du        
   6817 ****        16.5000  20.0000  23.2500 Du        
   6818 ****        16.5000  20.2500  22.2500 Du        
   6819 ****        16.5000  20.2500  22.5000 Du        
   6820 ****        16.5000  20.2500  22.7500 Du        
   6821 ****        16.5000  20.2500  23.0000 Du        
   6822 ****        16.5000  20.2500  23.2500 Du        
   6823 ****        16.5000  20.5000  22.2500 Du        
   6824 ****        16.5000  20.5000  22.5000 Du        
   6825 ****        16.5000  20.5000  22.7500 Du        
   6826 ****        16.5000  20.5000  23.0000 Du        
   6827 ****        16.5000  20.5000  23.2500 Du        
   6828 ****        16.5000  20.7500  22.2500 Du        
   6829 ****        16.5000  20.7500  22.5000 Du        
   6830 ****        16.5000  20.7500  22.7500 Du        
   6831 ****        16.5000  20.7500  23.0000 Du        
   6832 ****        16.5000  20.7500  23.2500 Du        
   6833 ****        16.5000  21.0000  22.5000 Du        
   6834 ****        16.5000  21.0000  22.7500 Du        
   6835 ****        16.5000  21.0000  23.0000 Du        
   6836 ****        16.5000  21.0000  23.2500 Du        
   6837 ****        16.5000  21.2500  22.5000 Du        
   6838 ****        16.5000  21.2500  22.7500 Du        
   6839 ****        16.5000  21.2500  23.0000 Du        
   6840 ****        16.5000  21.2500  23.2500 Du        
   6841 ****        16.5000  21.5000  22.7500 Du        
   6842 ****        16.5000  21.5000  23.0000 Du        
   6843 ****        16.5000  21.5000  23.2500 Du        
   6844 ****        16.5000  21.7500  22.7500 Du        
   6845 ****        16.5000  21.7500  23.0000 Du        
   6846 ****        16.7500   9.5000  31.5000 Du        
   6847 ****        16.7500   9.5000  31.7500 Du        
   6848 ****        16.7500   9.5000  32.0000 Du        
   6849 ****        16.7500   9.5000  32.2500 Du        
   6850 ****        16.7500   9.5000  32.5000 Du        
   6851 ****        16.7500   9.7500  31.2500 Du        
   6852 ****        16.7500   9.7500  31.5000 Du        
   6853 ****        16.7500   9.7500  31.7500 Du        
   6854 ****        16.7500   9.7500  32.0000 Du        
   6855 ****        16.7500   9.7500  32.2500 Du        
   6856 ****        16.7500   9.7500  32.5000 Du        
   6857 ****        16.7500   9.7500  32.7500 Du        
   6858 ****        16.7500  10.0000  31.0000 Du        
   6859 ****        16.7500  10.0000  31.2500 Du        
   6860 ****        16.7500  10.0000  31.5000 Du        
   6861 ****        16.7500  10.0000  31.7500 Du        
   6862 ****        16.7500  10.0000  32.0000 Du        
   6863 ****        16.7500  10.0000  32.2500 Du        
   6864 ****        16.7500  10.0000  32.5000 Du        
   6865 ****        16.7500  10.2500  30.7500 Du        
   6866 ****        16.7500  10.2500  31.0000 Du        
   6867 ****        16.7500  10.2500  31.2500 Du        
   6868 ****        16.7500  10.2500  31.5000 Du        
   6869 ****        16.7500  10.2500  31.7500 Du        
   6870 ****        16.7500  10.2500  32.0000 Du        
   6871 ****        16.7500  10.2500  32.2500 Du        
   6872 ****        16.7500  10.5000  30.5000 Du        
   6873 ****        16.7500  10.5000  30.7500 Du        
   6874 ****        16.7500  10.5000  31.0000 Du        
   6875 ****        16.7500  10.5000  31.2500 Du        
   6876 ****        16.7500  10.5000  31.5000 Du        
   6877 ****        16.7500  10.5000  31.7500 Du        
   6878 ****        16.7500  10.5000  32.0000 Du        
   6879 ****        16.7500  10.7500  30.0000 Du        
   6880 ****        16.7500  10.7500  30.2500 Du        
   6881 ****        16.7500  10.7500  30.5000 Du        
   6882 ****        16.7500  10.7500  30.7500 Du        
   6883 ****        16.7500  10.7500  31.0000 Du        
   6884 ****        16.7500  10.7500  31.2500 Du        
   6885 ****        16.7500  10.7500  31.5000 Du        
   6886 ****        16.7500  10.7500  31.7500 Du        
   6887 ****        16.7500  11.0000  29.7500 Du        
   6888 ****        16.7500  11.0000  30.0000 Du        
   6889 ****        16.7500  11.0000  30.2500 Du        
   6890 ****        16.7500  11.0000  30.5000 Du        
   6891 ****        16.7500  11.0000  30.7500 Du        
   6892 ****        16.7500  11.0000  31.0000 Du        
   6893 ****        16.7500  11.0000  31.2500 Du        
   6894 ****        16.7500  11.0000  31.5000 Du        
   6895 ****        16.7500  11.2500  29.5000 Du        
   6896 ****        16.7500  11.2500  29.7500 Du        
   6897 ****        16.7500  11.2500  30.0000 Du        
   6898 ****        16.7500  11.2500  30.2500 Du        
   6899 ****        16.7500  11.2500  30.5000 Du        
   6900 ****        16.7500  11.2500  30.7500 Du        
   6901 ****        16.7500  11.2500  31.0000 Du        
   6902 ****        16.7500  11.2500  31.2500 Du        
   6903 ****        16.7500  11.2500  31.5000 Du        
   6904 ****        16.7500  11.5000  29.5000 Du        
   6905 ****        16.7500  11.5000  29.7500 Du        
   6906 ****        16.7500  11.5000  30.0000 Du        
   6907 ****        16.7500  11.5000  30.2500 Du        
   6908 ****        16.7500  11.5000  30.5000 Du        
   6909 ****        16.7500  11.5000  30.7500 Du        
   6910 ****        16.7500  11.5000  31.0000 Du        
   6911 ****        16.7500  11.5000  31.2500 Du        
   6912 ****        16.7500  11.7500  29.0000 Du        
   6913 ****        16.7500  11.7500  29.2500 Du        
   6914 ****        16.7500  11.7500  29.5000 Du        
   6915 ****        16.7500  11.7500  29.7500 Du        
   6916 ****        16.7500  11.7500  30.0000 Du        
   6917 ****        16.7500  11.7500  30.2500 Du        
   6918 ****        16.7500  11.7500  30.5000 Du        
   6919 ****        16.7500  11.7500  30.7500 Du        
   6920 ****        16.7500  11.7500  31.0000 Du        
   6921 ****        16.7500  12.0000  28.7500 Du        
   6922 ****        16.7500  12.0000  29.0000 Du        
   6923 ****        16.7500  12.0000  29.2500 Du        
   6924 ****        16.7500  12.0000  29.5000 Du        
   6925 ****        16.7500  12.0000  29.7500 Du        
   6926 ****        16.7500  12.0000  30.0000 Du        
   6927 ****        16.7500  12.0000  30.2500 Du        
   6928 ****        16.7500  12.0000  30.5000 Du        
   6929 ****        16.7500  12.0000  30.7500 Du        
   6930 ****        16.7500  12.2500  28.5000 Du        
   6931 ****        16.7500  12.2500  28.7500 Du        
   6932 ****        16.7500  12.2500  29.0000 Du        
   6933 ****        16.7500  12.2500  29.2500 Du        
   6934 ****        16.7500  12.2500  29.5000 Du        
   6935 ****        16.7500  12.2500  29.7500 Du        
   6936 ****        16.7500  12.2500  30.0000 Du        
   6937 ****        16.7500  12.2500  30.2500 Du        
   6938 ****        16.7500  12.2500  30.5000 Du        
   6939 ****        16.7500  12.5000  28.0000 Du        
   6940 ****        16.7500  12.5000  28.2500 Du        
   6941 ****        16.7500  12.5000  28.5000 Du        
   6942 ****        16.7500  12.5000  28.7500 Du        
   6943 ****        16.7500  12.5000  29.0000 Du        
   6944 ****        16.7500  12.5000  29.2500 Du        
   6945 ****        16.7500  12.5000  29.5000 Du        
   6946 ****        16.7500  12.5000  29.7500 Du        
   6947 ****        16.7500  12.5000  30.0000 Du        
   6948 ****        16.7500  12.5000  30.2500 Du        
   6949 ****        16.7500  12.7500  27.7500 Du        
   6950 ****        16.7500  12.7500  28.0000 Du        
   6951 ****        16.7500  12.7500  28.2500 Du        
   6952 ****        16.7500  12.7500  28.5000 Du        
   6953 ****        16.7500  12.7500  28.7500 Du        
   6954 ****        16.7500  12.7500  29.0000 Du        
   6955 ****        16.7500  12.7500  29.2500 Du        
   6956 ****        16.7500  12.7500  29.5000 Du        
   6957 ****        16.7500  12.7500  29.7500 Du        
   6958 ****        16.7500  12.7500  30.0000 Du        
   6959 ****        16.7500  13.0000  27.5000 Du        
   6960 ****        16.7500  13.0000  27.7500 Du        
   6961 ****        16.7500  13.0000  28.0000 Du        
   6962 ****        16.7500  13.0000  28.2500 Du        
   6963 ****        16.7500  13.0000  28.5000 Du        
   6964 ****        16.7500  13.0000  28.7500 Du        
   6965 ****        16.7500  13.0000  29.0000 Du        
   6966 ****        16.7500  13.0000  29.2500 Du        
   6967 ****        16.7500  13.0000  29.5000 Du        
   6968 ****        16.7500  13.0000  29.7500 Du        
   6969 ****        16.7500  13.2500  21.0000 Du        
   6970 ****        16.7500  13.2500  21.2500 Du        
   6971 ****        16.7500  13.2500  21.5000 Du        
   6972 ****        16.7500  13.2500  21.7500 Du        
   6973 ****        16.7500  13.2500  22.0000 Du        
   6974 ****        16.7500  13.2500  27.2500 Du        
   6975 ****        16.7500  13.2500  27.5000 Du        
   6976 ****        16.7500  13.2500  27.7500 Du        
   6977 ****        16.7500  13.2500  28.0000 Du        
   6978 ****        16.7500  13.2500  28.2500 Du        
   6979 ****        16.7500  13.2500  28.5000 Du        
   6980 ****        16.7500  13.2500  28.7500 Du        
   6981 ****        16.7500  13.2500  29.0000 Du        
   6982 ****        16.7500  13.2500  29.2500 Du        
   6983 ****        16.7500  13.2500  29.5000 Du        
   6984 ****        16.7500  13.5000  20.7500 Du        
   6985 ****        16.7500  13.5000  21.0000 Du        
   6986 ****        16.7500  13.5000  21.2500 Du        
   6987 ****        16.7500  13.5000  21.5000 Du        
   6988 ****        16.7500  13.5000  21.7500 Du        
   6989 ****        16.7500  13.5000  22.0000 Du        
   6990 ****        16.7500  13.5000  22.2500 Du        
   6991 ****        16.7500  13.5000  27.5000 Du        
   6992 ****        16.7500  13.5000  27.7500 Du        
   6993 ****        16.7500  13.5000  28.0000 Du        
   6994 ****        16.7500  13.5000  28.2500 Du        
   6995 ****        16.7500  13.5000  28.5000 Du        
   6996 ****        16.7500  13.5000  28.7500 Du        
   6997 ****        16.7500  13.5000  29.0000 Du        
   6998 ****        16.7500  13.5000  29.2500 Du        
   6999 ****        16.7500  13.7500  20.5000 Du        
   7000 ****        16.7500  13.7500  20.7500 Du        
   7001 ****        16.7500  13.7500  21.0000 Du        
   7002 ****        16.7500  13.7500  21.2500 Du        
   7003 ****        16.7500  13.7500  21.5000 Du        
   7004 ****        16.7500  13.7500  21.7500 Du        
   7005 ****        16.7500  13.7500  22.0000 Du        
   7006 ****        16.7500  13.7500  22.2500 Du        
   7007 ****        16.7500  13.7500  22.5000 Du        
   7008 ****        16.7500  13.7500  22.7500 Du        
   7009 ****        16.7500  13.7500  28.2500 Du        
   7010 ****        16.7500  13.7500  28.5000 Du        
   7011 ****        16.7500  13.7500  28.7500 Du        
   7012 ****        16.7500  14.0000  20.5000 Du        
   7013 ****        16.7500  14.0000  20.7500 Du        
   7014 ****        16.7500  14.0000  21.0000 Du        
   7015 ****        16.7500  14.0000  21.2500 Du        
   7016 ****        16.7500  14.0000  21.5000 Du        
   7017 ****        16.7500  14.0000  21.7500 Du        
   7018 ****        16.7500  14.0000  22.0000 Du        
   7019 ****        16.7500  14.0000  22.2500 Du        
   7020 ****        16.7500  14.0000  22.5000 Du        
   7021 ****        16.7500  14.0000  22.7500 Du        
   7022 ****        16.7500  14.0000  23.0000 Du        
   7023 ****        16.7500  14.0000  23.2500 Du        
   7024 ****        16.7500  14.2500  20.5000 Du        
   7025 ****        16.7500  14.2500  20.7500 Du        
   7026 ****        16.7500  14.2500  21.0000 Du        
   7027 ****        16.7500  14.2500  21.2500 Du        
   7028 ****        16.7500  14.2500  21.5000 Du        
   7029 ****        16.7500  14.2500  21.7500 Du        
   7030 ****        16.7500  14.2500  22.0000 Du        
   7031 ****        16.7500  14.2500  22.2500 Du        
   7032 ****        16.7500  14.2500  22.5000 Du        
   7033 ****        16.7500  14.2500  22.7500 Du        
   7034 ****        16.7500  14.2500  23.0000 Du        
   7035 ****        16.7500  14.2500  23.2500 Du        
   7036 ****        16.7500  14.5000  20.5000 Du        
   7037 ****        16.7500  14.5000  20.7500 Du        
   7038 ****        16.7500  14.5000  21.0000 Du        
   7039 ****        16.7500  14.5000  21.2500 Du        
   7040 ****        16.7500  14.5000  21.5000 Du        
   7041 ****        16.7500  14.5000  21.7500 Du        
   7042 ****        16.7500  14.5000  22.0000 Du        
   7043 ****        16.7500  14.5000  22.2500 Du        
   7044 ****        16.7500  14.5000  22.5000 Du        
   7045 ****        16.7500  14.5000  22.7500 Du        
   7046 ****        16.7500  14.5000  23.0000 Du        
   7047 ****        16.7500  14.5000  23.2500 Du        
   7048 ****        16.7500  14.7500  20.5000 Du        
   7049 ****        16.7500  14.7500  20.7500 Du        
   7050 ****        16.7500  14.7500  21.0000 Du        
   7051 ****        16.7500  14.7500  21.2500 Du        
   7052 ****        16.7500  14.7500  21.5000 Du        
   7053 ****        16.7500  14.7500  21.7500 Du        
   7054 ****        16.7500  14.7500  22.0000 Du        
   7055 ****        16.7500  14.7500  22.2500 Du        
   7056 ****        16.7500  14.7500  22.5000 Du        
   7057 ****        16.7500  14.7500  22.7500 Du        
   7058 ****        16.7500  14.7500  23.0000 Du        
   7059 ****        16.7500  14.7500  23.2500 Du        
   7060 ****        16.7500  15.0000  20.7500 Du        
   7061 ****        16.7500  15.0000  21.0000 Du        
   7062 ****        16.7500  15.0000  21.2500 Du        
   7063 ****        16.7500  15.0000  21.5000 Du        
   7064 ****        16.7500  15.0000  21.7500 Du        
   7065 ****        16.7500  15.0000  22.0000 Du        
   7066 ****        16.7500  15.0000  22.2500 Du        
   7067 ****        16.7500  15.0000  22.5000 Du        
   7068 ****        16.7500  15.0000  22.7500 Du        
   7069 ****        16.7500  15.0000  23.0000 Du        
   7070 ****        16.7500  15.0000  23.2500 Du        
   7071 ****        16.7500  15.2500  20.7500 Du        
   7072 ****        16.7500  15.2500  21.0000 Du        
   7073 ****        16.7500  15.2500  21.2500 Du        
   7074 ****        16.7500  15.2500  21.5000 Du        
   7075 ****        16.7500  15.2500  21.7500 Du        
   7076 ****        16.7500  15.2500  22.0000 Du        
   7077 ****        16.7500  15.2500  22.2500 Du        
   7078 ****        16.7500  15.2500  22.5000 Du        
   7079 ****        16.7500  15.2500  22.7500 Du        
   7080 ****        16.7500  15.2500  23.0000 Du        
   7081 ****        16.7500  15.5000  20.7500 Du        
   7082 ****        16.7500  15.5000  21.0000 Du        
   7083 ****        16.7500  15.5000  21.2500 Du        
   7084 ****        16.7500  15.5000  21.5000 Du        
   7085 ****        16.7500  15.5000  21.7500 Du        
   7086 ****        16.7500  15.5000  22.0000 Du        
   7087 ****        16.7500  15.5000  22.2500 Du        
   7088 ****        16.7500  15.5000  22.5000 Du        
   7089 ****        16.7500  15.5000  22.7500 Du        
   7090 ****        16.7500  15.5000  23.0000 Du        
   7091 ****        16.7500  15.7500  21.0000 Du        
   7092 ****        16.7500  15.7500  21.2500 Du        
   7093 ****        16.7500  15.7500  21.5000 Du        
   7094 ****        16.7500  15.7500  21.7500 Du        
   7095 ****        16.7500  15.7500  22.0000 Du        
   7096 ****        16.7500  15.7500  22.2500 Du        
   7097 ****        16.7500  15.7500  22.5000 Du        
   7098 ****        16.7500  15.7500  22.7500 Du        
   7099 ****        16.7500  16.0000  21.0000 Du        
   7100 ****        16.7500  16.0000  21.2500 Du        
   7101 ****        16.7500  16.0000  21.5000 Du        
   7102 ****        16.7500  16.0000  21.7500 Du        
   7103 ****        16.7500  16.0000  22.0000 Du        
   7104 ****        16.7500  16.0000  22.2500 Du        
   7105 ****        16.7500  16.0000  22.5000 Du        
   7106 ****        16.7500  16.2500  21.0000 Du        
   7107 ****        16.7500  16.2500  21.2500 Du        
   7108 ****        16.7500  16.2500  21.5000 Du        
   7109 ****        16.7500  16.2500  21.7500 Du        
   7110 ****        16.7500  16.2500  22.0000 Du        
   7111 ****        16.7500  16.2500  22.2500 Du        
   7112 ****        16.7500  16.2500  22.5000 Du        
   7113 ****        16.7500  16.5000  21.2500 Du        
   7114 ****        16.7500  16.5000  21.5000 Du        
   7115 ****        16.7500  16.5000  21.7500 Du        
   7116 ****        16.7500  16.5000  22.0000 Du        
   7117 ****        16.7500  16.5000  22.2500 Du        
   7118 ****        16.7500  16.7500  21.2500 Du        
   7119 ****        16.7500  16.7500  21.5000 Du        
   7120 ****        16.7500  16.7500  21.7500 Du        
   7121 ****        16.7500  16.7500  22.0000 Du        
   7122 ****        16.7500  16.7500  22.2500 Du        
   7123 ****        16.7500  17.0000  21.2500 Du        
   7124 ****        16.7500  17.0000  21.5000 Du        
   7125 ****        16.7500  17.0000  21.7500 Du        
   7126 ****        16.7500  17.0000  22.0000 Du        
   7127 ****        16.7500  17.0000  22.2500 Du        
   7128 ****        16.7500  17.2500  21.5000 Du        
   7129 ****        16.7500  17.2500  21.7500 Du        
   7130 ****        16.7500  17.2500  22.0000 Du        
   7131 ****        16.7500  17.2500  22.2500 Du        
   7132 ****        16.7500  17.2500  22.5000 Du        
   7133 ****        16.7500  17.5000  21.7500 Du        
   7134 ****        16.7500  17.5000  22.0000 Du        
   7135 ****        16.7500  17.5000  22.2500 Du        
   7136 ****        16.7500  17.5000  22.5000 Du        
   7137 ****        16.7500  17.7500  21.7500 Du        
   7138 ****        16.7500  17.7500  22.0000 Du        
   7139 ****        16.7500  17.7500  22.2500 Du        
   7140 ****        16.7500  17.7500  22.5000 Du        
   7141 ****        16.7500  17.7500  27.7500 Du        
   7142 ****        16.7500  17.7500  28.0000 Du        
   7143 ****        16.7500  17.7500  28.2500 Du        
   7144 ****        16.7500  17.7500  28.5000 Du        
   7145 ****        16.7500  18.0000  22.0000 Du        
   7146 ****        16.7500  18.0000  22.2500 Du        
   7147 ****        16.7500  18.0000  22.5000 Du        
   7148 ****        16.7500  18.0000  22.7500 Du        
   7149 ****        16.7500  18.0000  27.7500 Du        
   7150 ****        16.7500  18.0000  28.0000 Du        
   7151 ****        16.7500  18.0000  28.2500 Du        
   7152 ****        16.7500  18.0000  28.5000 Du        
   7153 ****        16.7500  18.2500  22.0000 Du        
   7154 ****        16.7500  18.2500  22.2500 Du        
   7155 ****        16.7500  18.2500  22.5000 Du        
   7156 ****        16.7500  18.2500  22.7500 Du        
   7157 ****        16.7500  18.2500  27.5000 Du        
   7158 ****        16.7500  18.2500  27.7500 Du        
   7159 ****        16.7500  18.2500  28.0000 Du        
   7160 ****        16.7500  18.2500  28.2500 Du        
   7161 ****        16.7500  18.2500  28.5000 Du        
   7162 ****        16.7500  18.2500  28.7500 Du        
   7163 ****        16.7500  18.5000  22.0000 Du        
   7164 ****        16.7500  18.5000  22.2500 Du        
   7165 ****        16.7500  18.5000  22.5000 Du        
   7166 ****        16.7500  18.5000  22.7500 Du        
   7167 ****        16.7500  18.5000  23.0000 Du        
   7168 ****        16.7500  18.5000  27.2500 Du        
   7169 ****        16.7500  18.5000  27.5000 Du        
   7170 ****        16.7500  18.5000  27.7500 Du        
   7171 ****        16.7500  18.5000  28.0000 Du        
   7172 ****        16.7500  18.5000  28.2500 Du        
   7173 ****        16.7500  18.5000  28.5000 Du        
   7174 ****        16.7500  18.5000  28.7500 Du        
   7175 ****        16.7500  18.7500  22.0000 Du        
   7176 ****        16.7500  18.7500  22.2500 Du        
   7177 ****        16.7500  18.7500  22.5000 Du        
   7178 ****        16.7500  18.7500  22.7500 Du        
   7179 ****        16.7500  18.7500  23.0000 Du        
   7180 ****        16.7500  18.7500  27.2500 Du        
   7181 ****        16.7500  18.7500  27.5000 Du        
   7182 ****        16.7500  18.7500  27.7500 Du        
   7183 ****        16.7500  18.7500  28.0000 Du        
   7184 ****        16.7500  18.7500  28.2500 Du        
   7185 ****        16.7500  18.7500  28.5000 Du        
   7186 ****        16.7500  19.0000  22.0000 Du        
   7187 ****        16.7500  19.0000  22.2500 Du        
   7188 ****        16.7500  19.0000  22.5000 Du        
   7189 ****        16.7500  19.0000  22.7500 Du        
   7190 ****        16.7500  19.0000  23.0000 Du        
   7191 ****        16.7500  19.0000  27.0000 Du        
   7192 ****        16.7500  19.0000  27.2500 Du        
   7193 ****        16.7500  19.0000  27.5000 Du        
   7194 ****        16.7500  19.0000  27.7500 Du        
   7195 ****        16.7500  19.0000  28.0000 Du        
   7196 ****        16.7500  19.0000  28.2500 Du        
   7197 ****        16.7500  19.2500  22.0000 Du        
   7198 ****        16.7500  19.2500  22.2500 Du        
   7199 ****        16.7500  19.2500  22.5000 Du        
   7200 ****        16.7500  19.2500  22.7500 Du        
   7201 ****        16.7500  19.2500  23.0000 Du        
   7202 ****        16.7500  19.2500  26.7500 Du        
   7203 ****        16.7500  19.2500  27.0000 Du        
   7204 ****        16.7500  19.2500  27.2500 Du        
   7205 ****        16.7500  19.2500  27.5000 Du        
   7206 ****        16.7500  19.2500  27.7500 Du        
   7207 ****        16.7500  19.5000  22.2500 Du        
   7208 ****        16.7500  19.5000  22.5000 Du        
   7209 ****        16.7500  19.5000  22.7500 Du        
   7210 ****        16.7500  19.5000  23.0000 Du        
   7211 ****        16.7500  19.5000  27.0000 Du        
   7212 ****        16.7500  19.7500  22.2500 Du        
   7213 ****        16.7500  19.7500  22.5000 Du        
   7214 ****        16.7500  19.7500  22.7500 Du        
   7215 ****        16.7500  19.7500  23.0000 Du        
   7216 ****        16.7500  19.7500  23.2500 Du        
   7217 ****        16.7500  20.0000  22.5000 Du        
   7218 ****        16.7500  20.0000  22.7500 Du        
   7219 ****        16.7500  20.0000  23.0000 Du        
   7220 ****        16.7500  20.0000  23.2500 Du        
   7221 ****        16.7500  20.2500  22.5000 Du        
   7222 ****        16.7500  20.2500  22.7500 Du        
   7223 ****        16.7500  20.2500  23.0000 Du        
   7224 ****        16.7500  20.2500  23.2500 Du        
   7225 ****        16.7500  20.5000  22.7500 Du        
   7226 ****        16.7500  20.5000  23.0000 Du        
   7227 ****        16.7500  20.5000  23.2500 Du        
   7228 ****        16.7500  20.7500  22.7500 Du        
   7229 ****        16.7500  20.7500  23.0000 Du        
   7230 ****        16.7500  20.7500  23.2500 Du        
   7231 ****        16.7500  21.0000  22.7500 Du        
   7232 ****        16.7500  21.0000  23.0000 Du        
   7233 ****        16.7500  21.0000  23.2500 Du        
   7234 ****        16.7500  21.2500  22.7500 Du        
   7235 ****        16.7500  21.2500  23.0000 Du        
   7236 ****        16.7500  21.2500  23.2500 Du        
   7237 ****        16.7500  21.2500  23.5000 Du        
   7238 ****        16.7500  21.2500  23.7500 Du        
   7239 ****        16.7500  21.5000  22.7500 Du        
   7240 ****        16.7500  21.5000  23.0000 Du        
   7241 ****        16.7500  21.5000  23.2500 Du        
   7242 ****        16.7500  21.5000  23.5000 Du        
   7243 ****        16.7500  21.7500  22.7500 Du        
   7244 ****        16.7500  21.7500  23.0000 Du        
   7245 ****        16.7500  21.7500  23.2500 Du        
   7246 ****        16.7500  21.7500  23.5000 Du        
   7247 ****        16.7500  22.0000  22.7500 Du        
   7248 ****        16.7500  22.0000  23.0000 Du        
   7249 ****        16.7500  22.0000  23.2500 Du        
   7250 ****        17.0000   9.5000  31.5000 Du        
   7251 ****        17.0000   9.5000  31.7500 Du        
   7252 ****        17.0000   9.5000  32.0000 Du        
   7253 ****        17.0000   9.7500  31.0000 Du        
   7254 ****        17.0000   9.7500  31.2500 Du        
   7255 ****        17.0000   9.7500  31.5000 Du        
   7256 ****        17.0000   9.7500  31.7500 Du        
   7257 ****        17.0000   9.7500  32.0000 Du        
   7258 ****        17.0000   9.7500  32.2500 Du        
   7259 ****        17.0000   9.7500  32.5000 Du        
   7260 ****        17.0000  10.0000  30.7500 Du        
   7261 ****        17.0000  10.0000  31.0000 Du        
   7262 ****        17.0000  10.0000  31.2500 Du        
   7263 ****        17.0000  10.0000  31.5000 Du        
   7264 ****        17.0000  10.0000  31.7500 Du        
   7265 ****        17.0000  10.0000  32.0000 Du        
   7266 ****        17.0000  10.0000  32.2500 Du        
   7267 ****        17.0000  10.0000  32.5000 Du        
   7268 ****        17.0000  10.2500  30.5000 Du        
   7269 ****        17.0000  10.2500  30.7500 Du        
   7270 ****        17.0000  10.2500  31.0000 Du        
   7271 ****        17.0000  10.2500  31.2500 Du        
   7272 ****        17.0000  10.2500  31.5000 Du        
   7273 ****        17.0000  10.2500  31.7500 Du        
   7274 ****        17.0000  10.2500  32.0000 Du        
   7275 ****        17.0000  10.2500  32.2500 Du        
   7276 ****        17.0000  10.5000  30.2500 Du        
   7277 ****        17.0000  10.5000  30.5000 Du        
   7278 ****        17.0000  10.5000  30.7500 Du        
   7279 ****        17.0000  10.5000  31.0000 Du        
   7280 ****        17.0000  10.5000  31.2500 Du        
   7281 ****        17.0000  10.5000  31.5000 Du        
   7282 ****        17.0000  10.5000  31.7500 Du        
   7283 ****        17.0000  10.5000  32.0000 Du        
   7284 ****        17.0000  10.7500  30.0000 Du        
   7285 ****        17.0000  10.7500  30.2500 Du        
   7286 ****        17.0000  10.7500  30.5000 Du        
   7287 ****        17.0000  10.7500  30.7500 Du        
   7288 ****        17.0000  10.7500  31.0000 Du        
   7289 ****        17.0000  10.7500  31.2500 Du        
   7290 ****        17.0000  10.7500  31.5000 Du        
   7291 ****        17.0000  10.7500  31.7500 Du        
   7292 ****        17.0000  11.0000  29.7500 Du        
   7293 ****        17.0000  11.0000  30.0000 Du        
   7294 ****        17.0000  11.0000  30.2500 Du        
   7295 ****        17.0000  11.0000  30.5000 Du        
   7296 ****        17.0000  11.0000  30.7500 Du        
   7297 ****        17.0000  11.0000  31.0000 Du        
   7298 ****        17.0000  11.0000  31.2500 Du        
   7299 ****        17.0000  11.0000  31.5000 Du        
   7300 ****        17.0000  11.0000  31.7500 Du        
   7301 ****        17.0000  11.2500  29.5000 Du        
   7302 ****        17.0000  11.2500  29.7500 Du        
   7303 ****        17.0000  11.2500  30.0000 Du        
   7304 ****        17.0000  11.2500  30.2500 Du        
   7305 ****        17.0000  11.2500  30.5000 Du        
   7306 ****        17.0000  11.2500  30.7500 Du        
   7307 ****        17.0000  11.2500  31.0000 Du        
   7308 ****        17.0000  11.2500  31.2500 Du        
   7309 ****        17.0000  11.2500  31.5000 Du        
   7310 ****        17.0000  11.5000  29.5000 Du        
   7311 ****        17.0000  11.5000  29.7500 Du        
   7312 ****        17.0000  11.5000  30.0000 Du        
   7313 ****        17.0000  11.5000  30.2500 Du        
   7314 ****        17.0000  11.5000  30.5000 Du        
   7315 ****        17.0000  11.5000  30.7500 Du        
   7316 ****        17.0000  11.5000  31.0000 Du        
   7317 ****        17.0000  11.5000  31.2500 Du        
   7318 ****        17.0000  11.7500  29.0000 Du        
   7319 ****        17.0000  11.7500  29.2500 Du        
   7320 ****        17.0000  11.7500  29.5000 Du        
   7321 ****        17.0000  11.7500  29.7500 Du        
   7322 ****        17.0000  11.7500  30.0000 Du        
   7323 ****        17.0000  11.7500  30.2500 Du        
   7324 ****        17.0000  11.7500  30.5000 Du        
   7325 ****        17.0000  11.7500  30.7500 Du        
   7326 ****        17.0000  11.7500  31.0000 Du        
   7327 ****        17.0000  12.0000  28.7500 Du        
   7328 ****        17.0000  12.0000  29.0000 Du        
   7329 ****        17.0000  12.0000  29.2500 Du        
   7330 ****        17.0000  12.0000  29.5000 Du        
   7331 ****        17.0000  12.0000  29.7500 Du        
   7332 ****        17.0000  12.0000  30.0000 Du        
   7333 ****        17.0000  12.0000  30.2500 Du        
   7334 ****        17.0000  12.0000  30.5000 Du        
   7335 ****        17.0000  12.0000  30.7500 Du        
   7336 ****        17.0000  12.2500  28.5000 Du        
   7337 ****        17.0000  12.2500  28.7500 Du        
   7338 ****        17.0000  12.2500  29.0000 Du        
   7339 ****        17.0000  12.2500  29.2500 Du        
   7340 ****        17.0000  12.2500  29.5000 Du        
   7341 ****        17.0000  12.2500  29.7500 Du        
   7342 ****        17.0000  12.2500  30.0000 Du        
   7343 ****        17.0000  12.2500  30.2500 Du        
   7344 ****        17.0000  12.2500  30.5000 Du        
   7345 ****        17.0000  12.5000  28.0000 Du        
   7346 ****        17.0000  12.5000  28.2500 Du        
   7347 ****        17.0000  12.5000  28.5000 Du        
   7348 ****        17.0000  12.5000  28.7500 Du        
   7349 ****        17.0000  12.5000  29.0000 Du        
   7350 ****        17.0000  12.5000  29.2500 Du        
   7351 ****        17.0000  12.5000  29.5000 Du        
   7352 ****        17.0000  12.5000  29.7500 Du        
   7353 ****        17.0000  12.5000  30.0000 Du        
   7354 ****        17.0000  12.5000  30.2500 Du        
   7355 ****        17.0000  12.7500  27.7500 Du        
   7356 ****        17.0000  12.7500  28.0000 Du        
   7357 ****        17.0000  12.7500  28.2500 Du        
   7358 ****        17.0000  12.7500  28.5000 Du        
   7359 ****        17.0000  12.7500  28.7500 Du        
   7360 ****        17.0000  12.7500  29.0000 Du        
   7361 ****        17.0000  12.7500  29.2500 Du        
   7362 ****        17.0000  12.7500  29.5000 Du        
   7363 ****        17.0000  12.7500  29.7500 Du        
   7364 ****        17.0000  12.7500  30.0000 Du        
   7365 ****        17.0000  13.0000  27.5000 Du        
   7366 ****        17.0000  13.0000  27.7500 Du        
   7367 ****        17.0000  13.0000  28.0000 Du        
   7368 ****        17.0000  13.0000  28.2500 Du        
   7369 ****        17.0000  13.0000  28.5000 Du        
   7370 ****        17.0000  13.0000  28.7500 Du        
   7371 ****        17.0000  13.0000  29.0000 Du        
   7372 ****        17.0000  13.0000  29.2500 Du        
   7373 ****        17.0000  13.0000  29.5000 Du        
   7374 ****        17.0000  13.0000  29.7500 Du        
   7375 ****        17.0000  13.0000  30.0000 Du        
   7376 ****        17.0000  13.2500  21.2500 Du        
   7377 ****        17.0000  13.2500  21.5000 Du        
   7378 ****        17.0000  13.2500  21.7500 Du        
   7379 ****        17.0000  13.2500  27.7500 Du        
   7380 ****        17.0000  13.2500  28.0000 Du        
   7381 ****        17.0000  13.2500  28.2500 Du        
   7382 ****        17.0000  13.2500  28.5000 Du        
   7383 ****        17.0000  13.2500  28.7500 Du        
   7384 ****        17.0000  13.2500  29.0000 Du        
   7385 ****        17.0000  13.2500  29.2500 Du        
   7386 ****        17.0000  13.2500  29.5000 Du        
   7387 ****        17.0000  13.2500  29.7500 Du        
   7388 ****        17.0000  13.5000  21.0000 Du        
   7389 ****        17.0000  13.5000  21.2500 Du        
   7390 ****        17.0000  13.5000  21.5000 Du        
   7391 ****        17.0000  13.5000  21.7500 Du        
   7392 ****        17.0000  13.5000  22.0000 Du        
   7393 ****        17.0000  13.5000  28.0000 Du        
   7394 ****        17.0000  13.5000  28.2500 Du        
   7395 ****        17.0000  13.5000  28.5000 Du        
   7396 ****        17.0000  13.5000  28.7500 Du        
   7397 ****        17.0000  13.5000  29.0000 Du        
   7398 ****        17.0000  13.5000  29.2500 Du        
   7399 ****        17.0000  13.7500  20.7500 Du        
   7400 ****        17.0000  13.7500  21.0000 Du        
   7401 ****        17.0000  13.7500  21.2500 Du        
   7402 ****        17.0000  13.7500  21.5000 Du        
   7403 ****        17.0000  13.7500  21.7500 Du        
   7404 ****        17.0000  13.7500  22.0000 Du        
   7405 ****        17.0000  13.7500  22.2500 Du        
   7406 ****        17.0000  14.0000  20.7500 Du        
   7407 ****        17.0000  14.0000  21.0000 Du        
   7408 ****        17.0000  14.0000  21.2500 Du        
   7409 ****        17.0000  14.0000  21.5000 Du        
   7410 ****        17.0000  14.0000  21.7500 Du        
   7411 ****        17.0000  14.0000  22.0000 Du        
   7412 ****        17.0000  14.0000  22.2500 Du        
   7413 ****        17.0000  14.0000  22.5000 Du        
   7414 ****        17.0000  14.2500  20.7500 Du        
   7415 ****        17.0000  14.2500  21.0000 Du        
   7416 ****        17.0000  14.2500  21.2500 Du        
   7417 ****        17.0000  14.2500  21.5000 Du        
   7418 ****        17.0000  14.2500  21.7500 Du        
   7419 ****        17.0000  14.2500  22.0000 Du        
   7420 ****        17.0000  14.2500  22.2500 Du        
   7421 ****        17.0000  14.2500  22.5000 Du        
   7422 ****        17.0000  14.2500  22.7500 Du        
   7423 ****        17.0000  14.5000  21.0000 Du        
   7424 ****        17.0000  14.5000  21.2500 Du        
   7425 ****        17.0000  14.5000  21.5000 Du        
   7426 ****        17.0000  14.5000  21.7500 Du        
   7427 ****        17.0000  14.5000  22.0000 Du        
   7428 ****        17.0000  14.5000  22.2500 Du        
   7429 ****        17.0000  14.5000  22.5000 Du        
   7430 ****        17.0000  14.5000  22.7500 Du        
   7431 ****        17.0000  14.5000  23.0000 Du        
   7432 ****        17.0000  14.7500  21.0000 Du        
   7433 ****        17.0000  14.7500  21.2500 Du        
   7434 ****        17.0000  14.7500  21.5000 Du        
   7435 ****        17.0000  14.7500  21.7500 Du        
   7436 ****        17.0000  14.7500  22.0000 Du        
   7437 ****        17.0000  14.7500  22.2500 Du        
   7438 ****        17.0000  14.7500  22.5000 Du        
   7439 ****        17.0000  14.7500  22.7500 Du        
   7440 ****        17.0000  14.7500  23.0000 Du        
   7441 ****        17.0000  15.0000  21.2500 Du        
   7442 ****        17.0000  15.0000  21.5000 Du        
   7443 ****        17.0000  15.0000  21.7500 Du        
   7444 ****        17.0000  15.0000  22.0000 Du        
   7445 ****        17.0000  15.0000  22.2500 Du        
   7446 ****        17.0000  15.0000  22.5000 Du        
   7447 ****        17.0000  15.0000  22.7500 Du        
   7448 ****        17.0000  15.0000  23.0000 Du        
   7449 ****        17.0000  15.2500  21.2500 Du        
   7450 ****        17.0000  15.2500  21.5000 Du        
   7451 ****        17.0000  15.2500  21.7500 Du        
   7452 ****        17.0000  15.2500  22.0000 Du        
   7453 ****        17.0000  15.2500  22.2500 Du        
   7454 ****        17.0000  15.2500  22.5000 Du        
   7455 ****        17.0000  15.2500  22.7500 Du        
   7456 ****        17.0000  15.5000  21.5000 Du        
   7457 ****        17.0000  15.5000  21.7500 Du        
   7458 ****        17.0000  15.5000  22.0000 Du        
   7459 ****        17.0000  15.5000  22.2500 Du        
   7460 ****        17.0000  15.5000  22.5000 Du        
   7461 ****        17.0000  15.7500  21.5000 Du        
   7462 ****        17.0000  15.7500  21.7500 Du        
   7463 ****        17.0000  15.7500  22.0000 Du        
   7464 ****        17.0000  15.7500  22.2500 Du        
   7465 ****        17.0000  16.0000  21.7500 Du        
   7466 ****        17.0000  16.0000  22.0000 Du        
   7467 ****        17.0000  16.0000  22.2500 Du        
   7468 ****        17.0000  16.2500  21.7500 Du        
   7469 ****        17.0000  16.2500  22.0000 Du        
   7470 ****        17.0000  16.5000  22.0000 Du        
   7471 ****        17.0000  16.7500  22.0000 Du        
   7472 ****        17.0000  17.0000  21.7500 Du        
   7473 ****        17.0000  17.0000  22.0000 Du        
   7474 ****        17.0000  17.2500  21.7500 Du        
   7475 ****        17.0000  17.2500  22.0000 Du        
   7476 ****        17.0000  17.2500  22.2500 Du        
   7477 ****        17.0000  17.5000  22.0000 Du        
   7478 ****        17.0000  17.5000  22.2500 Du        
   7479 ****        17.0000  17.7500  22.0000 Du        
   7480 ****        17.0000  17.7500  22.2500 Du        
   7481 ****        17.0000  17.7500  28.2500 Du        
   7482 ****        17.0000  17.7500  28.5000 Du        
   7483 ****        17.0000  18.0000  22.0000 Du        
   7484 ****        17.0000  18.0000  22.2500 Du        
   7485 ****        17.0000  18.0000  22.5000 Du        
   7486 ****        17.0000  18.0000  27.7500 Du        
   7487 ****        17.0000  18.0000  28.0000 Du        
   7488 ****        17.0000  18.0000  28.2500 Du        
   7489 ****        17.0000  18.0000  28.5000 Du        
   7490 ****        17.0000  18.2500  22.0000 Du        
   7491 ****        17.0000  18.2500  22.2500 Du        
   7492 ****        17.0000  18.2500  22.5000 Du        
   7493 ****        17.0000  18.2500  27.7500 Du        
   7494 ****        17.0000  18.2500  28.0000 Du        
   7495 ****        17.0000  18.2500  28.2500 Du        
   7496 ****        17.0000  18.2500  28.5000 Du        
   7497 ****        17.0000  18.2500  28.7500 Du        
   7498 ****        17.0000  18.5000  22.2500 Du        
   7499 ****        17.0000  18.5000  22.5000 Du        
   7500 ****        17.0000  18.5000  22.7500 Du        
   7501 ****        17.0000  18.5000  27.5000 Du        
   7502 ****        17.0000  18.5000  27.7500 Du        
   7503 ****        17.0000  18.5000  28.0000 Du        
   7504 ****        17.0000  18.5000  28.2500 Du        
   7505 ****        17.0000  18.5000  28.5000 Du        
   7506 ****        17.0000  18.5000  28.7500 Du        
   7507 ****        17.0000  18.7500  22.2500 Du        
   7508 ****        17.0000  18.7500  22.5000 Du        
   7509 ****        17.0000  18.7500  22.7500 Du        
   7510 ****        17.0000  18.7500  27.5000 Du        
   7511 ****        17.0000  18.7500  27.7500 Du        
   7512 ****        17.0000  18.7500  28.0000 Du        
   7513 ****        17.0000  18.7500  28.2500 Du        
   7514 ****        17.0000  18.7500  28.5000 Du        
   7515 ****        17.0000  19.0000  22.2500 Du        
   7516 ****        17.0000  19.0000  22.5000 Du        
   7517 ****        17.0000  19.0000  22.7500 Du        
   7518 ****        17.0000  19.0000  23.0000 Du        
   7519 ****        17.0000  19.0000  27.2500 Du        
   7520 ****        17.0000  19.0000  27.5000 Du        
   7521 ****        17.0000  19.0000  27.7500 Du        
   7522 ****        17.0000  19.0000  28.0000 Du        
   7523 ****        17.0000  19.2500  22.2500 Du        
   7524 ****        17.0000  19.2500  22.5000 Du        
   7525 ****        17.0000  19.2500  22.7500 Du        
   7526 ****        17.0000  19.2500  27.2500 Du        
   7527 ****        17.0000  19.2500  27.5000 Du        
   7528 ****        17.0000  19.2500  27.7500 Du        
   7529 ****        17.0000  19.5000  22.5000 Du        
   7530 ****        17.0000  19.5000  22.7500 Du        
   7531 ****        17.0000  19.5000  23.0000 Du        
   7532 ****        17.0000  19.7500  22.5000 Du        
   7533 ****        17.0000  19.7500  22.7500 Du        
   7534 ****        17.0000  19.7500  23.0000 Du        
   7535 ****        17.0000  20.0000  22.7500 Du        
   7536 ****        17.0000  20.0000  23.0000 Du        
   7537 ****        17.0000  20.0000  23.2500 Du        
   7538 ****        17.0000  20.2500  22.7500 Du        
   7539 ****        17.0000  20.2500  23.0000 Du        
   7540 ****        17.0000  20.2500  23.2500 Du        
   7541 ****        17.0000  20.5000  22.7500 Du        
   7542 ****        17.0000  20.5000  23.0000 Du        
   7543 ****        17.0000  20.5000  23.2500 Du        
   7544 ****        17.0000  20.7500  22.7500 Du        
   7545 ****        17.0000  20.7500  23.0000 Du        
   7546 ****        17.0000  20.7500  23.2500 Du        
   7547 ****        17.0000  21.0000  22.7500 Du        
   7548 ****        17.0000  21.0000  23.0000 Du        
   7549 ****        17.0000  21.0000  23.2500 Du        
   7550 ****        17.0000  21.2500  22.7500 Du        
   7551 ****        17.0000  21.2500  23.0000 Du        
   7552 ****        17.0000  21.2500  23.2500 Du        
   7553 ****        17.0000  21.2500  23.5000 Du        
   7554 ****        17.0000  21.2500  23.7500 Du        
   7555 ****        17.0000  21.5000  23.0000 Du        
   7556 ****        17.0000  21.5000  23.2500 Du        
   7557 ****        17.0000  21.5000  23.7500 Du        
   7558 ****        17.0000  21.7500  23.0000 Du        
   7559 ****        17.0000  21.7500  23.2500 Du        
   7560 ****        17.0000  21.7500  23.5000 Du        
   7561 ****        17.0000  21.7500  23.7500 Du        
   7562 ****        17.0000  22.0000  22.7500 Du        
   7563 ****        17.0000  22.0000  23.0000 Du        
   7564 ****        17.0000  22.0000  23.2500 Du        
   7565 ****        17.0000  22.0000  23.5000 Du        
   7566 ****        17.0000  22.0000  23.7500 Du        
   7567 ****        17.0000  22.2500  23.0000 Du        
   7568 ****        17.0000  22.5000  23.2500 Du        
   7569 ****        17.2500   9.7500  31.0000 Du        
   7570 ****        17.2500   9.7500  31.2500 Du        
   7571 ****        17.2500   9.7500  31.5000 Du        
   7572 ****        17.2500   9.7500  31.7500 Du        
   7573 ****        17.2500   9.7500  32.0000 Du        
   7574 ****        17.2500   9.7500  32.2500 Du        
   7575 ****        17.2500  10.0000  30.7500 Du        
   7576 ****        17.2500  10.0000  31.0000 Du        
   7577 ****        17.2500  10.0000  31.2500 Du        
   7578 ****        17.2500  10.0000  31.5000 Du        
   7579 ****        17.2500  10.0000  31.7500 Du        
   7580 ****        17.2500  10.0000  32.0000 Du        
   7581 ****        17.2500  10.0000  32.2500 Du        
   7582 ****        17.2500  10.0000  32.5000 Du        
   7583 ****        17.2500  10.2500  30.5000 Du        
   7584 ****        17.2500  10.2500  30.7500 Du        
   7585 ****        17.2500  10.2500  31.0000 Du        
   7586 ****        17.2500  10.2500  31.2500 Du        
   7587 ****        17.2500  10.2500  31.5000 Du        
   7588 ****        17.2500  10.2500  31.7500 Du        
   7589 ****        17.2500  10.2500  32.0000 Du        
   7590 ****        17.2500  10.2500  32.2500 Du        
   7591 ****        17.2500  10.5000  30.2500 Du        
   7592 ****        17.2500  10.5000  30.5000 Du        
   7593 ****        17.2500  10.5000  30.7500 Du        
   7594 ****        17.2500  10.5000  31.0000 Du        
   7595 ****        17.2500  10.5000  31.2500 Du        
   7596 ****        17.2500  10.5000  31.5000 Du        
   7597 ****        17.2500  10.5000  31.7500 Du        
   7598 ****        17.2500  10.5000  32.0000 Du        
   7599 ****        17.2500  10.7500  30.0000 Du        
   7600 ****        17.2500  10.7500  30.2500 Du        
   7601 ****        17.2500  10.7500  30.5000 Du        
   7602 ****        17.2500  10.7500  30.7500 Du        
   7603 ****        17.2500  10.7500  31.0000 Du        
   7604 ****        17.2500  10.7500  31.2500 Du        
   7605 ****        17.2500  10.7500  31.5000 Du        
   7606 ****        17.2500  10.7500  31.7500 Du        
   7607 ****        17.2500  10.7500  32.0000 Du        
   7608 ****        17.2500  11.0000  29.7500 Du        
   7609 ****        17.2500  11.0000  30.0000 Du        
   7610 ****        17.2500  11.0000  30.2500 Du        
   7611 ****        17.2500  11.0000  30.5000 Du        
   7612 ****        17.2500  11.0000  30.7500 Du        
   7613 ****        17.2500  11.0000  31.0000 Du        
   7614 ****        17.2500  11.0000  31.2500 Du        
   7615 ****        17.2500  11.0000  31.5000 Du        
   7616 ****        17.2500  11.0000  31.7500 Du        
   7617 ****        17.2500  11.2500  29.5000 Du        
   7618 ****        17.2500  11.2500  29.7500 Du        
   7619 ****        17.2500  11.2500  30.0000 Du        
   7620 ****        17.2500  11.2500  30.2500 Du        
   7621 ****        17.2500  11.2500  30.5000 Du        
   7622 ****        17.2500  11.2500  30.7500 Du        
   7623 ****        17.2500  11.2500  31.0000 Du        
   7624 ****        17.2500  11.2500  31.2500 Du        
   7625 ****        17.2500  11.2500  31.5000 Du        
   7626 ****        17.2500  11.5000  29.5000 Du        
   7627 ****        17.2500  11.5000  29.7500 Du        
   7628 ****        17.2500  11.5000  30.0000 Du        
   7629 ****        17.2500  11.5000  30.2500 Du        
   7630 ****        17.2500  11.5000  30.5000 Du        
   7631 ****        17.2500  11.5000  30.7500 Du        
   7632 ****        17.2500  11.5000  31.0000 Du        
   7633 ****        17.2500  11.5000  31.2500 Du        
   7634 ****        17.2500  11.5000  31.5000 Du        
   7635 ****        17.2500  11.7500  29.2500 Du        
   7636 ****        17.2500  11.7500  29.5000 Du        
   7637 ****        17.2500  11.7500  29.7500 Du        
   7638 ****        17.2500  11.7500  30.0000 Du        
   7639 ****        17.2500  11.7500  30.2500 Du        
   7640 ****        17.2500  11.7500  30.5000 Du        
   7641 ****        17.2500  11.7500  30.7500 Du        
   7642 ****        17.2500  11.7500  31.0000 Du        
   7643 ****        17.2500  11.7500  31.2500 Du        
   7644 ****        17.2500  12.0000  28.7500 Du        
   7645 ****        17.2500  12.0000  29.0000 Du        
   7646 ****        17.2500  12.0000  29.2500 Du        
   7647 ****        17.2500  12.0000  29.5000 Du        
   7648 ****        17.2500  12.0000  29.7500 Du        
   7649 ****        17.2500  12.0000  30.0000 Du        
   7650 ****        17.2500  12.0000  30.2500 Du        
   7651 ****        17.2500  12.0000  30.5000 Du        
   7652 ****        17.2500  12.0000  30.7500 Du        
   7653 ****        17.2500  12.0000  31.0000 Du        
   7654 ****        17.2500  12.2500  28.5000 Du        
   7655 ****        17.2500  12.2500  28.7500 Du        
   7656 ****        17.2500  12.2500  29.0000 Du        
   7657 ****        17.2500  12.2500  29.2500 Du        
   7658 ****        17.2500  12.2500  29.5000 Du        
   7659 ****        17.2500  12.2500  29.7500 Du        
   7660 ****        17.2500  12.2500  30.0000 Du        
   7661 ****        17.2500  12.2500  30.2500 Du        
   7662 ****        17.2500  12.2500  30.5000 Du        
   7663 ****        17.2500  12.2500  30.7500 Du        
   7664 ****        17.2500  12.5000  28.2500 Du        
   7665 ****        17.2500  12.5000  28.5000 Du        
   7666 ****        17.2500  12.5000  28.7500 Du        
   7667 ****        17.2500  12.5000  29.0000 Du        
   7668 ****        17.2500  12.5000  29.2500 Du        
   7669 ****        17.2500  12.5000  29.5000 Du        
   7670 ****        17.2500  12.5000  29.7500 Du        
   7671 ****        17.2500  12.5000  30.0000 Du        
   7672 ****        17.2500  12.5000  30.2500 Du        
   7673 ****        17.2500  12.7500  27.7500 Du        
   7674 ****        17.2500  12.7500  28.0000 Du        
   7675 ****        17.2500  12.7500  28.2500 Du        
   7676 ****        17.2500  12.7500  28.5000 Du        
   7677 ****        17.2500  12.7500  28.7500 Du        
   7678 ****        17.2500  12.7500  29.0000 Du        
   7679 ****        17.2500  12.7500  29.2500 Du        
   7680 ****        17.2500  12.7500  29.5000 Du        
   7681 ****        17.2500  12.7500  29.7500 Du        
   7682 ****        17.2500  12.7500  30.0000 Du        
   7683 ****        17.2500  12.7500  30.2500 Du        
   7684 ****        17.2500  13.0000  27.7500 Du        
   7685 ****        17.2500  13.0000  28.0000 Du        
   7686 ****        17.2500  13.0000  28.2500 Du        
   7687 ****        17.2500  13.0000  28.5000 Du        
   7688 ****        17.2500  13.0000  28.7500 Du        
   7689 ****        17.2500  13.0000  29.0000 Du        
   7690 ****        17.2500  13.0000  29.2500 Du        
   7691 ****        17.2500  13.0000  29.5000 Du        
   7692 ****        17.2500  13.0000  29.7500 Du        
   7693 ****        17.2500  13.0000  30.0000 Du        
   7694 ****        17.2500  13.2500  28.0000 Du        
   7695 ****        17.2500  13.2500  28.2500 Du        
   7696 ****        17.2500  13.2500  28.5000 Du        
   7697 ****        17.2500  13.2500  28.7500 Du        
   7698 ****        17.2500  13.2500  29.0000 Du        
   7699 ****        17.2500  13.2500  29.2500 Du        
   7700 ****        17.2500  13.2500  29.5000 Du        
   7701 ****        17.2500  13.2500  29.7500 Du        
   7702 ****        17.2500  13.5000  28.7500 Du        
   7703 ****        17.2500  13.5000  29.0000 Du        
   7704 ****        17.2500  13.5000  29.2500 Du        
   7705 ****        17.2500  13.5000  29.5000 Du        
   7706 ****        17.2500  13.7500  21.2500 Du        
   7707 ****        17.2500  13.7500  21.5000 Du        
   7708 ****        17.2500  13.7500  21.7500 Du        
   7709 ****        17.2500  13.7500  22.0000 Du        
   7710 ****        17.2500  14.0000  21.2500 Du        
   7711 ****        17.2500  14.0000  21.5000 Du        
   7712 ****        17.2500  14.0000  21.7500 Du        
   7713 ****        17.2500  14.0000  22.0000 Du        
   7714 ****        17.2500  14.0000  22.2500 Du        
   7715 ****        17.2500  14.2500  21.2500 Du        
   7716 ****        17.2500  14.2500  21.5000 Du        
   7717 ****        17.2500  14.2500  21.7500 Du        
   7718 ****        17.2500  14.2500  22.0000 Du        
   7719 ****        17.2500  14.2500  22.2500 Du        
   7720 ****        17.2500  14.2500  22.5000 Du        
   7721 ****        17.2500  14.5000  21.2500 Du        
   7722 ****        17.2500  14.5000  21.5000 Du        
   7723 ****        17.2500  14.5000  21.7500 Du        
   7724 ****        17.2500  14.5000  22.0000 Du        
   7725 ****        17.2500  14.5000  22.2500 Du        
   7726 ****        17.2500  14.5000  22.5000 Du        
   7727 ****        17.2500  14.7500  21.5000 Du        
   7728 ****        17.2500  14.7500  21.7500 Du        
   7729 ****        17.2500  14.7500  22.0000 Du        
   7730 ****        17.2500  14.7500  22.2500 Du        
   7731 ****        17.2500  14.7500  22.5000 Du        
   7732 ****        17.2500  14.7500  22.7500 Du        
   7733 ****        17.2500  15.0000  21.7500 Du        
   7734 ****        17.2500  15.0000  22.0000 Du        
   7735 ****        17.2500  15.0000  22.2500 Du        
   7736 ****        17.2500  15.0000  22.5000 Du        
   7737 ****        17.2500  15.2500  21.7500 Du        
   7738 ****        17.2500  15.2500  22.0000 Du        
   7739 ****        17.2500  15.2500  22.2500 Du        
   7740 ****        17.2500  15.2500  22.5000 Du        
   7741 ****        17.2500  15.5000  22.0000 Du        
   7742 ****        17.2500  15.5000  22.2500 Du        
   7743 ****        17.2500  18.0000  28.2500 Du        
   7744 ****        17.2500  18.0000  28.5000 Du        
   7745 ****        17.2500  18.2500  22.2500 Du        
   7746 ****        17.2500  18.2500  28.0000 Du        
   7747 ****        17.2500  18.2500  28.2500 Du        
   7748 ****        17.2500  18.2500  28.5000 Du        
   7749 ****        17.2500  18.5000  22.2500 Du        
   7750 ****        17.2500  18.5000  22.5000 Du        
   7751 ****        17.2500  18.5000  27.7500 Du        
   7752 ****        17.2500  18.5000  28.0000 Du        
   7753 ****        17.2500  18.5000  28.2500 Du        
   7754 ****        17.2500  18.5000  28.5000 Du        
   7755 ****        17.2500  18.7500  22.2500 Du        
   7756 ****        17.2500  18.7500  22.5000 Du        
   7757 ****        17.2500  18.7500  27.7500 Du        
   7758 ****        17.2500  18.7500  28.0000 Du        
   7759 ****        17.2500  18.7500  28.2500 Du        
   7760 ****        17.2500  19.0000  22.2500 Du        
   7761 ****        17.2500  19.0000  22.5000 Du        
   7762 ****        17.2500  19.0000  22.7500 Du        
   7763 ****        17.2500  19.0000  27.5000 Du        
   7764 ****        17.2500  19.0000  27.7500 Du        
   7765 ****        17.2500  19.0000  28.0000 Du        
   7766 ****        17.2500  19.5000  22.7500 Du        
   7767 ****        17.2500  20.5000  23.2500 Du        
   7768 ****        17.2500  20.7500  23.0000 Du        
   7769 ****        17.2500  20.7500  23.2500 Du        
   7770 ****        17.2500  21.0000  23.0000 Du        
   7771 ****        17.2500  21.0000  23.2500 Du        
   7772 ****        17.2500  21.2500  23.0000 Du        
   7773 ****        17.2500  21.2500  23.2500 Du        
   7774 ****        17.2500  21.5000  23.0000 Du        
   7775 ****        17.2500  21.5000  23.2500 Du        
   7776 ****        17.2500  21.5000  23.5000 Du        
   7777 ****        17.2500  21.5000  23.7500 Du        
   7778 ****        17.2500  21.7500  23.0000 Du        
   7779 ****        17.2500  21.7500  23.2500 Du        
   7780 ****        17.2500  21.7500  23.5000 Du        
   7781 ****        17.2500  21.7500  23.7500 Du        
   7782 ****        17.2500  22.0000  23.0000 Du        
   7783 ****        17.2500  22.0000  23.2500 Du        
   7784 ****        17.2500  22.0000  23.5000 Du        
   7785 ****        17.2500  22.0000  23.7500 Du        
   7786 ****        17.2500  22.0000  24.0000 Du        
   7787 ****        17.2500  22.2500  23.0000 Du        
   7788 ****        17.2500  22.2500  23.2500 Du        
   7789 ****        17.2500  22.2500  23.5000 Du        
   7790 ****        17.2500  22.2500  23.7500 Du        
   7791 ****        17.2500  22.5000  23.2500 Du        
   7792 ****        17.5000   9.7500  30.7500 Du        
   7793 ****        17.5000   9.7500  31.0000 Du        
   7794 ****        17.5000   9.7500  31.2500 Du        
   7795 ****        17.5000   9.7500  31.5000 Du        
   7796 ****        17.5000   9.7500  31.7500 Du        
   7797 ****        17.5000   9.7500  32.0000 Du        
   7798 ****        17.5000  10.0000  30.5000 Du        
   7799 ****        17.5000  10.0000  30.7500 Du        
   7800 ****        17.5000  10.0000  31.0000 Du        
   7801 ****        17.5000  10.0000  31.2500 Du        
   7802 ****        17.5000  10.0000  31.5000 Du        
   7803 ****        17.5000  10.0000  31.7500 Du        
   7804 ****        17.5000  10.0000  32.0000 Du        
   7805 ****        17.5000  10.0000  32.2500 Du        
   7806 ****        17.5000  10.2500  30.2500 Du        
   7807 ****        17.5000  10.2500  30.5000 Du        
   7808 ****        17.5000  10.2500  30.7500 Du        
   7809 ****        17.5000  10.2500  31.0000 Du        
   7810 ****        17.5000  10.2500  31.2500 Du        
   7811 ****        17.5000  10.2500  31.5000 Du        
   7812 ****        17.5000  10.2500  31.7500 Du        
   7813 ****        17.5000  10.2500  32.0000 Du        
   7814 ****        17.5000  10.2500  32.2500 Du        
   7815 ****        17.5000  10.5000  30.0000 Du        
   7816 ****        17.5000  10.5000  30.2500 Du        
   7817 ****        17.5000  10.5000  30.5000 Du        
   7818 ****        17.5000  10.5000  30.7500 Du        
   7819 ****        17.5000  10.5000  31.0000 Du        
   7820 ****        17.5000  10.5000  31.2500 Du        
   7821 ****        17.5000  10.5000  31.5000 Du        
   7822 ****        17.5000  10.5000  31.7500 Du        
   7823 ****        17.5000  10.5000  32.0000 Du        
   7824 ****        17.5000  10.5000  32.2500 Du        
   7825 ****        17.5000  10.7500  30.0000 Du        
   7826 ****        17.5000  10.7500  30.2500 Du        
   7827 ****        17.5000  10.7500  30.5000 Du        
   7828 ****        17.5000  10.7500  30.7500 Du        
   7829 ****        17.5000  10.7500  31.0000 Du        
   7830 ****        17.5000  10.7500  31.2500 Du        
   7831 ****        17.5000  10.7500  31.5000 Du        
   7832 ****        17.5000  10.7500  31.7500 Du        
   7833 ****        17.5000  10.7500  32.0000 Du        
   7834 ****        17.5000  11.0000  29.7500 Du        
   7835 ****        17.5000  11.0000  30.0000 Du        
   7836 ****        17.5000  11.0000  30.2500 Du        
   7837 ****        17.5000  11.0000  30.5000 Du        
   7838 ****        17.5000  11.0000  30.7500 Du        
   7839 ****        17.5000  11.0000  31.0000 Du        
   7840 ****        17.5000  11.0000  31.2500 Du        
   7841 ****        17.5000  11.0000  31.5000 Du        
   7842 ****        17.5000  11.0000  31.7500 Du        
   7843 ****        17.5000  11.2500  29.5000 Du        
   7844 ****        17.5000  11.2500  29.7500 Du        
   7845 ****        17.5000  11.2500  30.0000 Du        
   7846 ****        17.5000  11.2500  30.2500 Du        
   7847 ****        17.5000  11.2500  30.5000 Du        
   7848 ****        17.5000  11.2500  30.7500 Du        
   7849 ****        17.5000  11.2500  31.0000 Du        
   7850 ****        17.5000  11.2500  31.2500 Du        
   7851 ****        17.5000  11.2500  31.5000 Du        
   7852 ****        17.5000  11.2500  31.7500 Du        
   7853 ****        17.5000  11.5000  29.2500 Du        
   7854 ****        17.5000  11.5000  29.5000 Du        
   7855 ****        17.5000  11.5000  29.7500 Du        
   7856 ****        17.5000  11.5000  30.0000 Du        
   7857 ****        17.5000  11.5000  30.2500 Du        
   7858 ****        17.5000  11.5000  30.5000 Du        
   7859 ****        17.5000  11.5000  30.7500 Du        
   7860 ****        17.5000  11.5000  31.0000 Du        
   7861 ****        17.5000  11.5000  31.2500 Du        
   7862 ****        17.5000  11.5000  31.5000 Du        
   7863 ****        17.5000  11.7500  29.0000 Du        
   7864 ****        17.5000  11.7500  29.2500 Du        
   7865 ****        17.5000  11.7500  29.5000 Du        
   7866 ****        17.5000  11.7500  29.7500 Du        
   7867 ****        17.5000  11.7500  30.0000 Du        
   7868 ****        17.5000  11.7500  30.2500 Du        
   7869 ****        17.5000  11.7500  30.5000 Du        
   7870 ****        17.5000  11.7500  30.7500 Du        
   7871 ****        17.5000  11.7500  31.0000 Du        
   7872 ****        17.5000  11.7500  31.2500 Du        
   7873 ****        17.5000  12.0000  28.7500 Du        
   7874 ****        17.5000  12.0000  29.0000 Du        
   7875 ****        17.5000  12.0000  29.2500 Du        
   7876 ****        17.5000  12.0000  29.5000 Du        
   7877 ****        17.5000  12.0000  29.7500 Du        
   7878 ****        17.5000  12.0000  30.0000 Du        
   7879 ****        17.5000  12.0000  30.2500 Du        
   7880 ****        17.5000  12.0000  30.5000 Du        
   7881 ****        17.5000  12.0000  30.7500 Du        
   7882 ****        17.5000  12.0000  31.0000 Du        
   7883 ****        17.5000  12.2500  28.5000 Du        
   7884 ****        17.5000  12.2500  28.7500 Du        
   7885 ****        17.5000  12.2500  29.0000 Du        
   7886 ****        17.5000  12.2500  29.2500 Du        
   7887 ****        17.5000  12.2500  29.5000 Du        
   7888 ****        17.5000  12.2500  29.7500 Du        
   7889 ****        17.5000  12.2500  30.0000 Du        
   7890 ****        17.5000  12.2500  30.2500 Du        
   7891 ****        17.5000  12.2500  30.5000 Du        
   7892 ****        17.5000  12.2500  30.7500 Du        
   7893 ****        17.5000  12.5000  28.2500 Du        
   7894 ****        17.5000  12.5000  28.5000 Du        
   7895 ****        17.5000  12.5000  28.7500 Du        
   7896 ****        17.5000  12.5000  29.0000 Du        
   7897 ****        17.5000  12.5000  29.2500 Du        
   7898 ****        17.5000  12.5000  29.5000 Du        
   7899 ****        17.5000  12.5000  29.7500 Du        
   7900 ****        17.5000  12.5000  30.0000 Du        
   7901 ****        17.5000  12.5000  30.2500 Du        
   7902 ****        17.5000  12.5000  30.5000 Du        
   7903 ****        17.5000  12.7500  28.0000 Du        
   7904 ****        17.5000  12.7500  28.2500 Du        
   7905 ****        17.5000  12.7500  28.5000 Du        
   7906 ****        17.5000  12.7500  28.7500 Du        
   7907 ****        17.5000  12.7500  29.0000 Du        
   7908 ****        17.5000  12.7500  29.2500 Du        
   7909 ****        17.5000  12.7500  29.5000 Du        
   7910 ****        17.5000  12.7500  29.7500 Du        
   7911 ****        17.5000  12.7500  30.0000 Du        
   7912 ****        17.5000  12.7500  30.2500 Du        
   7913 ****        17.5000  13.0000  28.0000 Du        
   7914 ****        17.5000  13.0000  28.2500 Du        
   7915 ****        17.5000  13.0000  28.5000 Du        
   7916 ****        17.5000  13.0000  28.7500 Du        
   7917 ****        17.5000  13.0000  29.0000 Du        
   7918 ****        17.5000  13.0000  29.2500 Du        
   7919 ****        17.5000  13.0000  29.5000 Du        
   7920 ****        17.5000  13.0000  29.7500 Du        
   7921 ****        17.5000  13.0000  30.0000 Du        
   7922 ****        17.5000  13.0000  30.2500 Du        
   7923 ****        17.5000  13.2500  28.5000 Du        
   7924 ****        17.5000  13.2500  28.7500 Du        
   7925 ****        17.5000  13.2500  29.0000 Du        
   7926 ****        17.5000  13.2500  29.2500 Du        
   7927 ****        17.5000  13.2500  29.5000 Du        
   7928 ****        17.5000  13.2500  29.7500 Du        
   7929 ****        17.5000  13.2500  30.0000 Du        
   7930 ****        17.5000  13.5000  29.0000 Du        
   7931 ****        17.5000  13.5000  29.2500 Du        
   7932 ****        17.5000  13.5000  29.5000 Du        
   7933 ****        17.5000  13.5000  29.7500 Du        
   7934 ****        17.5000  14.2500  21.7500 Du        
   7935 ****        17.5000  14.2500  22.0000 Du        
   7936 ****        17.5000  14.5000  22.0000 Du        
   7937 ****        17.5000  14.7500  22.0000 Du        
   7938 ****        17.5000  14.7500  22.2500 Du        
   7939 ****        17.5000  21.0000  23.2500 Du        
   7940 ****        17.5000  21.2500  23.2500 Du        
   7941 ****        17.5000  21.2500  23.5000 Du        
   7942 ****        17.5000  21.5000  23.0000 Du        
   7943 ****        17.5000  21.5000  23.2500 Du        
   7944 ****        17.5000  21.5000  23.5000 Du        
   7945 ****        17.5000  21.5000  23.7500 Du        
   7946 ****        17.5000  21.5000  24.0000 Du        
   7947 ****        17.5000  21.7500  23.0000 Du        
   7948 ****        17.5000  21.7500  23.2500 Du        
   7949 ****        17.5000  21.7500  23.5000 Du        
   7950 ****        17.5000  21.7500  23.7500 Du        
   7951 ****        17.5000  21.7500  24.0000 Du        
   7952 ****        17.5000  21.7500  24.2500 Du        
   7953 ****        17.5000  22.0000  23.0000 Du        
   7954 ****        17.5000  22.0000  23.2500 Du        
   7955 ****        17.5000  22.0000  23.5000 Du        
   7956 ****        17.5000  22.0000  23.7500 Du        
   7957 ****        17.5000  22.0000  24.0000 Du        
   7958 ****        17.5000  22.0000  24.2500 Du        
   7959 ****        17.5000  22.2500  23.0000 Du        
   7960 ****        17.5000  22.2500  23.2500 Du        
   7961 ****        17.5000  22.2500  23.5000 Du        
   7962 ****        17.5000  22.2500  23.7500 Du        
   7963 ****        17.5000  22.2500  24.0000 Du        
   7964 ****        17.5000  22.5000  23.0000 Du        
   7965 ****        17.5000  22.5000  23.2500 Du        
   7966 ****        17.5000  22.5000  23.5000 Du        
   7967 ****        17.5000  22.5000  23.7500 Du        
   7968 ****        17.5000  22.5000  24.0000 Du        
   7969 ****        17.5000  22.7500  23.0000 Du        
   7970 ****        17.5000  22.7500  23.2500 Du        
   7971 ****        17.5000  22.7500  23.5000 Du        
   7972 ****        17.5000  22.7500  23.7500 Du        
   7973 ****        17.5000  23.0000  23.2500 Du        
   7974 ****        17.5000  23.0000  23.7500 Du        
   7975 ****        17.5000  27.0000  28.0000 Du        
   7976 ****        17.5000  27.0000  28.2500 Du        
   7977 ****        17.5000  27.0000  28.5000 Du        
   7978 ****        17.5000  27.2500  28.0000 Du        
   7979 ****        17.5000  27.2500  28.2500 Du        
   7980 ****        17.5000  27.2500  28.5000 Du        
   7981 ****        17.7500   9.7500  30.7500 Du        
   7982 ****        17.7500   9.7500  31.0000 Du        
   7983 ****        17.7500   9.7500  31.2500 Du        
   7984 ****        17.7500   9.7500  31.5000 Du        
   7985 ****        17.7500   9.7500  31.7500 Du        
   7986 ****        17.7500  10.0000  30.5000 Du        
   7987 ****        17.7500  10.0000  30.7500 Du        
   7988 ****        17.7500  10.0000  31.0000 Du        
   7989 ****        17.7500  10.0000  31.2500 Du        
   7990 ****        17.7500  10.0000  31.5000 Du        
   7991 ****        17.7500  10.0000  31.7500 Du        
   7992 ****        17.7500  10.0000  32.0000 Du        
   7993 ****        17.7500  10.0000  32.2500 Du        
   7994 ****        17.7500  10.2500  30.2500 Du        
   7995 ****        17.7500  10.2500  30.5000 Du        
   7996 ****        17.7500  10.2500  30.7500 Du        
   7997 ****        17.7500  10.2500  31.0000 Du        
   7998 ****        17.7500  10.2500  31.2500 Du        
   7999 ****        17.7500  10.2500  31.5000 Du        
   8000 ****        17.7500  10.2500  31.7500 Du        
   8001 ****        17.7500  10.2500  32.0000 Du        
   8002 ****        17.7500  10.2500  32.2500 Du        
   8003 ****        17.7500  10.5000  30.0000 Du        
   8004 ****        17.7500  10.5000  30.2500 Du        
   8005 ****        17.7500  10.5000  30.5000 Du        
   8006 ****        17.7500  10.5000  30.7500 Du        
   8007 ****        17.7500  10.5000  31.0000 Du        
   8008 ****        17.7500  10.5000  31.2500 Du        
   8009 ****        17.7500  10.5000  31.5000 Du        
   8010 ****        17.7500  10.5000  31.7500 Du        
   8011 ****        17.7500  10.5000  32.0000 Du        
   8012 ****        17.7500  10.5000  32.2500 Du        
   8013 ****        17.7500  10.7500  29.7500 Du        
   8014 ****        17.7500  10.7500  30.0000 Du        
   8015 ****        17.7500  10.7500  30.2500 Du        
   8016 ****        17.7500  10.7500  30.5000 Du        
   8017 ****        17.7500  10.7500  30.7500 Du        
   8018 ****        17.7500  10.7500  31.0000 Du        
   8019 ****        17.7500  10.7500  31.2500 Du        
   8020 ****        17.7500  10.7500  31.5000 Du        
   8021 ****        17.7500  10.7500  31.7500 Du        
   8022 ****        17.7500  10.7500  32.0000 Du        
   8023 ****        17.7500  11.0000  29.7500 Du        
   8024 ****        17.7500  11.0000  30.0000 Du        
   8025 ****        17.7500  11.0000  30.2500 Du        
   8026 ****        17.7500  11.0000  30.5000 Du        
   8027 ****        17.7500  11.0000  30.7500 Du        
   8028 ****        17.7500  11.0000  31.0000 Du        
   8029 ****        17.7500  11.0000  31.2500 Du        
   8030 ****        17.7500  11.0000  31.5000 Du        
   8031 ****        17.7500  11.0000  31.7500 Du        
   8032 ****        17.7500  11.0000  32.0000 Du        
   8033 ****        17.7500  11.2500  29.5000 Du        
   8034 ****        17.7500  11.2500  29.7500 Du        
   8035 ****        17.7500  11.2500  30.0000 Du        
   8036 ****        17.7500  11.2500  30.2500 Du        
   8037 ****        17.7500  11.2500  30.5000 Du        
   8038 ****        17.7500  11.2500  30.7500 Du        
   8039 ****        17.7500  11.2500  31.0000 Du        
   8040 ****        17.7500  11.2500  31.2500 Du        
   8041 ****        17.7500  11.2500  31.5000 Du        
   8042 ****        17.7500  11.2500  31.7500 Du        
   8043 ****        17.7500  11.5000  29.2500 Du        
   8044 ****        17.7500  11.5000  29.5000 Du        
   8045 ****        17.7500  11.5000  29.7500 Du        
   8046 ****        17.7500  11.5000  30.0000 Du        
   8047 ****        17.7500  11.5000  30.2500 Du        
   8048 ****        17.7500  11.5000  30.5000 Du        
   8049 ****        17.7500  11.5000  30.7500 Du        
   8050 ****        17.7500  11.5000  31.0000 Du        
   8051 ****        17.7500  11.5000  31.2500 Du        
   8052 ****        17.7500  11.5000  31.5000 Du        
   8053 ****        17.7500  11.5000  31.7500 Du        
   8054 ****        17.7500  11.7500  29.0000 Du        
   8055 ****        17.7500  11.7500  29.2500 Du        
   8056 ****        17.7500  11.7500  29.5000 Du        
   8057 ****        17.7500  11.7500  29.7500 Du        
   8058 ****        17.7500  11.7500  30.0000 Du        
   8059 ****        17.7500  11.7500  30.2500 Du        
   8060 ****        17.7500  11.7500  30.5000 Du        
   8061 ****        17.7500  11.7500  30.7500 Du        
   8062 ****        17.7500  11.7500  31.0000 Du        
   8063 ****        17.7500  11.7500  31.2500 Du        
   8064 ****        17.7500  11.7500  31.5000 Du        
   8065 ****        17.7500  12.0000  28.7500 Du        
   8066 ****        17.7500  12.0000  29.0000 Du        
   8067 ****        17.7500  12.0000  29.2500 Du        
   8068 ****        17.7500  12.0000  29.5000 Du        
   8069 ****        17.7500  12.0000  29.7500 Du        
   8070 ****        17.7500  12.0000  30.0000 Du        
   8071 ****        17.7500  12.0000  30.2500 Du        
   8072 ****        17.7500  12.0000  30.5000 Du        
   8073 ****        17.7500  12.0000  30.7500 Du        
   8074 ****        17.7500  12.0000  31.0000 Du        
   8075 ****        17.7500  12.0000  31.2500 Du        
   8076 ****        17.7500  12.2500  28.5000 Du        
   8077 ****        17.7500  12.2500  28.7500 Du        
   8078 ****        17.7500  12.2500  29.0000 Du        
   8079 ****        17.7500  12.2500  29.2500 Du        
   8080 ****        17.7500  12.2500  29.5000 Du        
   8081 ****        17.7500  12.2500  29.7500 Du        
   8082 ****        17.7500  12.2500  30.0000 Du        
   8083 ****        17.7500  12.2500  30.2500 Du        
   8084 ****        17.7500  12.2500  30.5000 Du        
   8085 ****        17.7500  12.2500  30.7500 Du        
   8086 ****        17.7500  12.2500  31.0000 Du        
   8087 ****        17.7500  12.5000  28.2500 Du        
   8088 ****        17.7500  12.5000  28.5000 Du        
   8089 ****        17.7500  12.5000  28.7500 Du        
   8090 ****        17.7500  12.5000  29.0000 Du        
   8091 ****        17.7500  12.5000  29.2500 Du        
   8092 ****        17.7500  12.5000  29.5000 Du        
   8093 ****        17.7500  12.5000  29.7500 Du        
   8094 ****        17.7500  12.5000  30.0000 Du        
   8095 ****        17.7500  12.5000  30.2500 Du        
   8096 ****        17.7500  12.5000  30.5000 Du        
   8097 ****        17.7500  12.5000  30.7500 Du        
   8098 ****        17.7500  12.7500  28.0000 Du        
   8099 ****        17.7500  12.7500  28.2500 Du        
   8100 ****        17.7500  12.7500  28.5000 Du        
   8101 ****        17.7500  12.7500  28.7500 Du        
   8102 ****        17.7500  12.7500  29.0000 Du        
   8103 ****        17.7500  12.7500  29.2500 Du        
   8104 ****        17.7500  12.7500  29.5000 Du        
   8105 ****        17.7500  12.7500  29.7500 Du        
   8106 ****        17.7500  12.7500  30.0000 Du        
   8107 ****        17.7500  12.7500  30.2500 Du        
   8108 ****        17.7500  12.7500  30.5000 Du        
   8109 ****        17.7500  13.0000  28.2500 Du        
   8110 ****        17.7500  13.0000  28.5000 Du        
   8111 ****        17.7500  13.0000  28.7500 Du        
   8112 ****        17.7500  13.0000  29.0000 Du        
   8113 ****        17.7500  13.0000  29.2500 Du        
   8114 ****        17.7500  13.0000  29.5000 Du        
   8115 ****        17.7500  13.0000  29.7500 Du        
   8116 ****        17.7500  13.0000  30.0000 Du        
   8117 ****        17.7500  13.0000  30.2500 Du        
   8118 ****        17.7500  13.2500  28.7500 Du        
   8119 ****        17.7500  13.2500  29.0000 Du        
   8120 ****        17.7500  13.2500  29.2500 Du        
   8121 ****        17.7500  13.2500  29.5000 Du        
   8122 ****        17.7500  13.2500  29.7500 Du        
   8123 ****        17.7500  13.2500  30.0000 Du        
   8124 ****        17.7500  13.2500  30.2500 Du        
   8125 ****        17.7500  13.5000  29.2500 Du        
   8126 ****        17.7500  13.5000  29.5000 Du        
   8127 ****        17.7500  13.5000  29.7500 Du        
   8128 ****        17.7500  13.5000  30.0000 Du        
   8129 ****        17.7500  21.2500  23.2500 Du        
   8130 ****        17.7500  21.2500  23.5000 Du        
   8131 ****        17.7500  21.5000  23.2500 Du        
   8132 ****        17.7500  21.5000  23.5000 Du        
   8133 ****        17.7500  21.5000  23.7500 Du        
   8134 ****        17.7500  21.5000  24.0000 Du        
   8135 ****        17.7500  21.7500  23.0000 Du        
   8136 ****        17.7500  21.7500  23.2500 Du        
   8137 ****        17.7500  21.7500  23.5000 Du        
   8138 ****        17.7500  21.7500  23.7500 Du        
   8139 ****        17.7500  21.7500  24.0000 Du        
   8140 ****        17.7500  21.7500  24.2500 Du        
   8141 ****        17.7500  22.0000  23.0000 Du        
   8142 ****        17.7500  22.0000  23.2500 Du        
   8143 ****        17.7500  22.0000  23.5000 Du        
   8144 ****        17.7500  22.0000  23.7500 Du        
   8145 ****        17.7500  22.0000  24.0000 Du        
   8146 ****        17.7500  22.0000  24.2500 Du        
   8147 ****        17.7500  22.2500  23.0000 Du        
   8148 ****        17.7500  22.2500  23.2500 Du        
   8149 ****        17.7500  22.2500  23.5000 Du        
   8150 ****        17.7500  22.2500  23.7500 Du        
   8151 ****        17.7500  22.2500  24.0000 Du        
   8152 ****        17.7500  22.2500  24.2500 Du        
   8153 ****        17.7500  22.5000  23.0000 Du        
   8154 ****        17.7500  22.5000  23.2500 Du        
   8155 ****        17.7500  22.5000  23.5000 Du        
   8156 ****        17.7500  22.5000  23.7500 Du        
   8157 ****        17.7500  22.5000  24.0000 Du        
   8158 ****        17.7500  22.5000  24.2500 Du        
   8159 ****        17.7500  22.7500  23.0000 Du        
   8160 ****        17.7500  22.7500  23.2500 Du        
   8161 ****        17.7500  22.7500  23.5000 Du        
   8162 ****        17.7500  22.7500  23.7500 Du        
   8163 ****        17.7500  22.7500  24.0000 Du        
   8164 ****        17.7500  22.7500  24.2500 Du        
   8165 ****        17.7500  23.0000  23.2500 Du        
   8166 ****        17.7500  23.0000  23.5000 Du        
   8167 ****        17.7500  23.0000  23.7500 Du        
   8168 ****        17.7500  23.0000  24.0000 Du        
   8169 ****        17.7500  23.2500  23.2500 Du        
   8170 ****        17.7500  23.2500  23.5000 Du        
   8171 ****        17.7500  23.2500  23.7500 Du        
   8172 ****        17.7500  23.2500  24.0000 Du        
   8173 ****        17.7500  23.5000  23.7500 Du        
   8174 ****        17.7500  26.7500  27.7500 Du        
   8175 ****        17.7500  26.7500  28.0000 Du        
   8176 ****        17.7500  26.7500  28.2500 Du        
   8177 ****        17.7500  26.7500  28.5000 Du        
   8178 ****        17.7500  27.0000  27.7500 Du        
   8179 ****        17.7500  27.0000  28.0000 Du        
   8180 ****        17.7500  27.0000  28.2500 Du        
   8181 ****        17.7500  27.0000  28.5000 Du        
   8182 ****        17.7500  27.0000  28.7500 Du        
   8183 ****        17.7500  27.2500  27.7500 Du        
   8184 ****        17.7500  27.2500  28.0000 Du        
   8185 ****        17.7500  27.2500  28.2500 Du        
   8186 ****        17.7500  27.2500  28.5000 Du        
   8187 ****        17.7500  27.2500  28.7500 Du        
   8188 ****        17.7500  27.5000  28.2500 Du        
   8189 ****        17.7500  27.5000  28.5000 Du        
   8190 ****        17.7500  27.5000  28.7500 Du        
   8191 ****        17.7500  27.7500  28.5000 Du        
   8192 ****        17.7500  27.7500  28.7500 Du        
   8193 ****        17.7500  27.7500  29.0000 Du        
   8194 ****        17.7500  28.0000  28.5000 Du        
   8195 ****        17.7500  28.0000  28.7500 Du        
   8196 ****        17.7500  28.0000  29.0000 Du        
   8197 ****        17.7500  28.0000  29.2500 Du        
   8198 ****        17.7500  28.2500  28.7500 Du        
   8199 ****        17.7500  28.2500  29.0000 Du        
   8200 ****        17.7500  28.2500  29.2500 Du        
   8201 ****        17.7500  28.2500  29.5000 Du        
   8202 ****        17.7500  28.5000  29.5000 Du        
   8203 ****        17.7500  28.7500  29.2500 Du        
   8204 ****        17.7500  28.7500  29.5000 Du        
   8205 ****        17.7500  28.7500  29.7500 Du        
   8206 ****        18.0000   9.7500  30.5000 Du        
   8207 ****        18.0000   9.7500  30.7500 Du        
   8208 ****        18.0000   9.7500  31.0000 Du        
   8209 ****        18.0000   9.7500  31.2500 Du        
   8210 ****        18.0000   9.7500  31.5000 Du        
   8211 ****        18.0000  10.0000  30.2500 Du        
   8212 ****        18.0000  10.0000  30.5000 Du        
   8213 ****        18.0000  10.0000  30.7500 Du        
   8214 ****        18.0000  10.0000  31.0000 Du        
   8215 ****        18.0000  10.0000  31.2500 Du        
   8216 ****        18.0000  10.0000  31.5000 Du        
   8217 ****        18.0000  10.0000  31.7500 Du        
   8218 ****        18.0000  10.0000  32.0000 Du        
   8219 ****        18.0000  10.2500  30.0000 Du        
   8220 ****        18.0000  10.2500  30.2500 Du        
   8221 ****        18.0000  10.2500  30.5000 Du        
   8222 ****        18.0000  10.2500  30.7500 Du        
   8223 ****        18.0000  10.2500  31.0000 Du        
   8224 ****        18.0000  10.2500  31.2500 Du        
   8225 ****        18.0000  10.2500  31.5000 Du        
   8226 ****        18.0000  10.2500  31.7500 Du        
   8227 ****        18.0000  10.2500  32.0000 Du        
   8228 ****        18.0000  10.2500  32.2500 Du        
   8229 ****        18.0000  10.5000  30.0000 Du        
   8230 ****        18.0000  10.5000  30.2500 Du        
   8231 ****        18.0000  10.5000  30.5000 Du        
   8232 ****        18.0000  10.5000  30.7500 Du        
   8233 ****        18.0000  10.5000  31.0000 Du        
   8234 ****        18.0000  10.5000  31.2500 Du        
   8235 ****        18.0000  10.5000  31.5000 Du        
   8236 ****        18.0000  10.5000  31.7500 Du        
   8237 ****        18.0000  10.5000  32.0000 Du        
   8238 ****        18.0000  10.5000  32.2500 Du        
   8239 ****        18.0000  10.7500  29.7500 Du        
   8240 ****        18.0000  10.7500  30.0000 Du        
   8241 ****        18.0000  10.7500  30.2500 Du        
   8242 ****        18.0000  10.7500  30.5000 Du        
   8243 ****        18.0000  10.7500  30.7500 Du        
   8244 ****        18.0000  10.7500  31.0000 Du        
   8245 ****        18.0000  10.7500  31.2500 Du        
   8246 ****        18.0000  10.7500  31.5000 Du        
   8247 ****        18.0000  10.7500  31.7500 Du        
   8248 ****        18.0000  10.7500  32.0000 Du        
   8249 ****        18.0000  10.7500  32.2500 Du        
   8250 ****        18.0000  11.0000  29.5000 Du        
   8251 ****        18.0000  11.0000  29.7500 Du        
   8252 ****        18.0000  11.0000  30.0000 Du        
   8253 ****        18.0000  11.0000  30.2500 Du        
   8254 ****        18.0000  11.0000  30.5000 Du        
   8255 ****        18.0000  11.0000  30.7500 Du        
   8256 ****        18.0000  11.0000  31.0000 Du        
   8257 ****        18.0000  11.0000  31.2500 Du        
   8258 ****        18.0000  11.0000  31.5000 Du        
   8259 ****        18.0000  11.0000  31.7500 Du        
   8260 ****        18.0000  11.0000  32.0000 Du        
   8261 ****        18.0000  11.2500  29.5000 Du        
   8262 ****        18.0000  11.2500  29.7500 Du        
   8263 ****        18.0000  11.2500  30.0000 Du        
   8264 ****        18.0000  11.2500  30.2500 Du        
   8265 ****        18.0000  11.2500  30.5000 Du        
   8266 ****        18.0000  11.2500  30.7500 Du        
   8267 ****        18.0000  11.2500  31.0000 Du        
   8268 ****        18.0000  11.2500  31.2500 Du        
   8269 ****        18.0000  11.2500  31.5000 Du        
   8270 ****        18.0000  11.2500  31.7500 Du        
   8271 ****        18.0000  11.2500  32.0000 Du        
   8272 ****        18.0000  11.5000  29.2500 Du        
   8273 ****        18.0000  11.5000  29.5000 Du        
   8274 ****        18.0000  11.5000  29.7500 Du        
   8275 ****        18.0000  11.5000  30.0000 Du        
   8276 ****        18.0000  11.5000  30.2500 Du        
   8277 ****        18.0000  11.5000  30.5000 Du        
   8278 ****        18.0000  11.5000  30.7500 Du        
   8279 ****        18.0000  11.5000  31.0000 Du        
   8280 ****        18.0000  11.5000  31.2500 Du        
   8281 ****        18.0000  11.5000  31.5000 Du        
   8282 ****        18.0000  11.5000  31.7500 Du        
   8283 ****        18.0000  11.7500  29.0000 Du        
   8284 ****        18.0000  11.7500  29.2500 Du        
   8285 ****        18.0000  11.7500  29.5000 Du        
   8286 ****        18.0000  11.7500  29.7500 Du        
   8287 ****        18.0000  11.7500  30.0000 Du        
   8288 ****        18.0000  11.7500  30.2500 Du        
   8289 ****        18.0000  11.7500  30.5000 Du        
   8290 ****        18.0000  11.7500  30.7500 Du        
   8291 ****        18.0000  11.7500  31.0000 Du        
   8292 ****        18.0000  11.7500  31.2500 Du        
   8293 ****        18.0000  11.7500  31.5000 Du        
   8294 ****        18.0000  11.7500  31.7500 Du        
   8295 ****        18.0000  12.0000  28.7500 Du        
   8296 ****        18.0000  12.0000  29.0000 Du        
   8297 ****        18.0000  12.0000  29.2500 Du        
   8298 ****        18.0000  12.0000  29.5000 Du        
   8299 ****        18.0000  12.0000  29.7500 Du        
   8300 ****        18.0000  12.0000  30.0000 Du        
   8301 ****        18.0000  12.0000  30.2500 Du        
   8302 ****        18.0000  12.0000  30.5000 Du        
   8303 ****        18.0000  12.0000  30.7500 Du        
   8304 ****        18.0000  12.0000  31.0000 Du        
   8305 ****        18.0000  12.0000  31.2500 Du        
   8306 ****        18.0000  12.0000  31.5000 Du        
   8307 ****        18.0000  12.2500  28.5000 Du        
   8308 ****        18.0000  12.2500  28.7500 Du        
   8309 ****        18.0000  12.2500  29.0000 Du        
   8310 ****        18.0000  12.2500  29.2500 Du        
   8311 ****        18.0000  12.2500  29.5000 Du        
   8312 ****        18.0000  12.2500  29.7500 Du        
   8313 ****        18.0000  12.2500  30.0000 Du        
   8314 ****        18.0000  12.2500  30.2500 Du        
   8315 ****        18.0000  12.2500  30.5000 Du        
   8316 ****        18.0000  12.2500  30.7500 Du        
   8317 ****        18.0000  12.2500  31.0000 Du        
   8318 ****        18.0000  12.2500  31.2500 Du        
   8319 ****        18.0000  12.5000  28.2500 Du        
   8320 ****        18.0000  12.5000  28.5000 Du        
   8321 ****        18.0000  12.5000  28.7500 Du        
   8322 ****        18.0000  12.5000  29.0000 Du        
   8323 ****        18.0000  12.5000  29.2500 Du        
   8324 ****        18.0000  12.5000  29.5000 Du        
   8325 ****        18.0000  12.5000  29.7500 Du        
   8326 ****        18.0000  12.5000  30.0000 Du        
   8327 ****        18.0000  12.5000  30.2500 Du        
   8328 ****        18.0000  12.5000  30.5000 Du        
   8329 ****        18.0000  12.5000  30.7500 Du        
   8330 ****        18.0000  12.5000  31.0000 Du        
   8331 ****        18.0000  12.7500  28.2500 Du        
   8332 ****        18.0000  12.7500  28.5000 Du        
   8333 ****        18.0000  12.7500  28.7500 Du        
   8334 ****        18.0000  12.7500  29.0000 Du        
   8335 ****        18.0000  12.7500  29.2500 Du        
   8336 ****        18.0000  12.7500  29.5000 Du        
   8337 ****        18.0000  12.7500  29.7500 Du        
   8338 ****        18.0000  12.7500  30.0000 Du        
   8339 ****        18.0000  12.7500  30.2500 Du        
   8340 ****        18.0000  12.7500  30.5000 Du        
   8341 ****        18.0000  12.7500  30.7500 Du        
   8342 ****        18.0000  13.0000  28.5000 Du        
   8343 ****        18.0000  13.0000  28.7500 Du        
   8344 ****        18.0000  13.0000  29.0000 Du        
   8345 ****        18.0000  13.0000  29.2500 Du        
   8346 ****        18.0000  13.0000  29.5000 Du        
   8347 ****        18.0000  13.0000  29.7500 Du        
   8348 ****        18.0000  13.0000  30.0000 Du        
   8349 ****        18.0000  13.0000  30.2500 Du        
   8350 ****        18.0000  13.0000  30.5000 Du        
   8351 ****        18.0000  13.2500  29.0000 Du        
   8352 ****        18.0000  13.2500  29.2500 Du        
   8353 ****        18.0000  13.2500  29.5000 Du        
   8354 ****        18.0000  13.2500  29.7500 Du        
   8355 ****        18.0000  13.2500  30.0000 Du        
   8356 ****        18.0000  13.2500  30.2500 Du        
   8357 ****        18.0000  13.5000  29.7500 Du        
   8358 ****        18.0000  13.5000  30.0000 Du        
   8359 ****        18.0000  13.5000  30.2500 Du        
   8360 ****        18.0000  21.2500  23.2500 Du        
   8361 ****        18.0000  21.5000  23.2500 Du        
   8362 ****        18.0000  21.5000  23.5000 Du        
   8363 ****        18.0000  21.5000  23.7500 Du        
   8364 ****        18.0000  21.5000  24.0000 Du        
   8365 ****        18.0000  21.7500  23.0000 Du        
   8366 ****        18.0000  21.7500  23.2500 Du        
   8367 ****        18.0000  21.7500  23.5000 Du        
   8368 ****        18.0000  21.7500  23.7500 Du        
   8369 ****        18.0000  21.7500  24.0000 Du        
   8370 ****        18.0000  21.7500  24.2500 Du        
   8371 ****        18.0000  22.0000  23.0000 Du        
   8372 ****        18.0000  22.0000  23.2500 Du        
   8373 ****        18.0000  22.0000  23.5000 Du        
   8374 ****        18.0000  22.0000  23.7500 Du        
   8375 ****        18.0000  22.0000  24.0000 Du        
   8376 ****        18.0000  22.0000  24.2500 Du        
   8377 ****        18.0000  22.2500  23.0000 Du        
   8378 ****        18.0000  22.2500  23.2500 Du        
   8379 ****        18.0000  22.2500  23.5000 Du        
   8380 ****        18.0000  22.2500  23.7500 Du        
   8381 ****        18.0000  22.2500  24.0000 Du        
   8382 ****        18.0000  22.2500  24.2500 Du        
   8383 ****        18.0000  22.2500  24.5000 Du        
   8384 ****        18.0000  22.5000  23.0000 Du        
   8385 ****        18.0000  22.5000  23.2500 Du        
   8386 ****        18.0000  22.5000  23.5000 Du        
   8387 ****        18.0000  22.5000  23.7500 Du        
   8388 ****        18.0000  22.5000  24.0000 Du        
   8389 ****        18.0000  22.5000  24.2500 Du        
   8390 ****        18.0000  22.7500  23.0000 Du        
   8391 ****        18.0000  22.7500  23.2500 Du        
   8392 ****        18.0000  22.7500  23.5000 Du        
   8393 ****        18.0000  22.7500  23.7500 Du        
   8394 ****        18.0000  22.7500  24.0000 Du        
   8395 ****        18.0000  22.7500  24.2500 Du        
   8396 ****        18.0000  22.7500  24.5000 Du        
   8397 ****        18.0000  22.7500  24.7500 Du        
   8398 ****        18.0000  23.0000  23.2500 Du        
   8399 ****        18.0000  23.0000  23.5000 Du        
   8400 ****        18.0000  23.0000  23.7500 Du        
   8401 ****        18.0000  23.0000  24.0000 Du        
   8402 ****        18.0000  23.0000  24.2500 Du        
   8403 ****        18.0000  23.2500  23.2500 Du        
   8404 ****        18.0000  23.2500  23.5000 Du        
   8405 ****        18.0000  23.2500  23.7500 Du        
   8406 ****        18.0000  23.2500  24.0000 Du        
   8407 ****        18.0000  23.2500  24.2500 Du        
   8408 ****        18.0000  23.5000  23.5000 Du        
   8409 ****        18.0000  23.5000  23.7500 Du        
   8410 ****        18.0000  23.5000  24.0000 Du        
   8411 ****        18.0000  23.5000  24.2500 Du        
   8412 ****        18.0000  23.7500  23.5000 Du        
   8413 ****        18.0000  23.7500  23.7500 Du        
   8414 ****        18.0000  23.7500  24.0000 Du        
   8415 ****        18.0000  23.7500  24.2500 Du        
   8416 ****        18.0000  24.0000  23.7500 Du        
   8417 ****        18.0000  24.0000  24.0000 Du        
   8418 ****        18.0000  26.2500  27.7500 Du        
   8419 ****        18.0000  26.2500  28.0000 Du        
   8420 ****        18.0000  26.2500  28.2500 Du        
   8421 ****        18.0000  26.5000  27.5000 Du        
   8422 ****        18.0000  26.5000  27.7500 Du        
   8423 ****        18.0000  26.5000  28.0000 Du        
   8424 ****        18.0000  26.5000  28.2500 Du        
   8425 ****        18.0000  26.5000  28.5000 Du        
   8426 ****        18.0000  26.7500  27.5000 Du        
   8427 ****        18.0000  26.7500  27.7500 Du        
   8428 ****        18.0000  26.7500  28.0000 Du        
   8429 ****        18.0000  26.7500  28.2500 Du        
   8430 ****        18.0000  26.7500  28.5000 Du        
   8431 ****        18.0000  26.7500  28.7500 Du        
   8432 ****        18.0000  27.0000  27.5000 Du        
   8433 ****        18.0000  27.0000  27.7500 Du        
   8434 ****        18.0000  27.0000  28.0000 Du        
   8435 ****        18.0000  27.0000  28.2500 Du        
   8436 ****        18.0000  27.0000  28.5000 Du        
   8437 ****        18.0000  27.0000  28.7500 Du        
   8438 ****        18.0000  27.2500  27.7500 Du        
   8439 ****        18.0000  27.2500  28.0000 Du        
   8440 ****        18.0000  27.2500  28.2500 Du        
   8441 ****        18.0000  27.2500  28.5000 Du        
   8442 ****        18.0000  27.2500  28.7500 Du        
   8443 ****        18.0000  27.2500  29.0000 Du        
   8444 ****        18.0000  27.5000  28.0000 Du        
   8445 ****        18.0000  27.5000  28.2500 Du        
   8446 ****        18.0000  27.5000  28.5000 Du        
   8447 ****        18.0000  27.5000  28.7500 Du        
   8448 ****        18.0000  27.5000  29.0000 Du        
   8449 ****        18.0000  27.7500  28.0000 Du        
   8450 ****        18.0000  27.7500  28.2500 Du        
   8451 ****        18.0000  27.7500  28.5000 Du        
   8452 ****        18.0000  27.7500  28.7500 Du        
   8453 ****        18.0000  27.7500  29.0000 Du        
   8454 ****        18.0000  28.0000  28.2500 Du        
   8455 ****        18.0000  28.0000  28.5000 Du        
   8456 ****        18.0000  28.0000  28.7500 Du        
   8457 ****        18.0000  28.0000  29.0000 Du        
   8458 ****        18.0000  28.0000  29.2500 Du        
   8459 ****        18.0000  28.2500  28.5000 Du        
   8460 ****        18.0000  28.2500  28.7500 Du        
   8461 ****        18.0000  28.2500  29.0000 Du        
   8462 ****        18.0000  28.2500  29.2500 Du        
   8463 ****        18.0000  28.2500  29.5000 Du        
   8464 ****        18.0000  28.5000  28.5000 Du        
   8465 ****        18.0000  28.5000  28.7500 Du        
   8466 ****        18.0000  28.5000  29.0000 Du        
   8467 ****        18.0000  28.5000  29.2500 Du        
   8468 ****        18.0000  28.5000  29.5000 Du        
   8469 ****        18.0000  28.7500  28.7500 Du        
   8470 ****        18.0000  28.7500  29.0000 Du        
   8471 ****        18.0000  28.7500  29.2500 Du        
   8472 ****        18.0000  28.7500  29.5000 Du        
   8473 ****        18.2500   9.7500  30.2500 Du        
   8474 ****        18.2500   9.7500  30.5000 Du        
   8475 ****        18.2500   9.7500  30.7500 Du        
   8476 ****        18.2500   9.7500  31.0000 Du        
   8477 ****        18.2500   9.7500  31.2500 Du        
   8478 ****        18.2500  10.0000  30.2500 Du        
   8479 ****        18.2500  10.0000  30.5000 Du        
   8480 ****        18.2500  10.0000  30.7500 Du        
   8481 ****        18.2500  10.0000  31.0000 Du        
   8482 ****        18.2500  10.0000  31.2500 Du        
   8483 ****        18.2500  10.0000  31.5000 Du        
   8484 ****        18.2500  10.0000  31.7500 Du        
   8485 ****        18.2500  10.2500  30.0000 Du        
   8486 ****        18.2500  10.2500  30.2500 Du        
   8487 ****        18.2500  10.2500  30.5000 Du        
   8488 ****        18.2500  10.2500  30.7500 Du        
   8489 ****        18.2500  10.2500  31.0000 Du        
   8490 ****        18.2500  10.2500  31.2500 Du        
   8491 ****        18.2500  10.2500  31.5000 Du        
   8492 ****        18.2500  10.2500  31.7500 Du        
   8493 ****        18.2500  10.2500  32.0000 Du        
   8494 ****        18.2500  10.5000  29.7500 Du        
   8495 ****        18.2500  10.5000  30.0000 Du        
   8496 ****        18.2500  10.5000  30.2500 Du        
   8497 ****        18.2500  10.5000  30.5000 Du        
   8498 ****        18.2500  10.5000  30.7500 Du        
   8499 ****        18.2500  10.5000  31.0000 Du        
   8500 ****        18.2500  10.5000  31.2500 Du        
   8501 ****        18.2500  10.5000  31.5000 Du        
   8502 ****        18.2500  10.5000  31.7500 Du        
   8503 ****        18.2500  10.5000  32.0000 Du        
   8504 ****        18.2500  10.7500  29.7500 Du        
   8505 ****        18.2500  10.7500  30.0000 Du        
   8506 ****        18.2500  10.7500  30.2500 Du        
   8507 ****        18.2500  10.7500  30.5000 Du        
   8508 ****        18.2500  10.7500  30.7500 Du        
   8509 ****        18.2500  10.7500  31.0000 Du        
   8510 ****        18.2500  10.7500  31.2500 Du        
   8511 ****        18.2500  10.7500  31.5000 Du        
   8512 ****        18.2500  10.7500  31.7500 Du        
   8513 ****        18.2500  10.7500  32.0000 Du        
   8514 ****        18.2500  10.7500  32.2500 Du        
   8515 ****        18.2500  11.0000  29.5000 Du        
   8516 ****        18.2500  11.0000  29.7500 Du        
   8517 ****        18.2500  11.0000  30.0000 Du        
   8518 ****        18.2500  11.0000  30.2500 Du        
   8519 ****        18.2500  11.0000  30.5000 Du        
   8520 ****        18.2500  11.0000  30.7500 Du        
   8521 ****        18.2500  11.0000  31.0000 Du        
   8522 ****        18.2500  11.0000  31.2500 Du        
   8523 ****        18.2500  11.0000  31.5000 Du        
   8524 ****        18.2500  11.0000  31.7500 Du        
   8525 ****        18.2500  11.0000  32.0000 Du        
   8526 ****        18.2500  11.2500  29.2500 Du        
   8527 ****        18.2500  11.2500  29.5000 Du        
   8528 ****        18.2500  11.2500  29.7500 Du        
   8529 ****        18.2500  11.2500  30.0000 Du        
   8530 ****        18.2500  11.2500  30.2500 Du        
   8531 ****        18.2500  11.2500  30.5000 Du        
   8532 ****        18.2500  11.2500  30.7500 Du        
   8533 ****        18.2500  11.2500  31.0000 Du        
   8534 ****        18.2500  11.2500  31.2500 Du        
   8535 ****        18.2500  11.2500  31.5000 Du        
   8536 ****        18.2500  11.2500  31.7500 Du        
   8537 ****        18.2500  11.2500  32.0000 Du        
   8538 ****        18.2500  11.5000  29.0000 Du        
   8539 ****        18.2500  11.5000  29.2500 Du        
   8540 ****        18.2500  11.5000  29.5000 Du        
   8541 ****        18.2500  11.5000  29.7500 Du        
   8542 ****        18.2500  11.5000  30.0000 Du        
   8543 ****        18.2500  11.5000  30.2500 Du        
   8544 ****        18.2500  11.5000  30.5000 Du        
   8545 ****        18.2500  11.5000  30.7500 Du        
   8546 ****        18.2500  11.5000  31.0000 Du        
   8547 ****        18.2500  11.5000  31.2500 Du        
   8548 ****        18.2500  11.5000  31.5000 Du        
   8549 ****        18.2500  11.5000  31.7500 Du        
   8550 ****        18.2500  11.5000  32.0000 Du        
   8551 ****        18.2500  11.7500  28.7500 Du        
   8552 ****        18.2500  11.7500  29.0000 Du        
   8553 ****        18.2500  11.7500  29.2500 Du        
   8554 ****        18.2500  11.7500  29.5000 Du        
   8555 ****        18.2500  11.7500  29.7500 Du        
   8556 ****        18.2500  11.7500  30.0000 Du        
   8557 ****        18.2500  11.7500  30.2500 Du        
   8558 ****        18.2500  11.7500  30.5000 Du        
   8559 ****        18.2500  11.7500  30.7500 Du        
   8560 ****        18.2500  11.7500  31.0000 Du        
   8561 ****        18.2500  11.7500  31.2500 Du        
   8562 ****        18.2500  11.7500  31.5000 Du        
   8563 ****        18.2500  11.7500  31.7500 Du        
   8564 ****        18.2500  12.0000  28.5000 Du        
   8565 ****        18.2500  12.0000  28.7500 Du        
   8566 ****        18.2500  12.0000  29.0000 Du        
   8567 ****        18.2500  12.0000  29.2500 Du        
   8568 ****        18.2500  12.0000  29.5000 Du        
   8569 ****        18.2500  12.0000  29.7500 Du        
   8570 ****        18.2500  12.0000  30.0000 Du        
   8571 ****        18.2500  12.0000  30.2500 Du        
   8572 ****        18.2500  12.0000  30.5000 Du        
   8573 ****        18.2500  12.0000  30.7500 Du        
   8574 ****        18.2500  12.0000  31.0000 Du        
   8575 ****        18.2500  12.0000  31.2500 Du        
   8576 ****        18.2500  12.0000  31.5000 Du        
   8577 ****        18.2500  12.0000  31.7500 Du        
   8578 ****        18.2500  12.2500  28.5000 Du        
   8579 ****        18.2500  12.2500  28.7500 Du        
   8580 ****        18.2500  12.2500  29.0000 Du        
   8581 ****        18.2500  12.2500  29.2500 Du        
   8582 ****        18.2500  12.2500  29.5000 Du        
   8583 ****        18.2500  12.2500  29.7500 Du        
   8584 ****        18.2500  12.2500  30.0000 Du        
   8585 ****        18.2500  12.2500  30.2500 Du        
   8586 ****        18.2500  12.2500  30.5000 Du        
   8587 ****        18.2500  12.2500  30.7500 Du        
   8588 ****        18.2500  12.2500  31.0000 Du        
   8589 ****        18.2500  12.2500  31.2500 Du        
   8590 ****        18.2500  12.2500  31.5000 Du        
   8591 ****        18.2500  12.5000  28.2500 Du        
   8592 ****        18.2500  12.5000  28.5000 Du        
   8593 ****        18.2500  12.5000  28.7500 Du        
   8594 ****        18.2500  12.5000  29.0000 Du        
   8595 ****        18.2500  12.5000  29.2500 Du        
   8596 ****        18.2500  12.5000  29.5000 Du        
   8597 ****        18.2500  12.5000  29.7500 Du        
   8598 ****        18.2500  12.5000  30.0000 Du        
   8599 ****        18.2500  12.5000  30.2500 Du        
   8600 ****        18.2500  12.5000  30.5000 Du        
   8601 ****        18.2500  12.5000  30.7500 Du        
   8602 ****        18.2500  12.5000  31.0000 Du        
   8603 ****        18.2500  12.5000  31.2500 Du        
   8604 ****        18.2500  12.7500  28.2500 Du        
   8605 ****        18.2500  12.7500  28.5000 Du        
   8606 ****        18.2500  12.7500  28.7500 Du        
   8607 ****        18.2500  12.7500  29.0000 Du        
   8608 ****        18.2500  12.7500  29.2500 Du        
   8609 ****        18.2500  12.7500  29.5000 Du        
   8610 ****        18.2500  12.7500  29.7500 Du        
   8611 ****        18.2500  12.7500  30.0000 Du        
   8612 ****        18.2500  12.7500  30.2500 Du        
   8613 ****        18.2500  12.7500  30.5000 Du        
   8614 ****        18.2500  12.7500  30.7500 Du        
   8615 ****        18.2500  12.7500  31.0000 Du        
   8616 ****        18.2500  13.0000  28.7500 Du        
   8617 ****        18.2500  13.0000  29.0000 Du        
   8618 ****        18.2500  13.0000  29.2500 Du        
   8619 ****        18.2500  13.0000  29.5000 Du        
   8620 ****        18.2500  13.0000  29.7500 Du        
   8621 ****        18.2500  13.0000  30.0000 Du        
   8622 ****        18.2500  13.0000  30.2500 Du        
   8623 ****        18.2500  13.0000  30.5000 Du        
   8624 ****        18.2500  13.0000  30.7500 Du        
   8625 ****        18.2500  13.0000  31.0000 Du        
   8626 ****        18.2500  13.2500  29.5000 Du        
   8627 ****        18.2500  13.2500  29.7500 Du        
   8628 ****        18.2500  13.2500  30.0000 Du        
   8629 ****        18.2500  13.2500  30.2500 Du        
   8630 ****        18.2500  13.2500  30.5000 Du        
   8631 ****        18.2500  21.5000  23.2500 Du        
   8632 ****        18.2500  21.5000  23.5000 Du        
   8633 ****        18.2500  21.5000  23.7500 Du        
   8634 ****        18.2500  21.7500  23.2500 Du        
   8635 ****        18.2500  21.7500  23.5000 Du        
   8636 ****        18.2500  21.7500  23.7500 Du        
   8637 ****        18.2500  21.7500  24.0000 Du        
   8638 ****        18.2500  21.7500  24.2500 Du        
   8639 ****        18.2500  22.0000  23.0000 Du        
   8640 ****        18.2500  22.0000  23.2500 Du        
   8641 ****        18.2500  22.0000  23.5000 Du        
   8642 ****        18.2500  22.0000  23.7500 Du        
   8643 ****        18.2500  22.0000  24.0000 Du        
   8644 ****        18.2500  22.0000  24.2500 Du        
   8645 ****        18.2500  22.0000  25.0000 Du        
   8646 ****        18.2500  22.2500  23.0000 Du        
   8647 ****        18.2500  22.2500  23.2500 Du        
   8648 ****        18.2500  22.2500  23.5000 Du        
   8649 ****        18.2500  22.2500  23.7500 Du        
   8650 ****        18.2500  22.2500  24.0000 Du        
   8651 ****        18.2500  22.2500  24.2500 Du        
   8652 ****        18.2500  22.2500  24.5000 Du        
   8653 ****        18.2500  22.2500  24.7500 Du        
   8654 ****        18.2500  22.2500  25.0000 Du        
   8655 ****        18.2500  22.5000  23.2500 Du        
   8656 ****        18.2500  22.5000  23.5000 Du        
   8657 ****        18.2500  22.5000  23.7500 Du        
   8658 ****        18.2500  22.5000  24.0000 Du        
   8659 ****        18.2500  22.5000  24.2500 Du        
   8660 ****        18.2500  22.5000  24.5000 Du        
   8661 ****        18.2500  22.5000  24.7500 Du        
   8662 ****        18.2500  22.7500  23.2500 Du        
   8663 ****        18.2500  22.7500  23.5000 Du        
   8664 ****        18.2500  22.7500  23.7500 Du        
   8665 ****        18.2500  22.7500  24.0000 Du        
   8666 ****        18.2500  22.7500  24.2500 Du        
   8667 ****        18.2500  22.7500  24.5000 Du        
   8668 ****        18.2500  22.7500  24.7500 Du        
   8669 ****        18.2500  23.0000  23.2500 Du        
   8670 ****        18.2500  23.0000  23.5000 Du        
   8671 ****        18.2500  23.0000  23.7500 Du        
   8672 ****        18.2500  23.0000  24.0000 Du        
   8673 ****        18.2500  23.0000  24.2500 Du        
   8674 ****        18.2500  23.0000  24.5000 Du        
   8675 ****        18.2500  23.0000  24.7500 Du        
   8676 ****        18.2500  23.2500  23.2500 Du        
   8677 ****        18.2500  23.2500  23.5000 Du        
   8678 ****        18.2500  23.2500  23.7500 Du        
   8679 ****        18.2500  23.2500  24.0000 Du        
   8680 ****        18.2500  23.2500  24.2500 Du        
   8681 ****        18.2500  23.5000  23.2500 Du        
   8682 ****        18.2500  23.5000  23.5000 Du        
   8683 ****        18.2500  23.5000  23.7500 Du        
   8684 ****        18.2500  23.5000  24.0000 Du        
   8685 ****        18.2500  23.5000  24.2500 Du        
   8686 ****        18.2500  23.7500  23.2500 Du        
   8687 ****        18.2500  23.7500  23.5000 Du        
   8688 ****        18.2500  23.7500  23.7500 Du        
   8689 ****        18.2500  23.7500  24.0000 Du        
   8690 ****        18.2500  23.7500  24.2500 Du        
   8691 ****        18.2500  24.0000  23.5000 Du        
   8692 ****        18.2500  24.0000  23.7500 Du        
   8693 ****        18.2500  24.0000  24.0000 Du        
   8694 ****        18.2500  24.0000  24.2500 Du        
   8695 ****        18.2500  24.2500  23.5000 Du        
   8696 ****        18.2500  24.2500  23.7500 Du        
   8697 ****        18.2500  24.2500  24.0000 Du        
   8698 ****        18.2500  26.2500  27.7500 Du        
   8699 ****        18.2500  26.2500  28.0000 Du        
   8700 ****        18.2500  26.2500  28.2500 Du        
   8701 ****        18.2500  26.5000  27.7500 Du        
   8702 ****        18.2500  26.5000  28.0000 Du        
   8703 ****        18.2500  26.5000  28.2500 Du        
   8704 ****        18.2500  26.5000  28.5000 Du        
   8705 ****        18.2500  26.7500  27.5000 Du        
   8706 ****        18.2500  26.7500  27.7500 Du        
   8707 ****        18.2500  26.7500  28.0000 Du        
   8708 ****        18.2500  26.7500  28.2500 Du        
   8709 ****        18.2500  26.7500  28.5000 Du        
   8710 ****        18.2500  27.0000  27.5000 Du        
   8711 ****        18.2500  27.0000  27.7500 Du        
   8712 ****        18.2500  27.0000  28.0000 Du        
   8713 ****        18.2500  27.0000  28.2500 Du        
   8714 ****        18.2500  27.0000  28.5000 Du        
   8715 ****        18.2500  27.0000  28.7500 Du        
   8716 ****        18.2500  27.2500  27.5000 Du        
   8717 ****        18.2500  27.2500  27.7500 Du        
   8718 ****        18.2500  27.2500  28.0000 Du        
   8719 ****        18.2500  27.2500  28.2500 Du        
   8720 ****        18.2500  27.2500  28.5000 Du        
   8721 ****        18.2500  27.2500  28.7500 Du        
   8722 ****        18.2500  27.5000  27.7500 Du        
   8723 ****        18.2500  27.5000  28.0000 Du        
   8724 ****        18.2500  27.5000  28.2500 Du        
   8725 ****        18.2500  27.5000  28.5000 Du        
   8726 ****        18.2500  27.5000  28.7500 Du        
   8727 ****        18.2500  27.7500  27.7500 Du        
   8728 ****        18.2500  27.7500  28.0000 Du        
   8729 ****        18.2500  27.7500  28.2500 Du        
   8730 ****        18.2500  27.7500  28.5000 Du        
   8731 ****        18.2500  27.7500  28.7500 Du        
   8732 ****        18.2500  27.7500  29.0000 Du        
   8733 ****        18.2500  28.0000  28.0000 Du        
   8734 ****        18.2500  28.0000  28.2500 Du        
   8735 ****        18.2500  28.0000  28.5000 Du        
   8736 ****        18.2500  28.0000  28.7500 Du        
   8737 ****        18.2500  28.0000  29.0000 Du        
   8738 ****        18.2500  28.0000  29.2500 Du        
   8739 ****        18.2500  28.2500  28.2500 Du        
   8740 ****        18.2500  28.2500  28.5000 Du        
   8741 ****        18.2500  28.2500  28.7500 Du        
   8742 ****        18.2500  28.2500  29.0000 Du        
   8743 ****        18.2500  28.2500  29.2500 Du        
   8744 ****        18.2500  28.5000  28.5000 Du        
   8745 ****        18.2500  28.5000  28.7500 Du        
   8746 ****        18.2500  28.5000  29.0000 Du        
   8747 ****        18.2500  28.5000  29.2500 Du        
   8748 ****        18.2500  28.7500  28.5000 Du        
   8749 ****        18.2500  28.7500  28.7500 Du        
   8750 ****        18.2500  28.7500  29.0000 Du        
   8751 ****        18.2500  28.7500  29.2500 Du        
   8752 ****        18.2500  28.7500  29.5000 Du        
   8753 ****        18.5000   9.5000  30.5000 Du        
   8754 ****        18.5000   9.5000  30.7500 Du        
   8755 ****        18.5000   9.7500  30.2500 Du        
   8756 ****        18.5000   9.7500  30.5000 Du        
   8757 ****        18.5000   9.7500  30.7500 Du        
   8758 ****        18.5000   9.7500  31.0000 Du        
   8759 ****        18.5000   9.7500  31.2500 Du        
   8760 ****        18.5000  10.0000  30.0000 Du        
   8761 ****        18.5000  10.0000  30.2500 Du        
   8762 ****        18.5000  10.0000  30.5000 Du        
   8763 ****        18.5000  10.0000  30.7500 Du        
   8764 ****        18.5000  10.0000  31.0000 Du        
   8765 ****        18.5000  10.0000  31.2500 Du        
   8766 ****        18.5000  10.0000  31.5000 Du        
   8767 ****        18.5000  10.0000  31.7500 Du        
   8768 ****        18.5000  10.2500  30.0000 Du        
   8769 ****        18.5000  10.2500  30.2500 Du        
   8770 ****        18.5000  10.2500  30.5000 Du        
   8771 ****        18.5000  10.2500  30.7500 Du        
   8772 ****        18.5000  10.2500  31.0000 Du        
   8773 ****        18.5000  10.2500  31.2500 Du        
   8774 ****        18.5000  10.2500  31.5000 Du        
   8775 ****        18.5000  10.2500  31.7500 Du        
   8776 ****        18.5000  10.2500  32.0000 Du        
   8777 ****        18.5000  10.5000  29.7500 Du        
   8778 ****        18.5000  10.5000  30.0000 Du        
   8779 ****        18.5000  10.5000  30.2500 Du        
   8780 ****        18.5000  10.5000  30.5000 Du        
   8781 ****        18.5000  10.5000  30.7500 Du        
   8782 ****        18.5000  10.5000  31.0000 Du        
   8783 ****        18.5000  10.5000  31.2500 Du        
   8784 ****        18.5000  10.5000  31.5000 Du        
   8785 ****        18.5000  10.5000  31.7500 Du        
   8786 ****        18.5000  10.5000  32.0000 Du        
   8787 ****        18.5000  10.7500  29.5000 Du        
   8788 ****        18.5000  10.7500  29.7500 Du        
   8789 ****        18.5000  10.7500  30.0000 Du        
   8790 ****        18.5000  10.7500  30.2500 Du        
   8791 ****        18.5000  10.7500  30.5000 Du        
   8792 ****        18.5000  10.7500  30.7500 Du        
   8793 ****        18.5000  10.7500  31.0000 Du        
   8794 ****        18.5000  10.7500  31.2500 Du        
   8795 ****        18.5000  10.7500  31.5000 Du        
   8796 ****        18.5000  10.7500  31.7500 Du        
   8797 ****        18.5000  10.7500  32.0000 Du        
   8798 ****        18.5000  11.0000  29.2500 Du        
   8799 ****        18.5000  11.0000  29.5000 Du        
   8800 ****        18.5000  11.0000  29.7500 Du        
   8801 ****        18.5000  11.0000  30.0000 Du        
   8802 ****        18.5000  11.0000  30.2500 Du        
   8803 ****        18.5000  11.0000  30.5000 Du        
   8804 ****        18.5000  11.0000  30.7500 Du        
   8805 ****        18.5000  11.0000  31.0000 Du        
   8806 ****        18.5000  11.0000  31.2500 Du        
   8807 ****        18.5000  11.0000  31.5000 Du        
   8808 ****        18.5000  11.0000  31.7500 Du        
   8809 ****        18.5000  11.0000  32.0000 Du        
   8810 ****        18.5000  11.2500  29.2500 Du        
   8811 ****        18.5000  11.2500  29.5000 Du        
   8812 ****        18.5000  11.2500  29.7500 Du        
   8813 ****        18.5000  11.2500  30.0000 Du        
   8814 ****        18.5000  11.2500  30.2500 Du        
   8815 ****        18.5000  11.2500  30.5000 Du        
   8816 ****        18.5000  11.2500  30.7500 Du        
   8817 ****        18.5000  11.2500  31.0000 Du        
   8818 ****        18.5000  11.2500  31.2500 Du        
   8819 ****        18.5000  11.2500  31.5000 Du        
   8820 ****        18.5000  11.2500  31.7500 Du        
   8821 ****        18.5000  11.2500  32.0000 Du        
   8822 ****        18.5000  11.5000  29.0000 Du        
   8823 ****        18.5000  11.5000  29.2500 Du        
   8824 ****        18.5000  11.5000  29.5000 Du        
   8825 ****        18.5000  11.5000  29.7500 Du        
   8826 ****        18.5000  11.5000  30.0000 Du        
   8827 ****        18.5000  11.5000  30.2500 Du        
   8828 ****        18.5000  11.5000  30.5000 Du        
   8829 ****        18.5000  11.5000  30.7500 Du        
   8830 ****        18.5000  11.5000  31.0000 Du        
   8831 ****        18.5000  11.5000  31.2500 Du        
   8832 ****        18.5000  11.5000  31.5000 Du        
   8833 ****        18.5000  11.5000  31.7500 Du        
   8834 ****        18.5000  11.7500  28.7500 Du        
   8835 ****        18.5000  11.7500  29.0000 Du        
   8836 ****        18.5000  11.7500  29.2500 Du        
   8837 ****        18.5000  11.7500  29.5000 Du        
   8838 ****        18.5000  11.7500  29.7500 Du        
   8839 ****        18.5000  11.7500  30.0000 Du        
   8840 ****        18.5000  11.7500  30.2500 Du        
   8841 ****        18.5000  11.7500  30.5000 Du        
   8842 ****        18.5000  11.7500  30.7500 Du        
   8843 ****        18.5000  11.7500  31.0000 Du        
   8844 ****        18.5000  11.7500  31.2500 Du        
   8845 ****        18.5000  11.7500  31.5000 Du        
   8846 ****        18.5000  11.7500  31.7500 Du        
   8847 ****        18.5000  12.0000  28.5000 Du        
   8848 ****        18.5000  12.0000  28.7500 Du        
   8849 ****        18.5000  12.0000  29.0000 Du        
   8850 ****        18.5000  12.0000  29.2500 Du        
   8851 ****        18.5000  12.0000  29.5000 Du        
   8852 ****        18.5000  12.0000  29.7500 Du        
   8853 ****        18.5000  12.0000  30.0000 Du        
   8854 ****        18.5000  12.0000  30.2500 Du        
   8855 ****        18.5000  12.0000  30.5000 Du        
   8856 ****        18.5000  12.0000  30.7500 Du        
   8857 ****        18.5000  12.0000  31.0000 Du        
   8858 ****        18.5000  12.0000  31.2500 Du        
   8859 ****        18.5000  12.0000  31.5000 Du        
   8860 ****        18.5000  12.0000  31.7500 Du        
   8861 ****        18.5000  12.2500  28.5000 Du        
   8862 ****        18.5000  12.2500  28.7500 Du        
   8863 ****        18.5000  12.2500  29.0000 Du        
   8864 ****        18.5000  12.2500  29.2500 Du        
   8865 ****        18.5000  12.2500  29.5000 Du        
   8866 ****        18.5000  12.2500  29.7500 Du        
   8867 ****        18.5000  12.2500  30.0000 Du        
   8868 ****        18.5000  12.2500  30.2500 Du        
   8869 ****        18.5000  12.2500  30.5000 Du        
   8870 ****        18.5000  12.2500  30.7500 Du        
   8871 ****        18.5000  12.2500  31.0000 Du        
   8872 ****        18.5000  12.2500  31.2500 Du        
   8873 ****        18.5000  12.2500  31.5000 Du        
   8874 ****        18.5000  12.5000  28.5000 Du        
   8875 ****        18.5000  12.5000  28.7500 Du        
   8876 ****        18.5000  12.5000  29.0000 Du        
   8877 ****        18.5000  12.5000  29.2500 Du        
   8878 ****        18.5000  12.5000  29.5000 Du        
   8879 ****        18.5000  12.5000  29.7500 Du        
   8880 ****        18.5000  12.5000  30.0000 Du        
   8881 ****        18.5000  12.5000  30.2500 Du        
   8882 ****        18.5000  12.5000  30.5000 Du        
   8883 ****        18.5000  12.5000  30.7500 Du        
   8884 ****        18.5000  12.5000  31.0000 Du        
   8885 ****        18.5000  12.5000  31.2500 Du        
   8886 ****        18.5000  12.5000  31.5000 Du        
   8887 ****        18.5000  12.7500  28.5000 Du        
   8888 ****        18.5000  12.7500  28.7500 Du        
   8889 ****        18.5000  12.7500  29.0000 Du        
   8890 ****        18.5000  12.7500  29.2500 Du        
   8891 ****        18.5000  12.7500  29.5000 Du        
   8892 ****        18.5000  12.7500  29.7500 Du        
   8893 ****        18.5000  12.7500  30.0000 Du        
   8894 ****        18.5000  12.7500  30.2500 Du        
   8895 ****        18.5000  12.7500  30.5000 Du        
   8896 ****        18.5000  12.7500  30.7500 Du        
   8897 ****        18.5000  12.7500  31.0000 Du        
   8898 ****        18.5000  12.7500  31.2500 Du        
   8899 ****        18.5000  13.0000  29.2500 Du        
   8900 ****        18.5000  13.0000  29.5000 Du        
   8901 ****        18.5000  13.0000  29.7500 Du        
   8902 ****        18.5000  13.0000  30.0000 Du        
   8903 ****        18.5000  13.0000  30.2500 Du        
   8904 ****        18.5000  13.0000  30.5000 Du        
   8905 ****        18.5000  13.0000  30.7500 Du        
   8906 ****        18.5000  13.0000  31.0000 Du        
   8907 ****        18.5000  13.0000  31.2500 Du        
   8908 ****        18.5000  13.2500  30.2500 Du        
   8909 ****        18.5000  13.2500  30.5000 Du        
   8910 ****        18.5000  13.2500  30.7500 Du        
   8911 ****        18.5000  13.2500  31.0000 Du        
   8912 ****        18.5000  21.5000  23.2500 Du        
   8913 ****        18.5000  21.7500  23.2500 Du        
   8914 ****        18.5000  21.7500  23.5000 Du        
   8915 ****        18.5000  21.7500  23.7500 Du        
   8916 ****        18.5000  21.7500  24.0000 Du        
   8917 ****        18.5000  21.7500  24.2500 Du        
   8918 ****        18.5000  22.0000  23.2500 Du        
   8919 ****        18.5000  22.0000  23.5000 Du        
   8920 ****        18.5000  22.0000  23.7500 Du        
   8921 ****        18.5000  22.0000  24.0000 Du        
   8922 ****        18.5000  22.0000  24.2500 Du        
   8923 ****        18.5000  22.0000  24.5000 Du        
   8924 ****        18.5000  22.0000  24.7500 Du        
   8925 ****        18.5000  22.0000  25.0000 Du        
   8926 ****        18.5000  22.2500  23.0000 Du        
   8927 ****        18.5000  22.2500  23.2500 Du        
   8928 ****        18.5000  22.2500  23.5000 Du        
   8929 ****        18.5000  22.2500  23.7500 Du        
   8930 ****        18.5000  22.2500  24.0000 Du        
   8931 ****        18.5000  22.2500  24.2500 Du        
   8932 ****        18.5000  22.2500  24.5000 Du        
   8933 ****        18.5000  22.2500  24.7500 Du        
   8934 ****        18.5000  22.2500  25.0000 Du        
   8935 ****        18.5000  22.2500  25.2500 Du        
   8936 ****        18.5000  22.5000  23.2500 Du        
   8937 ****        18.5000  22.5000  23.5000 Du        
   8938 ****        18.5000  22.5000  23.7500 Du        
   8939 ****        18.5000  22.5000  24.0000 Du        
   8940 ****        18.5000  22.5000  24.2500 Du        
   8941 ****        18.5000  22.5000  24.5000 Du        
   8942 ****        18.5000  22.5000  24.7500 Du        
   8943 ****        18.5000  22.5000  25.0000 Du        
   8944 ****        18.5000  22.5000  25.2500 Du        
   8945 ****        18.5000  22.7500  23.2500 Du        
   8946 ****        18.5000  22.7500  23.5000 Du        
   8947 ****        18.5000  22.7500  23.7500 Du        
   8948 ****        18.5000  22.7500  24.0000 Du        
   8949 ****        18.5000  22.7500  24.2500 Du        
   8950 ****        18.5000  22.7500  24.5000 Du        
   8951 ****        18.5000  22.7500  24.7500 Du        
   8952 ****        18.5000  22.7500  25.0000 Du        
   8953 ****        18.5000  22.7500  25.2500 Du        
   8954 ****        18.5000  23.0000  23.2500 Du        
   8955 ****        18.5000  23.0000  23.5000 Du        
   8956 ****        18.5000  23.0000  23.7500 Du        
   8957 ****        18.5000  23.0000  24.0000 Du        
   8958 ****        18.5000  23.0000  24.2500 Du        
   8959 ****        18.5000  23.0000  24.5000 Du        
   8960 ****        18.5000  23.0000  24.7500 Du        
   8961 ****        18.5000  23.0000  25.0000 Du        
   8962 ****        18.5000  23.2500  23.2500 Du        
   8963 ****        18.5000  23.2500  23.5000 Du        
   8964 ****        18.5000  23.2500  23.7500 Du        
   8965 ****        18.5000  23.2500  24.0000 Du        
   8966 ****        18.5000  23.2500  24.2500 Du        
   8967 ****        18.5000  23.2500  24.5000 Du        
   8968 ****        18.5000  23.2500  24.7500 Du        
   8969 ****        18.5000  23.2500  25.0000 Du        
   8970 ****        18.5000  23.5000  23.2500 Du        
   8971 ****        18.5000  23.5000  23.5000 Du        
   8972 ****        18.5000  23.5000  23.7500 Du        
   8973 ****        18.5000  23.5000  24.0000 Du        
   8974 ****        18.5000  23.5000  24.2500 Du        
   8975 ****        18.5000  23.5000  24.5000 Du        
   8976 ****        18.5000  23.5000  24.7500 Du        
   8977 ****        18.5000  23.7500  23.2500 Du        
   8978 ****        18.5000  23.7500  23.5000 Du        
   8979 ****        18.5000  23.7500  23.7500 Du        
   8980 ****        18.5000  23.7500  24.0000 Du        
   8981 ****        18.5000  23.7500  24.2500 Du        
   8982 ****        18.5000  23.7500  24.5000 Du        
   8983 ****        18.5000  23.7500  24.7500 Du        
   8984 ****        18.5000  24.0000  23.2500 Du        
   8985 ****        18.5000  24.0000  23.5000 Du        
   8986 ****        18.5000  24.0000  23.7500 Du        
   8987 ****        18.5000  24.0000  24.0000 Du        
   8988 ****        18.5000  24.0000  24.2500 Du        
   8989 ****        18.5000  24.0000  24.5000 Du        
   8990 ****        18.5000  24.2500  23.2500 Du        
   8991 ****        18.5000  24.2500  23.5000 Du        
   8992 ****        18.5000  24.2500  23.7500 Du        
   8993 ****        18.5000  24.2500  24.0000 Du        
   8994 ****        18.5000  24.2500  24.2500 Du        
   8995 ****        18.5000  24.5000  23.2500 Du        
   8996 ****        18.5000  24.5000  23.5000 Du        
   8997 ****        18.5000  24.5000  23.7500 Du        
   8998 ****        18.5000  24.5000  24.0000 Du        
   8999 ****        18.5000  24.5000  24.2500 Du        
   9000 ****        18.5000  24.7500  23.2500 Du        
   9001 ****        18.5000  24.7500  23.5000 Du        
   9002 ****        18.5000  24.7500  23.7500 Du        
   9003 ****        18.5000  24.7500  24.0000 Du        
   9004 ****        18.5000  25.0000  23.2500 Du        
   9005 ****        18.5000  25.0000  24.0000 Du        
   9006 ****        18.5000  25.2500  23.2500 Du        
   9007 ****        18.5000  26.5000  28.0000 Du        
   9008 ****        18.5000  26.7500  27.7500 Du        
   9009 ****        18.5000  26.7500  28.0000 Du        
   9010 ****        18.5000  27.0000  27.5000 Du        
   9011 ****        18.5000  27.0000  27.7500 Du        
   9012 ****        18.5000  27.0000  28.0000 Du        
   9013 ****        18.5000  27.0000  28.2500 Du        
   9014 ****        18.5000  27.2500  27.5000 Du        
   9015 ****        18.5000  27.2500  27.7500 Du        
   9016 ****        18.5000  27.2500  28.0000 Du        
   9017 ****        18.5000  27.2500  28.2500 Du        
   9018 ****        18.5000  27.2500  28.5000 Du        
   9019 ****        18.5000  27.5000  27.7500 Du        
   9020 ****        18.5000  27.5000  28.0000 Du        
   9021 ****        18.5000  27.5000  28.2500 Du        
   9022 ****        18.5000  27.5000  28.5000 Du        
   9023 ****        18.5000  27.7500  27.7500 Du        
   9024 ****        18.5000  27.7500  28.0000 Du        
   9025 ****        18.5000  27.7500  28.2500 Du        
   9026 ****        18.5000  27.7500  28.5000 Du        
   9027 ****        18.5000  27.7500  28.7500 Du        
   9028 ****        18.5000  28.0000  28.0000 Du        
   9029 ****        18.5000  28.0000  28.2500 Du        
   9030 ****        18.5000  28.0000  28.5000 Du        
   9031 ****        18.5000  28.0000  28.7500 Du        
   9032 ****        18.5000  28.0000  29.0000 Du        
   9033 ****        18.5000  28.2500  28.0000 Du        
   9034 ****        18.5000  28.2500  28.2500 Du        
   9035 ****        18.5000  28.2500  28.5000 Du        
   9036 ****        18.5000  28.2500  28.7500 Du        
   9037 ****        18.5000  28.2500  29.0000 Du        
   9038 ****        18.5000  28.2500  29.2500 Du        
   9039 ****        18.5000  28.5000  28.5000 Du        
   9040 ****        18.5000  28.5000  28.7500 Du        
   9041 ****        18.5000  28.5000  29.0000 Du        
   9042 ****        18.5000  28.5000  29.2500 Du        
   9043 ****        18.5000  28.7500  28.5000 Du        
   9044 ****        18.5000  28.7500  28.7500 Du        
   9045 ****        18.5000  28.7500  29.0000 Du        
   9046 ****        18.5000  28.7500  29.2500 Du        
   9047 ****        18.7500   9.5000  30.2500 Du        
   9048 ****        18.7500   9.5000  30.5000 Du        
   9049 ****        18.7500   9.5000  30.7500 Du        
   9050 ****        18.7500   9.7500  30.0000 Du        
   9051 ****        18.7500   9.7500  30.2500 Du        
   9052 ****        18.7500   9.7500  30.5000 Du        
   9053 ****        18.7500   9.7500  30.7500 Du        
   9054 ****        18.7500   9.7500  31.0000 Du        
   9055 ****        18.7500   9.7500  31.2500 Du        
   9056 ****        18.7500  10.0000  29.7500 Du        
   9057 ****        18.7500  10.0000  30.0000 Du        
   9058 ****        18.7500  10.0000  30.2500 Du        
   9059 ****        18.7500  10.0000  30.5000 Du        
   9060 ****        18.7500  10.0000  30.7500 Du        
   9061 ****        18.7500  10.0000  31.0000 Du        
   9062 ****        18.7500  10.0000  31.2500 Du        
   9063 ****        18.7500  10.0000  31.5000 Du        
   9064 ****        18.7500  10.2500  29.7500 Du        
   9065 ****        18.7500  10.2500  30.0000 Du        
   9066 ****        18.7500  10.2500  30.2500 Du        
   9067 ****        18.7500  10.2500  30.5000 Du        
   9068 ****        18.7500  10.2500  30.7500 Du        
   9069 ****        18.7500  10.2500  31.0000 Du        
   9070 ****        18.7500  10.2500  31.2500 Du        
   9071 ****        18.7500  10.2500  31.5000 Du        
   9072 ****        18.7500  10.2500  31.7500 Du        
   9073 ****        18.7500  10.5000  29.7500 Du        
   9074 ****        18.7500  10.5000  30.0000 Du        
   9075 ****        18.7500  10.5000  30.2500 Du        
   9076 ****        18.7500  10.5000  30.5000 Du        
   9077 ****        18.7500  10.5000  30.7500 Du        
   9078 ****        18.7500  10.5000  31.0000 Du        
   9079 ****        18.7500  10.5000  31.2500 Du        
   9080 ****        18.7500  10.5000  31.5000 Du        
   9081 ****        18.7500  10.5000  31.7500 Du        
   9082 ****        18.7500  10.5000  32.0000 Du        
   9083 ****        18.7500  10.7500  29.5000 Du        
   9084 ****        18.7500  10.7500  29.7500 Du        
   9085 ****        18.7500  10.7500  30.0000 Du        
   9086 ****        18.7500  10.7500  30.2500 Du        
   9087 ****        18.7500  10.7500  30.5000 Du        
   9088 ****        18.7500  10.7500  30.7500 Du        
   9089 ****        18.7500  10.7500  31.0000 Du        
   9090 ****        18.7500  10.7500  31.2500 Du        
   9091 ****        18.7500  10.7500  31.5000 Du        
   9092 ****        18.7500  10.7500  31.7500 Du        
   9093 ****        18.7500  10.7500  32.0000 Du        
   9094 ****        18.7500  11.0000  29.2500 Du        
   9095 ****        18.7500  11.0000  29.5000 Du        
   9096 ****        18.7500  11.0000  29.7500 Du        
   9097 ****        18.7500  11.0000  30.0000 Du        
   9098 ****        18.7500  11.0000  30.2500 Du        
   9099 ****        18.7500  11.0000  30.5000 Du        
   9100 ****        18.7500  11.0000  30.7500 Du        
   9101 ****        18.7500  11.0000  31.0000 Du        
   9102 ****        18.7500  11.0000  31.2500 Du        
   9103 ****        18.7500  11.0000  31.5000 Du        
   9104 ****        18.7500  11.0000  31.7500 Du        
   9105 ****        18.7500  11.0000  32.0000 Du        
   9106 ****        18.7500  11.2500  29.0000 Du        
   9107 ****        18.7500  11.2500  29.2500 Du        
   9108 ****        18.7500  11.2500  29.5000 Du        
   9109 ****        18.7500  11.2500  29.7500 Du        
   9110 ****        18.7500  11.2500  30.0000 Du        
   9111 ****        18.7500  11.2500  30.2500 Du        
   9112 ****        18.7500  11.2500  30.5000 Du        
   9113 ****        18.7500  11.2500  30.7500 Du        
   9114 ****        18.7500  11.2500  31.0000 Du        
   9115 ****        18.7500  11.2500  31.2500 Du        
   9116 ****        18.7500  11.2500  31.5000 Du        
   9117 ****        18.7500  11.2500  31.7500 Du        
   9118 ****        18.7500  11.5000  29.0000 Du        
   9119 ****        18.7500  11.5000  29.2500 Du        
   9120 ****        18.7500  11.5000  29.5000 Du        
   9121 ****        18.7500  11.5000  29.7500 Du        
   9122 ****        18.7500  11.5000  30.0000 Du        
   9123 ****        18.7500  11.5000  30.2500 Du        
   9124 ****        18.7500  11.5000  30.5000 Du        
   9125 ****        18.7500  11.5000  30.7500 Du        
   9126 ****        18.7500  11.5000  31.0000 Du        
   9127 ****        18.7500  11.5000  31.2500 Du        
   9128 ****        18.7500  11.5000  31.5000 Du        
   9129 ****        18.7500  11.5000  31.7500 Du        
   9130 ****        18.7500  11.7500  28.7500 Du        
   9131 ****        18.7500  11.7500  29.0000 Du        
   9132 ****        18.7500  11.7500  29.2500 Du        
   9133 ****        18.7500  11.7500  29.5000 Du        
   9134 ****        18.7500  11.7500  29.7500 Du        
   9135 ****        18.7500  11.7500  30.0000 Du        
   9136 ****        18.7500  11.7500  30.2500 Du        
   9137 ****        18.7500  11.7500  30.5000 Du        
   9138 ****        18.7500  11.7500  30.7500 Du        
   9139 ****        18.7500  11.7500  31.0000 Du        
   9140 ****        18.7500  11.7500  31.2500 Du        
   9141 ****        18.7500  11.7500  31.5000 Du        
   9142 ****        18.7500  11.7500  31.7500 Du        
   9143 ****        18.7500  12.0000  28.5000 Du        
   9144 ****        18.7500  12.0000  28.7500 Du        
   9145 ****        18.7500  12.0000  29.0000 Du        
   9146 ****        18.7500  12.0000  29.2500 Du        
   9147 ****        18.7500  12.0000  29.5000 Du        
   9148 ****        18.7500  12.0000  29.7500 Du        
   9149 ****        18.7500  12.0000  30.0000 Du        
   9150 ****        18.7500  12.0000  30.2500 Du        
   9151 ****        18.7500  12.0000  30.5000 Du        
   9152 ****        18.7500  12.0000  30.7500 Du        
   9153 ****        18.7500  12.0000  31.0000 Du        
   9154 ****        18.7500  12.0000  31.2500 Du        
   9155 ****        18.7500  12.0000  31.5000 Du        
   9156 ****        18.7500  12.2500  28.5000 Du        
   9157 ****        18.7500  12.2500  28.7500 Du        
   9158 ****        18.7500  12.2500  29.0000 Du        
   9159 ****        18.7500  12.2500  29.2500 Du        
   9160 ****        18.7500  12.2500  29.5000 Du        
   9161 ****        18.7500  12.2500  29.7500 Du        
   9162 ****        18.7500  12.2500  30.0000 Du        
   9163 ****        18.7500  12.2500  30.2500 Du        
   9164 ****        18.7500  12.2500  30.5000 Du        
   9165 ****        18.7500  12.2500  30.7500 Du        
   9166 ****        18.7500  12.2500  31.0000 Du        
   9167 ****        18.7500  12.2500  31.2500 Du        
   9168 ****        18.7500  12.2500  31.5000 Du        
   9169 ****        18.7500  12.5000  28.5000 Du        
   9170 ****        18.7500  12.5000  28.7500 Du        
   9171 ****        18.7500  12.5000  29.0000 Du        
   9172 ****        18.7500  12.5000  29.2500 Du        
   9173 ****        18.7500  12.5000  29.5000 Du        
   9174 ****        18.7500  12.5000  29.7500 Du        
   9175 ****        18.7500  12.5000  30.0000 Du        
   9176 ****        18.7500  12.5000  30.2500 Du        
   9177 ****        18.7500  12.5000  30.5000 Du        
   9178 ****        18.7500  12.5000  30.7500 Du        
   9179 ****        18.7500  12.5000  31.0000 Du        
   9180 ****        18.7500  12.5000  31.2500 Du        
   9181 ****        18.7500  12.7500  29.0000 Du        
   9182 ****        18.7500  12.7500  29.2500 Du        
   9183 ****        18.7500  12.7500  29.5000 Du        
   9184 ****        18.7500  12.7500  29.7500 Du        
   9185 ****        18.7500  12.7500  30.0000 Du        
   9186 ****        18.7500  12.7500  30.2500 Du        
   9187 ****        18.7500  12.7500  30.5000 Du        
   9188 ****        18.7500  12.7500  30.7500 Du        
   9189 ****        18.7500  12.7500  31.0000 Du        
   9190 ****        18.7500  12.7500  31.2500 Du        
   9191 ****        18.7500  13.0000  30.5000 Du        
   9192 ****        18.7500  13.0000  30.7500 Du        
   9193 ****        18.7500  13.0000  31.0000 Du        
   9194 ****        18.7500  13.0000  31.2500 Du        
   9195 ****        18.7500  21.7500  23.2500 Du        
   9196 ****        18.7500  21.7500  23.5000 Du        
   9197 ****        18.7500  21.7500  23.7500 Du        
   9198 ****        18.7500  21.7500  24.0000 Du        
   9199 ****        18.7500  21.7500  24.2500 Du        
   9200 ****        18.7500  22.0000  23.2500 Du        
   9201 ****        18.7500  22.0000  23.5000 Du        
   9202 ****        18.7500  22.0000  23.7500 Du        
   9203 ****        18.7500  22.0000  24.0000 Du        
   9204 ****        18.7500  22.0000  24.2500 Du        
   9205 ****        18.7500  22.0000  24.5000 Du        
   9206 ****        18.7500  22.0000  24.7500 Du        
   9207 ****        18.7500  22.0000  25.0000 Du        
   9208 ****        18.7500  22.2500  23.2500 Du        
   9209 ****        18.7500  22.2500  23.5000 Du        
   9210 ****        18.7500  22.2500  23.7500 Du        
   9211 ****        18.7500  22.2500  24.0000 Du        
   9212 ****        18.7500  22.2500  24.2500 Du        
   9213 ****        18.7500  22.2500  24.5000 Du        
   9214 ****        18.7500  22.2500  24.7500 Du        
   9215 ****        18.7500  22.2500  25.0000 Du        
   9216 ****        18.7500  22.2500  25.2500 Du        
   9217 ****        18.7500  22.5000  23.2500 Du        
   9218 ****        18.7500  22.5000  23.5000 Du        
   9219 ****        18.7500  22.5000  23.7500 Du        
   9220 ****        18.7500  22.5000  24.0000 Du        
   9221 ****        18.7500  22.5000  24.2500 Du        
   9222 ****        18.7500  22.5000  24.5000 Du        
   9223 ****        18.7500  22.5000  24.7500 Du        
   9224 ****        18.7500  22.5000  25.0000 Du        
   9225 ****        18.7500  22.7500  23.2500 Du        
   9226 ****        18.7500  22.7500  23.5000 Du        
   9227 ****        18.7500  22.7500  23.7500 Du        
   9228 ****        18.7500  22.7500  24.0000 Du        
   9229 ****        18.7500  22.7500  24.2500 Du        
   9230 ****        18.7500  22.7500  24.5000 Du        
   9231 ****        18.7500  22.7500  24.7500 Du        
   9232 ****        18.7500  22.7500  25.0000 Du        
   9233 ****        18.7500  23.0000  23.2500 Du        
   9234 ****        18.7500  23.0000  23.5000 Du        
   9235 ****        18.7500  23.0000  23.7500 Du        
   9236 ****        18.7500  23.0000  24.0000 Du        
   9237 ****        18.7500  23.0000  24.2500 Du        
   9238 ****        18.7500  23.0000  24.5000 Du        
   9239 ****        18.7500  23.0000  24.7500 Du        
   9240 ****        18.7500  23.0000  25.0000 Du        
   9241 ****        18.7500  23.2500  23.2500 Du        
   9242 ****        18.7500  23.2500  23.5000 Du        
   9243 ****        18.7500  23.2500  23.7500 Du        
   9244 ****        18.7500  23.2500  24.0000 Du        
   9245 ****        18.7500  23.2500  24.2500 Du        
   9246 ****        18.7500  23.2500  24.5000 Du        
   9247 ****        18.7500  23.2500  24.7500 Du        
   9248 ****        18.7500  23.5000  23.2500 Du        
   9249 ****        18.7500  23.5000  23.5000 Du        
   9250 ****        18.7500  23.5000  23.7500 Du        
   9251 ****        18.7500  23.5000  24.0000 Du        
   9252 ****        18.7500  23.5000  24.2500 Du        
   9253 ****        18.7500  23.5000  24.5000 Du        
   9254 ****        18.7500  23.5000  24.7500 Du        
   9255 ****        18.7500  23.7500  23.2500 Du        
   9256 ****        18.7500  23.7500  23.5000 Du        
   9257 ****        18.7500  23.7500  23.7500 Du        
   9258 ****        18.7500  23.7500  24.0000 Du        
   9259 ****        18.7500  23.7500  24.2500 Du        
   9260 ****        18.7500  23.7500  24.5000 Du        
   9261 ****        18.7500  23.7500  24.7500 Du        
   9262 ****        18.7500  24.0000  23.2500 Du        
   9263 ****        18.7500  24.0000  23.5000 Du        
   9264 ****        18.7500  24.0000  23.7500 Du        
   9265 ****        18.7500  24.0000  24.0000 Du        
   9266 ****        18.7500  24.0000  24.2500 Du        
   9267 ****        18.7500  24.0000  24.5000 Du        
   9268 ****        18.7500  24.2500  23.2500 Du        
   9269 ****        18.7500  24.2500  23.5000 Du        
   9270 ****        18.7500  24.2500  23.7500 Du        
   9271 ****        18.7500  24.2500  24.0000 Du        
   9272 ****        18.7500  24.2500  24.2500 Du        
   9273 ****        18.7500  24.2500  24.5000 Du        
   9274 ****        18.7500  24.5000  23.2500 Du        
   9275 ****        18.7500  24.5000  23.5000 Du        
   9276 ****        18.7500  24.5000  23.7500 Du        
   9277 ****        18.7500  24.5000  24.0000 Du        
   9278 ****        18.7500  24.5000  24.2500 Du        
   9279 ****        18.7500  24.7500  23.2500 Du        
   9280 ****        18.7500  24.7500  23.5000 Du        
   9281 ****        18.7500  24.7500  23.7500 Du        
   9282 ****        18.7500  24.7500  24.0000 Du        
   9283 ****        18.7500  24.7500  24.2500 Du        
   9284 ****        18.7500  25.0000  23.0000 Du        
   9285 ****        18.7500  25.0000  23.2500 Du        
   9286 ****        18.7500  25.0000  23.5000 Du        
   9287 ****        18.7500  25.0000  23.7500 Du        
   9288 ****        18.7500  25.0000  24.0000 Du        
   9289 ****        18.7500  25.2500  23.0000 Du        
   9290 ****        18.7500  25.2500  23.2500 Du        
   9291 ****        18.7500  25.2500  23.5000 Du        
   9292 ****        18.7500  25.2500  23.7500 Du        
   9293 ****        18.7500  27.7500  27.7500 Du        
   9294 ****        18.7500  27.7500  28.0000 Du        
   9295 ****        18.7500  28.0000  27.7500 Du        
   9296 ****        18.7500  28.0000  28.0000 Du        
   9297 ****        18.7500  28.0000  28.2500 Du        
   9298 ****        18.7500  28.0000  28.5000 Du        
   9299 ****        18.7500  28.0000  28.7500 Du        
   9300 ****        18.7500  28.2500  27.7500 Du        
   9301 ****        18.7500  28.2500  28.0000 Du        
   9302 ****        18.7500  28.2500  28.2500 Du        
   9303 ****        18.7500  28.2500  28.5000 Du        
   9304 ****        18.7500  28.2500  28.7500 Du        
   9305 ****        18.7500  28.2500  29.0000 Du        
   9306 ****        18.7500  28.5000  28.5000 Du        
   9307 ****        18.7500  28.5000  28.7500 Du        
   9308 ****        18.7500  28.5000  29.0000 Du        
   9309 ****        18.7500  28.7500  28.5000 Du        
   9310 ****        18.7500  28.7500  28.7500 Du        
   9311 ****        18.7500  28.7500  29.0000 Du        
   9312 ****        18.7500  28.7500  29.2500 Du        
   9313 ****        19.0000   5.5000  26.0000 Du        
   9314 ****        19.0000   5.5000  26.2500 Du        
   9315 ****        19.0000   5.7500  26.0000 Du        
   9316 ****        19.0000   5.7500  26.2500 Du        
   9317 ****        19.0000   5.7500  26.5000 Du        
   9318 ****        19.0000   6.0000  26.0000 Du        
   9319 ****        19.0000   6.0000  26.2500 Du        
   9320 ****        19.0000   6.0000  26.5000 Du        
   9321 ****        19.0000   6.0000  26.7500 Du        
   9322 ****        19.0000   9.2500  30.0000 Du        
   9323 ****        19.0000   9.2500  30.2500 Du        
   9324 ****        19.0000   9.2500  30.5000 Du        
   9325 ****        19.0000   9.5000  30.0000 Du        
   9326 ****        19.0000   9.5000  30.2500 Du        
   9327 ****        19.0000   9.5000  30.5000 Du        
   9328 ****        19.0000   9.5000  30.7500 Du        
   9329 ****        19.0000   9.7500  29.7500 Du        
   9330 ****        19.0000   9.7500  30.0000 Du        
   9331 ****        19.0000   9.7500  30.2500 Du        
   9332 ****        19.0000   9.7500  30.5000 Du        
   9333 ****        19.0000   9.7500  30.7500 Du        
   9334 ****        19.0000   9.7500  31.0000 Du        
   9335 ****        19.0000   9.7500  31.2500 Du        
   9336 ****        19.0000  10.0000  29.7500 Du        
   9337 ****        19.0000  10.0000  30.0000 Du        
   9338 ****        19.0000  10.0000  30.2500 Du        
   9339 ****        19.0000  10.0000  30.5000 Du        
   9340 ****        19.0000  10.0000  30.7500 Du        
   9341 ****        19.0000  10.0000  31.0000 Du        
   9342 ****        19.0000  10.0000  31.2500 Du        
   9343 ****        19.0000  10.0000  31.5000 Du        
   9344 ****        19.0000  10.2500  29.7500 Du        
   9345 ****        19.0000  10.2500  30.0000 Du        
   9346 ****        19.0000  10.2500  30.2500 Du        
   9347 ****        19.0000  10.2500  30.5000 Du        
   9348 ****        19.0000  10.2500  30.7500 Du        
   9349 ****        19.0000  10.2500  31.0000 Du        
   9350 ****        19.0000  10.2500  31.2500 Du        
   9351 ****        19.0000  10.2500  31.5000 Du        
   9352 ****        19.0000  10.2500  31.7500 Du        
   9353 ****        19.0000  10.5000  29.5000 Du        
   9354 ****        19.0000  10.5000  29.7500 Du        
   9355 ****        19.0000  10.5000  30.0000 Du        
   9356 ****        19.0000  10.5000  30.2500 Du        
   9357 ****        19.0000  10.5000  30.5000 Du        
   9358 ****        19.0000  10.5000  30.7500 Du        
   9359 ****        19.0000  10.5000  31.0000 Du        
   9360 ****        19.0000  10.5000  31.2500 Du        
   9361 ****        19.0000  10.5000  31.5000 Du        
   9362 ****        19.0000  10.5000  31.7500 Du        
   9363 ****        19.0000  10.7500  29.2500 Du        
   9364 ****        19.0000  10.7500  29.5000 Du        
   9365 ****        19.0000  10.7500  29.7500 Du        
   9366 ****        19.0000  10.7500  30.0000 Du        
   9367 ****        19.0000  10.7500  30.2500 Du        
   9368 ****        19.0000  10.7500  30.5000 Du        
   9369 ****        19.0000  10.7500  30.7500 Du        
   9370 ****        19.0000  10.7500  31.0000 Du        
   9371 ****        19.0000  10.7500  31.2500 Du        
   9372 ****        19.0000  10.7500  31.5000 Du        
   9373 ****        19.0000  10.7500  31.7500 Du        
   9374 ****        19.0000  11.0000  29.2500 Du        
   9375 ****        19.0000  11.0000  29.5000 Du        
   9376 ****        19.0000  11.0000  29.7500 Du        
   9377 ****        19.0000  11.0000  30.0000 Du        
   9378 ****        19.0000  11.0000  30.2500 Du        
   9379 ****        19.0000  11.0000  30.5000 Du        
   9380 ****        19.0000  11.0000  30.7500 Du        
   9381 ****        19.0000  11.0000  31.0000 Du        
   9382 ****        19.0000  11.0000  31.2500 Du        
   9383 ****        19.0000  11.0000  31.5000 Du        
   9384 ****        19.0000  11.0000  31.7500 Du        
   9385 ****        19.0000  11.2500  29.0000 Du        
   9386 ****        19.0000  11.2500  29.2500 Du        
   9387 ****        19.0000  11.2500  29.5000 Du        
   9388 ****        19.0000  11.2500  29.7500 Du        
   9389 ****        19.0000  11.2500  30.0000 Du        
   9390 ****        19.0000  11.2500  30.2500 Du        
   9391 ****        19.0000  11.2500  30.5000 Du        
   9392 ****        19.0000  11.2500  30.7500 Du        
   9393 ****        19.0000  11.2500  31.0000 Du        
   9394 ****        19.0000  11.2500  31.2500 Du        
   9395 ****        19.0000  11.2500  31.5000 Du        
   9396 ****        19.0000  11.2500  31.7500 Du        
   9397 ****        19.0000  11.5000  28.7500 Du        
   9398 ****        19.0000  11.5000  29.0000 Du        
   9399 ****        19.0000  11.5000  29.2500 Du        
   9400 ****        19.0000  11.5000  29.5000 Du        
   9401 ****        19.0000  11.5000  29.7500 Du        
   9402 ****        19.0000  11.5000  30.0000 Du        
   9403 ****        19.0000  11.5000  30.2500 Du        
   9404 ****        19.0000  11.5000  30.5000 Du        
   9405 ****        19.0000  11.5000  30.7500 Du        
   9406 ****        19.0000  11.5000  31.0000 Du        
   9407 ****        19.0000  11.5000  31.2500 Du        
   9408 ****        19.0000  11.5000  31.5000 Du        
   9409 ****        19.0000  11.7500  28.7500 Du        
   9410 ****        19.0000  11.7500  29.0000 Du        
   9411 ****        19.0000  11.7500  29.2500 Du        
   9412 ****        19.0000  11.7500  29.5000 Du        
   9413 ****        19.0000  11.7500  29.7500 Du        
   9414 ****        19.0000  11.7500  30.0000 Du        
   9415 ****        19.0000  11.7500  30.2500 Du        
   9416 ****        19.0000  11.7500  30.5000 Du        
   9417 ****        19.0000  11.7500  30.7500 Du        
   9418 ****        19.0000  11.7500  31.0000 Du        
   9419 ****        19.0000  11.7500  31.2500 Du        
   9420 ****        19.0000  11.7500  31.5000 Du        
   9421 ****        19.0000  12.0000  28.5000 Du        
   9422 ****        19.0000  12.0000  28.7500 Du        
   9423 ****        19.0000  12.0000  29.0000 Du        
   9424 ****        19.0000  12.0000  29.2500 Du        
   9425 ****        19.0000  12.0000  29.5000 Du        
   9426 ****        19.0000  12.0000  29.7500 Du        
   9427 ****        19.0000  12.0000  30.0000 Du        
   9428 ****        19.0000  12.0000  30.2500 Du        
   9429 ****        19.0000  12.0000  30.5000 Du        
   9430 ****        19.0000  12.0000  30.7500 Du        
   9431 ****        19.0000  12.0000  31.0000 Du        
   9432 ****        19.0000  12.0000  31.2500 Du        
   9433 ****        19.0000  12.0000  31.5000 Du        
   9434 ****        19.0000  12.2500  28.5000 Du        
   9435 ****        19.0000  12.2500  28.7500 Du        
   9436 ****        19.0000  12.2500  29.0000 Du        
   9437 ****        19.0000  12.2500  29.2500 Du        
   9438 ****        19.0000  12.2500  29.5000 Du        
   9439 ****        19.0000  12.2500  29.7500 Du        
   9440 ****        19.0000  12.2500  30.0000 Du        
   9441 ****        19.0000  12.2500  30.2500 Du        
   9442 ****        19.0000  12.2500  30.5000 Du        
   9443 ****        19.0000  12.2500  30.7500 Du        
   9444 ****        19.0000  12.2500  31.0000 Du        
   9445 ****        19.0000  12.2500  31.2500 Du        
   9446 ****        19.0000  12.5000  28.7500 Du        
   9447 ****        19.0000  12.5000  29.0000 Du        
   9448 ****        19.0000  12.5000  29.2500 Du        
   9449 ****        19.0000  12.5000  29.5000 Du        
   9450 ****        19.0000  12.5000  29.7500 Du        
   9451 ****        19.0000  12.5000  30.0000 Du        
   9452 ****        19.0000  12.5000  30.2500 Du        
   9453 ****        19.0000  12.5000  30.5000 Du        
   9454 ****        19.0000  12.5000  30.7500 Du        
   9455 ****        19.0000  12.5000  31.0000 Du        
   9456 ****        19.0000  12.5000  31.2500 Du        
   9457 ****        19.0000  12.7500  30.7500 Du        
   9458 ****        19.0000  12.7500  31.0000 Du        
   9459 ****        19.0000  21.7500  23.2500 Du        
   9460 ****        19.0000  21.7500  23.5000 Du        
   9461 ****        19.0000  21.7500  23.7500 Du        
   9462 ****        19.0000  22.0000  23.2500 Du        
   9463 ****        19.0000  22.0000  23.5000 Du        
   9464 ****        19.0000  22.0000  23.7500 Du        
   9465 ****        19.0000  22.0000  24.0000 Du        
   9466 ****        19.0000  22.0000  24.2500 Du        
   9467 ****        19.0000  22.0000  24.5000 Du        
   9468 ****        19.0000  22.0000  24.7500 Du        
   9469 ****        19.0000  22.2500  23.2500 Du        
   9470 ****        19.0000  22.2500  23.5000 Du        
   9471 ****        19.0000  22.2500  23.7500 Du        
   9472 ****        19.0000  22.2500  24.0000 Du        
   9473 ****        19.0000  22.2500  24.2500 Du        
   9474 ****        19.0000  22.2500  24.5000 Du        
   9475 ****        19.0000  22.2500  24.7500 Du        
   9476 ****        19.0000  22.2500  25.0000 Du        
   9477 ****        19.0000  22.5000  23.2500 Du        
   9478 ****        19.0000  22.5000  23.5000 Du        
   9479 ****        19.0000  22.5000  23.7500 Du        
   9480 ****        19.0000  22.5000  24.0000 Du        
   9481 ****        19.0000  22.5000  24.2500 Du        
   9482 ****        19.0000  22.5000  24.5000 Du        
   9483 ****        19.0000  22.5000  24.7500 Du        
   9484 ****        19.0000  22.7500  23.2500 Du        
   9485 ****        19.0000  22.7500  23.5000 Du        
   9486 ****        19.0000  22.7500  23.7500 Du        
   9487 ****        19.0000  22.7500  24.0000 Du        
   9488 ****        19.0000  22.7500  24.2500 Du        
   9489 ****        19.0000  22.7500  24.5000 Du        
   9490 ****        19.0000  22.7500  24.7500 Du        
   9491 ****        19.0000  23.0000  23.2500 Du        
   9492 ****        19.0000  23.0000  23.5000 Du        
   9493 ****        19.0000  23.0000  23.7500 Du        
   9494 ****        19.0000  23.0000  24.0000 Du        
   9495 ****        19.0000  23.0000  24.2500 Du        
   9496 ****        19.0000  23.0000  24.5000 Du        
   9497 ****        19.0000  23.0000  24.7500 Du        
   9498 ****        19.0000  23.2500  23.2500 Du        
   9499 ****        19.0000  23.2500  23.5000 Du        
   9500 ****        19.0000  23.2500  23.7500 Du        
   9501 ****        19.0000  23.2500  24.0000 Du        
   9502 ****        19.0000  23.2500  24.2500 Du        
   9503 ****        19.0000  23.2500  24.5000 Du        
   9504 ****        19.0000  23.2500  24.7500 Du        
   9505 ****        19.0000  23.5000  23.2500 Du        
   9506 ****        19.0000  23.5000  23.5000 Du        
   9507 ****        19.0000  23.5000  23.7500 Du        
   9508 ****        19.0000  23.5000  24.0000 Du        
   9509 ****        19.0000  23.5000  24.2500 Du        
   9510 ****        19.0000  23.5000  24.5000 Du        
   9511 ****        19.0000  23.7500  23.2500 Du        
   9512 ****        19.0000  23.7500  23.5000 Du        
   9513 ****        19.0000  23.7500  23.7500 Du        
   9514 ****        19.0000  23.7500  24.0000 Du        
   9515 ****        19.0000  23.7500  24.2500 Du        
   9516 ****        19.0000  23.7500  24.5000 Du        
   9517 ****        19.0000  24.0000  23.2500 Du        
   9518 ****        19.0000  24.0000  23.5000 Du        
   9519 ****        19.0000  24.0000  23.7500 Du        
   9520 ****        19.0000  24.0000  24.0000 Du        
   9521 ****        19.0000  24.0000  24.2500 Du        
   9522 ****        19.0000  24.0000  24.5000 Du        
   9523 ****        19.0000  24.2500  23.2500 Du        
   9524 ****        19.0000  24.2500  23.5000 Du        
   9525 ****        19.0000  24.2500  23.7500 Du        
   9526 ****        19.0000  24.2500  24.0000 Du        
   9527 ****        19.0000  24.2500  24.2500 Du        
   9528 ****        19.0000  24.2500  24.5000 Du        
   9529 ****        19.0000  24.5000  23.2500 Du        
   9530 ****        19.0000  24.5000  23.5000 Du        
   9531 ****        19.0000  24.5000  23.7500 Du        
   9532 ****        19.0000  24.5000  24.0000 Du        
   9533 ****        19.0000  24.5000  24.2500 Du        
   9534 ****        19.0000  24.7500  23.0000 Du        
   9535 ****        19.0000  24.7500  23.2500 Du        
   9536 ****        19.0000  24.7500  23.5000 Du        
   9537 ****        19.0000  24.7500  23.7500 Du        
   9538 ****        19.0000  24.7500  24.0000 Du        
   9539 ****        19.0000  24.7500  24.2500 Du        
   9540 ****        19.0000  25.0000  23.0000 Du        
   9541 ****        19.0000  25.0000  23.2500 Du        
   9542 ****        19.0000  25.0000  23.5000 Du        
   9543 ****        19.0000  25.0000  23.7500 Du        
   9544 ****        19.0000  25.0000  24.0000 Du        
   9545 ****        19.0000  25.2500  23.0000 Du        
   9546 ****        19.0000  25.2500  23.2500 Du        
   9547 ****        19.0000  25.2500  23.5000 Du        
   9548 ****        19.0000  25.2500  23.7500 Du        
   9549 ****        19.0000  25.2500  24.0000 Du        
   9550 ****        19.0000  28.2500  28.0000 Du        
   9551 ****        19.0000  28.2500  28.2500 Du        
   9552 ****        19.0000  28.2500  28.5000 Du        
   9553 ****        19.0000  28.5000  28.5000 Du        
   9554 ****        19.0000  28.5000  28.7500 Du        
   9555 ****        19.0000  28.7500  28.2500 Du        
   9556 ****        19.0000  28.7500  28.5000 Du        
   9557 ****        19.0000  28.7500  28.7500 Du        
   9558 ****        19.0000  28.7500  29.0000 Du        
   9559 ****        19.2500   5.5000  26.0000 Du        
   9560 ****        19.2500   5.5000  26.2500 Du        
   9561 ****        19.2500   5.5000  26.5000 Du        
   9562 ****        19.2500   5.7500  26.0000 Du        
   9563 ****        19.2500   5.7500  26.2500 Du        
   9564 ****        19.2500   5.7500  26.5000 Du        
   9565 ****        19.2500   5.7500  26.7500 Du        
   9566 ****        19.2500   6.0000  25.7500 Du        
   9567 ****        19.2500   6.0000  26.0000 Du        
   9568 ****        19.2500   6.0000  26.2500 Du        
   9569 ****        19.2500   6.0000  26.5000 Du        
   9570 ****        19.2500   6.0000  26.7500 Du        
   9571 ****        19.2500   6.0000  27.0000 Du        
   9572 ****        19.2500   6.2500  25.7500 Du        
   9573 ****        19.2500   6.2500  26.0000 Du        
   9574 ****        19.2500   6.2500  26.2500 Du        
   9575 ****        19.2500   6.2500  26.5000 Du        
   9576 ****        19.2500   6.2500  26.7500 Du        
   9577 ****        19.2500   6.2500  27.0000 Du        
   9578 ****        19.2500   8.7500  30.0000 Du        
   9579 ****        19.2500   9.0000  29.7500 Du        
   9580 ****        19.2500   9.0000  30.0000 Du        
   9581 ****        19.2500   9.0000  30.2500 Du        
   9582 ****        19.2500   9.2500  29.7500 Du        
   9583 ****        19.2500   9.2500  30.0000 Du        
   9584 ****        19.2500   9.2500  30.2500 Du        
   9585 ****        19.2500   9.2500  30.5000 Du        
   9586 ****        19.2500   9.2500  30.7500 Du        
   9587 ****        19.2500   9.5000  29.7500 Du        
   9588 ****        19.2500   9.5000  30.0000 Du        
   9589 ****        19.2500   9.5000  30.2500 Du        
   9590 ****        19.2500   9.5000  30.5000 Du        
   9591 ****        19.2500   9.5000  30.7500 Du        
   9592 ****        19.2500   9.5000  31.0000 Du        
   9593 ****        19.2500   9.7500  29.7500 Du        
   9594 ****        19.2500   9.7500  30.0000 Du        
   9595 ****        19.2500   9.7500  30.2500 Du        
   9596 ****        19.2500   9.7500  30.5000 Du        
   9597 ****        19.2500   9.7500  30.7500 Du        
   9598 ****        19.2500   9.7500  31.0000 Du        
   9599 ****        19.2500   9.7500  31.2500 Du        
   9600 ****        19.2500  10.0000  29.5000 Du        
   9601 ****        19.2500  10.0000  29.7500 Du        
   9602 ****        19.2500  10.0000  30.0000 Du        
   9603 ****        19.2500  10.0000  30.2500 Du        
   9604 ****        19.2500  10.0000  30.5000 Du        
   9605 ****        19.2500  10.0000  30.7500 Du        
   9606 ****        19.2500  10.0000  31.0000 Du        
   9607 ****        19.2500  10.0000  31.2500 Du        
   9608 ****        19.2500  10.0000  31.5000 Du        
   9609 ****        19.2500  10.2500  29.5000 Du        
   9610 ****        19.2500  10.2500  29.7500 Du        
   9611 ****        19.2500  10.2500  30.0000 Du        
   9612 ****        19.2500  10.2500  30.2500 Du        
   9613 ****        19.2500  10.2500  30.5000 Du        
   9614 ****        19.2500  10.2500  30.7500 Du        
   9615 ****        19.2500  10.2500  31.0000 Du        
   9616 ****        19.2500  10.2500  31.2500 Du        
   9617 ****        19.2500  10.2500  31.5000 Du        
   9618 ****        19.2500  10.5000  29.5000 Du        
   9619 ****        19.2500  10.5000  29.7500 Du        
   9620 ****        19.2500  10.5000  30.0000 Du        
   9621 ****        19.2500  10.5000  30.2500 Du        
   9622 ****        19.2500  10.5000  30.5000 Du        
   9623 ****        19.2500  10.5000  30.7500 Du        
   9624 ****        19.2500  10.5000  31.0000 Du        
   9625 ****        19.2500  10.5000  31.2500 Du        
   9626 ****        19.2500  10.5000  31.5000 Du        
   9627 ****        19.2500  10.7500  29.2500 Du        
   9628 ****        19.2500  10.7500  29.5000 Du        
   9629 ****        19.2500  10.7500  29.7500 Du        
   9630 ****        19.2500  10.7500  30.0000 Du        
   9631 ****        19.2500  10.7500  30.2500 Du        
   9632 ****        19.2500  10.7500  30.5000 Du        
   9633 ****        19.2500  10.7500  30.7500 Du        
   9634 ****        19.2500  10.7500  31.0000 Du        
   9635 ****        19.2500  10.7500  31.2500 Du        
   9636 ****        19.2500  10.7500  31.5000 Du        
   9637 ****        19.2500  11.0000  29.0000 Du        
   9638 ****        19.2500  11.0000  29.2500 Du        
   9639 ****        19.2500  11.0000  29.5000 Du        
   9640 ****        19.2500  11.0000  29.7500 Du        
   9641 ****        19.2500  11.0000  30.0000 Du        
   9642 ****        19.2500  11.0000  30.2500 Du        
   9643 ****        19.2500  11.0000  30.5000 Du        
   9644 ****        19.2500  11.0000  30.7500 Du        
   9645 ****        19.2500  11.0000  31.0000 Du        
   9646 ****        19.2500  11.0000  31.2500 Du        
   9647 ****        19.2500  11.0000  31.5000 Du        
   9648 ****        19.2500  11.2500  29.0000 Du        
   9649 ****        19.2500  11.2500  29.2500 Du        
   9650 ****        19.2500  11.2500  29.5000 Du        
   9651 ****        19.2500  11.2500  29.7500 Du        
   9652 ****        19.2500  11.2500  30.0000 Du        
   9653 ****        19.2500  11.2500  30.2500 Du        
   9654 ****        19.2500  11.2500  30.5000 Du        
   9655 ****        19.2500  11.2500  30.7500 Du        
   9656 ****        19.2500  11.2500  31.0000 Du        
   9657 ****        19.2500  11.2500  31.2500 Du        
   9658 ****        19.2500  11.2500  31.5000 Du        
   9659 ****        19.2500  11.5000  28.7500 Du        
   9660 ****        19.2500  11.5000  29.0000 Du        
   9661 ****        19.2500  11.5000  29.2500 Du        
   9662 ****        19.2500  11.5000  29.5000 Du        
   9663 ****        19.2500  11.5000  29.7500 Du        
   9664 ****        19.2500  11.5000  30.0000 Du        
   9665 ****        19.2500  11.5000  30.2500 Du        
   9666 ****        19.2500  11.5000  30.5000 Du        
   9667 ****        19.2500  11.5000  30.7500 Du        
   9668 ****        19.2500  11.5000  31.0000 Du        
   9669 ****        19.2500  11.5000  31.2500 Du        
   9670 ****        19.2500  11.7500  28.7500 Du        
   9671 ****        19.2500  11.7500  29.0000 Du        
   9672 ****        19.2500  11.7500  29.2500 Du        
   9673 ****        19.2500  11.7500  29.5000 Du        
   9674 ****        19.2500  11.7500  29.7500 Du        
   9675 ****        19.2500  11.7500  30.0000 Du        
   9676 ****        19.2500  11.7500  30.2500 Du        
   9677 ****        19.2500  11.7500  30.5000 Du        
   9678 ****        19.2500  11.7500  30.7500 Du        
   9679 ****        19.2500  11.7500  31.0000 Du        
   9680 ****        19.2500  11.7500  31.2500 Du        
   9681 ****        19.2500  12.0000  28.7500 Du        
   9682 ****        19.2500  12.0000  29.0000 Du        
   9683 ****        19.2500  12.0000  29.2500 Du        
   9684 ****        19.2500  12.0000  29.5000 Du        
   9685 ****        19.2500  12.0000  29.7500 Du        
   9686 ****        19.2500  12.0000  30.0000 Du        
   9687 ****        19.2500  12.0000  30.2500 Du        
   9688 ****        19.2500  12.0000  30.5000 Du        
   9689 ****        19.2500  12.0000  30.7500 Du        
   9690 ****        19.2500  12.0000  31.0000 Du        
   9691 ****        19.2500  12.2500  28.7500 Du        
   9692 ****        19.2500  12.2500  29.0000 Du        
   9693 ****        19.2500  12.2500  29.2500 Du        
   9694 ****        19.2500  12.2500  29.5000 Du        
   9695 ****        19.2500  12.2500  29.7500 Du        
   9696 ****        19.2500  12.2500  30.0000 Du        
   9697 ****        19.2500  12.2500  30.2500 Du        
   9698 ****        19.2500  12.2500  30.5000 Du        
   9699 ****        19.2500  12.2500  30.7500 Du        
   9700 ****        19.2500  22.0000  24.0000 Du        
   9701 ****        19.2500  22.0000  24.2500 Du        
   9702 ****        19.2500  22.2500  23.7500 Du        
   9703 ****        19.2500  22.2500  24.0000 Du        
   9704 ****        19.2500  22.2500  24.2500 Du        
   9705 ****        19.2500  22.2500  24.5000 Du        
   9706 ****        19.2500  22.5000  23.5000 Du        
   9707 ****        19.2500  22.5000  23.7500 Du        
   9708 ****        19.2500  22.5000  24.0000 Du        
   9709 ****        19.2500  22.5000  24.2500 Du        
   9710 ****        19.2500  22.7500  23.5000 Du        
   9711 ****        19.2500  22.7500  23.7500 Du        
   9712 ****        19.2500  22.7500  24.0000 Du        
   9713 ****        19.2500  22.7500  24.2500 Du        
   9714 ****        19.2500  22.7500  24.5000 Du        
   9715 ****        19.2500  23.0000  23.2500 Du        
   9716 ****        19.2500  23.0000  23.5000 Du        
   9717 ****        19.2500  23.0000  23.7500 Du        
   9718 ****        19.2500  23.0000  24.0000 Du        
   9719 ****        19.2500  23.0000  24.2500 Du        
   9720 ****        19.2500  23.0000  24.5000 Du        
   9721 ****        19.2500  23.2500  23.2500 Du        
   9722 ****        19.2500  23.2500  23.5000 Du        
   9723 ****        19.2500  23.2500  23.7500 Du        
   9724 ****        19.2500  23.2500  24.0000 Du        
   9725 ****        19.2500  23.2500  24.2500 Du        
   9726 ****        19.2500  23.2500  24.5000 Du        
   9727 ****        19.2500  23.5000  23.2500 Du        
   9728 ****        19.2500  23.5000  23.5000 Du        
   9729 ****        19.2500  23.5000  23.7500 Du        
   9730 ****        19.2500  23.5000  24.0000 Du        
   9731 ****        19.2500  23.5000  24.2500 Du        
   9732 ****        19.2500  23.7500  23.2500 Du        
   9733 ****        19.2500  23.7500  23.5000 Du        
   9734 ****        19.2500  23.7500  23.7500 Du        
   9735 ****        19.2500  23.7500  24.0000 Du        
   9736 ****        19.2500  23.7500  24.2500 Du        
   9737 ****        19.2500  24.0000  23.2500 Du        
   9738 ****        19.2500  24.0000  23.5000 Du        
   9739 ****        19.2500  24.0000  23.7500 Du        
   9740 ****        19.2500  24.0000  24.0000 Du        
   9741 ****        19.2500  24.0000  24.2500 Du        
   9742 ****        19.2500  24.2500  23.2500 Du        
   9743 ****        19.2500  24.2500  23.5000 Du        
   9744 ****        19.2500  24.2500  23.7500 Du        
   9745 ****        19.2500  24.2500  24.0000 Du        
   9746 ****        19.2500  24.2500  24.2500 Du        
   9747 ****        19.2500  24.5000  23.2500 Du        
   9748 ****        19.2500  24.5000  23.5000 Du        
   9749 ****        19.2500  24.5000  23.7500 Du        
   9750 ****        19.2500  24.5000  24.0000 Du        
   9751 ****        19.2500  24.5000  24.2500 Du        
   9752 ****        19.2500  24.7500  23.2500 Du        
   9753 ****        19.2500  24.7500  23.5000 Du        
   9754 ****        19.2500  24.7500  23.7500 Du        
   9755 ****        19.2500  24.7500  24.0000 Du        
   9756 ****        19.2500  25.0000  23.0000 Du        
   9757 ****        19.2500  25.0000  23.2500 Du        
   9758 ****        19.2500  25.0000  23.5000 Du        
   9759 ****        19.2500  25.0000  23.7500 Du        
   9760 ****        19.2500  25.0000  24.0000 Du        
   9761 ****        19.2500  25.2500  23.2500 Du        
   9762 ****        19.2500  25.2500  23.7500 Du        
   9763 ****        19.2500  28.0000  21.2500 Du        
   9764 ****        19.2500  28.7500  28.5000 Du        
   9765 ****        19.5000   5.2500  26.2500 Du        
   9766 ****        19.5000   5.2500  26.5000 Du        
   9767 ****        19.5000   5.5000  26.0000 Du        
   9768 ****        19.5000   5.5000  26.2500 Du        
   9769 ****        19.5000   5.5000  26.5000 Du        
   9770 ****        19.5000   5.5000  26.7500 Du        
   9771 ****        19.5000   5.7500  26.0000 Du        
   9772 ****        19.5000   5.7500  26.2500 Du        
   9773 ****        19.5000   5.7500  26.5000 Du        
   9774 ****        19.5000   5.7500  26.7500 Du        
   9775 ****        19.5000   5.7500  27.0000 Du        
   9776 ****        19.5000   6.0000  25.7500 Du        
   9777 ****        19.5000   6.0000  26.0000 Du        
   9778 ****        19.5000   6.0000  26.2500 Du        
   9779 ****        19.5000   6.0000  26.5000 Du        
   9780 ****        19.5000   6.0000  26.7500 Du        
   9781 ****        19.5000   6.0000  27.0000 Du        
   9782 ****        19.5000   6.2500  25.7500 Du        
   9783 ****        19.5000   6.2500  26.0000 Du        
   9784 ****        19.5000   6.2500  26.2500 Du        
   9785 ****        19.5000   6.2500  26.5000 Du        
   9786 ****        19.5000   6.2500  26.7500 Du        
   9787 ****        19.5000   6.2500  27.0000 Du        
   9788 ****        19.5000   6.5000  25.7500 Du        
   9789 ****        19.5000   6.5000  26.0000 Du        
   9790 ****        19.5000   6.5000  26.2500 Du        
   9791 ****        19.5000   6.5000  26.5000 Du        
   9792 ****        19.5000   6.5000  26.7500 Du        
   9793 ****        19.5000   6.5000  27.0000 Du        
   9794 ****        19.5000   6.5000  27.2500 Du        
   9795 ****        19.5000   8.2500  29.7500 Du        
   9796 ****        19.5000   8.5000  29.7500 Du        
   9797 ****        19.5000   8.5000  30.0000 Du        
   9798 ****        19.5000   8.7500  29.7500 Du        
   9799 ****        19.5000   8.7500  30.0000 Du        
   9800 ****        19.5000   8.7500  30.2500 Du        
   9801 ****        19.5000   9.0000  29.5000 Du        
   9802 ****        19.5000   9.0000  29.7500 Du        
   9803 ****        19.5000   9.0000  30.0000 Du        
   9804 ****        19.5000   9.0000  30.2500 Du        
   9805 ****        19.5000   9.0000  30.5000 Du        
   9806 ****        19.5000   9.2500  29.7500 Du        
   9807 ****        19.5000   9.2500  30.0000 Du        
   9808 ****        19.5000   9.2500  30.2500 Du        
   9809 ****        19.5000   9.2500  30.5000 Du        
   9810 ****        19.5000   9.2500  30.7500 Du        
   9811 ****        19.5000   9.5000  29.7500 Du        
   9812 ****        19.5000   9.5000  30.0000 Du        
   9813 ****        19.5000   9.5000  30.2500 Du        
   9814 ****        19.5000   9.5000  30.5000 Du        
   9815 ****        19.5000   9.5000  30.7500 Du        
   9816 ****        19.5000   9.5000  31.0000 Du        
   9817 ****        19.5000   9.7500  29.5000 Du        
   9818 ****        19.5000   9.7500  29.7500 Du        
   9819 ****        19.5000   9.7500  30.0000 Du        
   9820 ****        19.5000   9.7500  30.2500 Du        
   9821 ****        19.5000   9.7500  30.5000 Du        
   9822 ****        19.5000   9.7500  30.7500 Du        
   9823 ****        19.5000   9.7500  31.0000 Du        
   9824 ****        19.5000   9.7500  31.2500 Du        
   9825 ****        19.5000  10.0000  29.5000 Du        
   9826 ****        19.5000  10.0000  29.7500 Du        
   9827 ****        19.5000  10.0000  30.0000 Du        
   9828 ****        19.5000  10.0000  30.2500 Du        
   9829 ****        19.5000  10.0000  30.5000 Du        
   9830 ****        19.5000  10.0000  30.7500 Du        
   9831 ****        19.5000  10.0000  31.0000 Du        
   9832 ****        19.5000  10.0000  31.2500 Du        
   9833 ****        19.5000  10.0000  31.5000 Du        
   9834 ****        19.5000  10.2500  29.5000 Du        
   9835 ****        19.5000  10.2500  29.7500 Du        
   9836 ****        19.5000  10.2500  30.0000 Du        
   9837 ****        19.5000  10.2500  30.2500 Du        
   9838 ****        19.5000  10.2500  30.5000 Du        
   9839 ****        19.5000  10.2500  30.7500 Du        
   9840 ****        19.5000  10.2500  31.0000 Du        
   9841 ****        19.5000  10.2500  31.2500 Du        
   9842 ****        19.5000  10.2500  31.5000 Du        
   9843 ****        19.5000  10.5000  29.5000 Du        
   9844 ****        19.5000  10.5000  29.7500 Du        
   9845 ****        19.5000  10.5000  30.0000 Du        
   9846 ****        19.5000  10.5000  30.2500 Du        
   9847 ****        19.5000  10.5000  30.5000 Du        
   9848 ****        19.5000  10.5000  30.7500 Du        
   9849 ****        19.5000  10.5000  31.0000 Du        
   9850 ****        19.5000  10.5000  31.2500 Du        
   9851 ****        19.5000  10.7500  29.2500 Du        
   9852 ****        19.5000  10.7500  29.5000 Du        
   9853 ****        19.5000  10.7500  29.7500 Du        
   9854 ****        19.5000  10.7500  30.0000 Du        
   9855 ****        19.5000  10.7500  30.2500 Du        
   9856 ****        19.5000  10.7500  30.5000 Du        
   9857 ****        19.5000  10.7500  30.7500 Du        
   9858 ****        19.5000  10.7500  31.0000 Du        
   9859 ****        19.5000  10.7500  31.2500 Du        
   9860 ****        19.5000  11.0000  29.2500 Du        
   9861 ****        19.5000  11.0000  29.5000 Du        
   9862 ****        19.5000  11.0000  29.7500 Du        
   9863 ****        19.5000  11.0000  30.0000 Du        
   9864 ****        19.5000  11.0000  30.2500 Du        
   9865 ****        19.5000  11.0000  30.5000 Du        
   9866 ****        19.5000  11.0000  30.7500 Du        
   9867 ****        19.5000  11.0000  31.0000 Du        
   9868 ****        19.5000  11.2500  29.0000 Du        
   9869 ****        19.5000  11.2500  29.2500 Du        
   9870 ****        19.5000  11.2500  29.5000 Du        
   9871 ****        19.5000  11.2500  29.7500 Du        
   9872 ****        19.5000  11.2500  30.0000 Du        
   9873 ****        19.5000  11.2500  30.2500 Du        
   9874 ****        19.5000  11.2500  30.5000 Du        
   9875 ****        19.5000  11.2500  30.7500 Du        
   9876 ****        19.5000  11.2500  31.0000 Du        
   9877 ****        19.5000  11.5000  29.0000 Du        
   9878 ****        19.5000  11.5000  29.2500 Du        
   9879 ****        19.5000  11.5000  29.5000 Du        
   9880 ****        19.5000  11.5000  29.7500 Du        
   9881 ****        19.5000  11.5000  30.0000 Du        
   9882 ****        19.5000  11.5000  30.2500 Du        
   9883 ****        19.5000  11.5000  30.5000 Du        
   9884 ****        19.5000  11.5000  30.7500 Du        
   9885 ****        19.5000  11.7500  29.0000 Du        
   9886 ****        19.5000  11.7500  29.2500 Du        
   9887 ****        19.5000  11.7500  29.5000 Du        
   9888 ****        19.5000  11.7500  29.7500 Du        
   9889 ****        19.5000  11.7500  30.0000 Du        
   9890 ****        19.5000  11.7500  30.2500 Du        
   9891 ****        19.5000  11.7500  30.5000 Du        
   9892 ****        19.5000  12.0000  29.0000 Du        
   9893 ****        19.5000  12.0000  29.2500 Du        
   9894 ****        19.5000  12.0000  29.5000 Du        
   9895 ****        19.5000  12.0000  29.7500 Du        
   9896 ****        19.5000  12.0000  30.0000 Du        
   9897 ****        19.5000  12.0000  30.2500 Du        
   9898 ****        19.5000  23.0000  23.7500 Du        
   9899 ****        19.5000  23.0000  24.0000 Du        
   9900 ****        19.5000  23.0000  24.2500 Du        
   9901 ****        19.5000  23.2500  23.5000 Du        
   9902 ****        19.5000  23.2500  23.7500 Du        
   9903 ****        19.5000  23.2500  24.0000 Du        
   9904 ****        19.5000  23.2500  24.2500 Du        
   9905 ****        19.5000  23.5000  23.5000 Du        
   9906 ****        19.5000  23.5000  23.7500 Du        
   9907 ****        19.5000  23.5000  24.0000 Du        
   9908 ****        19.5000  23.5000  24.2500 Du        
   9909 ****        19.5000  23.7500  23.2500 Du        
   9910 ****        19.5000  23.7500  23.5000 Du        
   9911 ****        19.5000  23.7500  23.7500 Du        
   9912 ****        19.5000  23.7500  24.0000 Du        
   9913 ****        19.5000  23.7500  24.2500 Du        
   9914 ****        19.5000  24.0000  23.2500 Du        
   9915 ****        19.5000  24.0000  23.5000 Du        
   9916 ****        19.5000  24.0000  23.7500 Du        
   9917 ****        19.5000  24.0000  24.0000 Du        
   9918 ****        19.5000  24.2500  23.2500 Du        
   9919 ****        19.5000  24.2500  23.5000 Du        
   9920 ****        19.5000  24.2500  23.7500 Du        
   9921 ****        19.5000  24.2500  24.0000 Du        
   9922 ****        19.5000  24.5000  23.7500 Du        
   9923 ****        19.5000  27.7500  21.2500 Du        
   9924 ****        19.5000  28.0000  21.2500 Du        
   9925 ****        19.7500   5.2500  26.0000 Du        
   9926 ****        19.7500   5.2500  26.2500 Du        
   9927 ****        19.7500   5.2500  26.5000 Du        
   9928 ****        19.7500   5.2500  26.7500 Du        
   9929 ****        19.7500   5.5000  26.0000 Du        
   9930 ****        19.7500   5.5000  26.2500 Du        
   9931 ****        19.7500   5.5000  26.5000 Du        
   9932 ****        19.7500   5.5000  26.7500 Du        
   9933 ****        19.7500   5.7500  26.0000 Du        
   9934 ****        19.7500   5.7500  26.2500 Du        
   9935 ****        19.7500   5.7500  26.5000 Du        
   9936 ****        19.7500   5.7500  26.7500 Du        
   9937 ****        19.7500   5.7500  27.0000 Du        
   9938 ****        19.7500   6.0000  25.7500 Du        
   9939 ****        19.7500   6.0000  26.0000 Du        
   9940 ****        19.7500   6.0000  26.2500 Du        
   9941 ****        19.7500   6.0000  26.5000 Du        
   9942 ****        19.7500   6.0000  26.7500 Du        
   9943 ****        19.7500   6.0000  27.0000 Du        
   9944 ****        19.7500   6.2500  25.7500 Du        
   9945 ****        19.7500   6.2500  26.0000 Du        
   9946 ****        19.7500   6.2500  26.2500 Du        
   9947 ****        19.7500   6.2500  26.5000 Du        
   9948 ****        19.7500   6.2500  26.7500 Du        
   9949 ****        19.7500   6.2500  27.0000 Du        
   9950 ****        19.7500   6.2500  27.2500 Du        
   9951 ****        19.7500   6.5000  25.5000 Du        
   9952 ****        19.7500   6.5000  25.7500 Du        
   9953 ****        19.7500   6.5000  26.0000 Du        
   9954 ****        19.7500   6.5000  26.2500 Du        
   9955 ****        19.7500   6.5000  26.5000 Du        
   9956 ****        19.7500   6.5000  26.7500 Du        
   9957 ****        19.7500   6.5000  27.0000 Du        
   9958 ****        19.7500   6.5000  27.2500 Du        
   9959 ****        19.7500   6.7500  25.5000 Du        
   9960 ****        19.7500   6.7500  25.7500 Du        
   9961 ****        19.7500   6.7500  26.0000 Du        
   9962 ****        19.7500   6.7500  26.2500 Du        
   9963 ****        19.7500   6.7500  26.5000 Du        
   9964 ****        19.7500   6.7500  26.7500 Du        
   9965 ****        19.7500   6.7500  27.0000 Du        
   9966 ****        19.7500   6.7500  27.2500 Du        
   9967 ****        19.7500   6.7500  27.5000 Du        
   9968 ****        19.7500   7.7500  29.0000 Du        
   9969 ****        19.7500   7.7500  29.2500 Du        
   9970 ****        19.7500   7.7500  29.5000 Du        
   9971 ****        19.7500   7.7500  29.7500 Du        
   9972 ****        19.7500   8.0000  29.2500 Du        
   9973 ****        19.7500   8.0000  29.5000 Du        
   9974 ****        19.7500   8.0000  29.7500 Du        
   9975 ****        19.7500   8.0000  30.0000 Du        
   9976 ****        19.7500   8.2500  29.2500 Du        
   9977 ****        19.7500   8.2500  29.5000 Du        
   9978 ****        19.7500   8.2500  29.7500 Du        
   9979 ****        19.7500   8.2500  30.0000 Du        
   9980 ****        19.7500   8.2500  30.2500 Du        
   9981 ****        19.7500   8.5000  29.5000 Du        
   9982 ****        19.7500   8.5000  29.7500 Du        
   9983 ****        19.7500   8.5000  30.0000 Du        
   9984 ****        19.7500   8.5000  30.2500 Du        
   9985 ****        19.7500   8.7500  29.5000 Du        
   9986 ****        19.7500   8.7500  29.7500 Du        
   9987 ****        19.7500   8.7500  30.0000 Du        
   9988 ****        19.7500   8.7500  30.2500 Du        
   9989 ****        19.7500   8.7500  30.5000 Du        
   9990 ****        19.7500   9.0000  29.5000 Du        
   9991 ****        19.7500   9.0000  29.7500 Du        
   9992 ****        19.7500   9.0000  30.0000 Du        
   9993 ****        19.7500   9.0000  30.2500 Du        
   9994 ****        19.7500   9.0000  30.5000 Du        
   9995 ****        19.7500   9.0000  30.7500 Du        
   9996 ****        19.7500   9.2500  29.5000 Du        
   9997 ****        19.7500   9.2500  29.7500 Du        
   9998 ****        19.7500   9.2500  30.0000 Du        
   9999 ****        19.7500   9.2500  30.2500 Du        
  10000 ****        19.7500   9.2500  30.5000 Du        
  10001 ****        19.7500   9.2500  30.7500 Du        
  10002 ****        19.7500   9.2500  31.0000 Du        
  10003 ****        19.7500   9.5000  29.7500 Du        
  10004 ****        19.7500   9.5000  30.0000 Du        
  10005 ****        19.7500   9.5000  30.2500 Du        
  10006 ****        19.7500   9.5000  30.5000 Du        
  10007 ****        19.7500   9.5000  30.7500 Du        
  10008 ****        19.7500   9.5000  31.0000 Du        
  10009 ****        19.7500   9.7500  29.5000 Du        
  10010 ****        19.7500   9.7500  29.7500 Du        
  10011 ****        19.7500   9.7500  30.0000 Du        
  10012 ****        19.7500   9.7500  30.2500 Du        
  10013 ****        19.7500   9.7500  30.5000 Du        
  10014 ****        19.7500   9.7500  30.7500 Du        
  10015 ****        19.7500   9.7500  31.0000 Du        
  10016 ****        19.7500   9.7500  31.2500 Du        
  10017 ****        19.7500  10.0000  29.5000 Du        
  10018 ****        19.7500  10.0000  29.7500 Du        
  10019 ****        19.7500  10.0000  30.0000 Du        
  10020 ****        19.7500  10.0000  30.2500 Du        
  10021 ****        19.7500  10.0000  30.5000 Du        
  10022 ****        19.7500  10.0000  30.7500 Du        
  10023 ****        19.7500  10.0000  31.0000 Du        
  10024 ****        19.7500  10.0000  31.2500 Du        
  10025 ****        19.7500  10.2500  29.5000 Du        
  10026 ****        19.7500  10.2500  29.7500 Du        
  10027 ****        19.7500  10.2500  30.0000 Du        
  10028 ****        19.7500  10.2500  30.2500 Du        
  10029 ****        19.7500  10.2500  30.5000 Du        
  10030 ****        19.7500  10.2500  30.7500 Du        
  10031 ****        19.7500  10.2500  31.0000 Du        
  10032 ****        19.7500  10.5000  29.5000 Du        
  10033 ****        19.7500  10.5000  29.7500 Du        
  10034 ****        19.7500  10.5000  30.0000 Du        
  10035 ****        19.7500  10.5000  30.2500 Du        
  10036 ****        19.7500  10.5000  30.5000 Du        
  10037 ****        19.7500  10.5000  30.7500 Du        
  10038 ****        19.7500  10.5000  31.0000 Du        
  10039 ****        19.7500  10.7500  29.5000 Du        
  10040 ****        19.7500  10.7500  29.7500 Du        
  10041 ****        19.7500  10.7500  30.0000 Du        
  10042 ****        19.7500  10.7500  30.2500 Du        
  10043 ****        19.7500  10.7500  30.5000 Du        
  10044 ****        19.7500  10.7500  30.7500 Du        
  10045 ****        19.7500  11.0000  29.2500 Du        
  10046 ****        19.7500  11.0000  29.5000 Du        
  10047 ****        19.7500  11.0000  29.7500 Du        
  10048 ****        19.7500  11.0000  30.0000 Du        
  10049 ****        19.7500  11.0000  30.2500 Du        
  10050 ****        19.7500  11.0000  30.5000 Du        
  10051 ****        19.7500  11.2500  29.2500 Du        
  10052 ****        19.7500  11.2500  29.5000 Du        
  10053 ****        19.7500  11.2500  29.7500 Du        
  10054 ****        19.7500  11.2500  30.0000 Du        
  10055 ****        19.7500  11.2500  30.2500 Du        
  10056 ****        19.7500  11.5000  29.2500 Du        
  10057 ****        19.7500  11.5000  29.5000 Du        
  10058 ****        19.7500  11.5000  29.7500 Du        
  10059 ****        19.7500  11.5000  30.0000 Du        
  10060 ****        19.7500  11.7500  29.2500 Du        
  10061 ****        19.7500  11.7500  29.5000 Du        
  10062 ****        19.7500  11.7500  29.7500 Du        
  10063 ****        19.7500  11.7500  30.0000 Du        
  10064 ****        19.7500  23.7500  23.7500 Du        
  10065 ****        19.7500  24.0000  23.7500 Du        
  10066 ****        19.7500  27.2500  21.2500 Du        
  10067 ****        19.7500  27.5000  20.7500 Du        
  10068 ****        19.7500  27.5000  21.0000 Du        
  10069 ****        19.7500  27.5000  21.2500 Du        
  10070 ****        19.7500  27.5000  21.5000 Du        
  10071 ****        19.7500  27.5000  21.7500 Du        
  10072 ****        19.7500  27.7500  21.7500 Du        
  10073 ****        20.0000   5.0000  26.5000 Du        
  10074 ****        20.0000   5.2500  26.2500 Du        
  10075 ****        20.0000   5.2500  26.5000 Du        
  10076 ****        20.0000   5.2500  26.7500 Du        
  10077 ****        20.0000   5.5000  26.0000 Du        
  10078 ****        20.0000   5.5000  26.2500 Du        
  10079 ****        20.0000   5.5000  26.5000 Du        
  10080 ****        20.0000   5.5000  26.7500 Du        
  10081 ****        20.0000   5.5000  27.0000 Du        
  10082 ****        20.0000   5.7500  25.7500 Du        
  10083 ****        20.0000   5.7500  26.0000 Du        
  10084 ****        20.0000   5.7500  26.2500 Du        
  10085 ****        20.0000   5.7500  26.5000 Du        
  10086 ****        20.0000   5.7500  26.7500 Du        
  10087 ****        20.0000   5.7500  27.0000 Du        
  10088 ****        20.0000   6.0000  25.7500 Du        
  10089 ****        20.0000   6.0000  26.0000 Du        
  10090 ****        20.0000   6.0000  26.2500 Du        
  10091 ****        20.0000   6.0000  26.5000 Du        
  10092 ****        20.0000   6.0000  26.7500 Du        
  10093 ****        20.0000   6.0000  27.0000 Du        
  10094 ****        20.0000   6.0000  27.2500 Du        
  10095 ****        20.0000   6.2500  25.7500 Du        
  10096 ****        20.0000   6.2500  26.0000 Du        
  10097 ****        20.0000   6.2500  26.2500 Du        
  10098 ****        20.0000   6.2500  26.5000 Du        
  10099 ****        20.0000   6.2500  26.7500 Du        
  10100 ****        20.0000   6.2500  27.0000 Du        
  10101 ****        20.0000   6.2500  27.2500 Du        
  10102 ****        20.0000   6.5000  25.5000 Du        
  10103 ****        20.0000   6.5000  25.7500 Du        
  10104 ****        20.0000   6.5000  26.0000 Du        
  10105 ****        20.0000   6.5000  26.2500 Du        
  10106 ****        20.0000   6.5000  26.5000 Du        
  10107 ****        20.0000   6.5000  26.7500 Du        
  10108 ****        20.0000   6.5000  27.0000 Du        
  10109 ****        20.0000   6.5000  27.2500 Du        
  10110 ****        20.0000   6.5000  27.5000 Du        
  10111 ****        20.0000   6.7500  25.5000 Du        
  10112 ****        20.0000   6.7500  25.7500 Du        
  10113 ****        20.0000   6.7500  26.0000 Du        
  10114 ****        20.0000   6.7500  26.2500 Du        
  10115 ****        20.0000   6.7500  26.5000 Du        
  10116 ****        20.0000   6.7500  26.7500 Du        
  10117 ****        20.0000   6.7500  27.0000 Du        
  10118 ****        20.0000   6.7500  27.2500 Du        
  10119 ****        20.0000   6.7500  27.5000 Du        
  10120 ****        20.0000   6.7500  27.7500 Du        
  10121 ****        20.0000   7.0000  27.5000 Du        
  10122 ****        20.0000   7.0000  27.7500 Du        
  10123 ****        20.0000   7.0000  28.0000 Du        
  10124 ****        20.0000   7.2500  28.2500 Du        
  10125 ****        20.0000   7.5000  28.5000 Du        
  10126 ****        20.0000   7.5000  28.7500 Du        
  10127 ****        20.0000   7.5000  29.0000 Du        
  10128 ****        20.0000   7.5000  29.2500 Du        
  10129 ****        20.0000   7.5000  29.5000 Du        
  10130 ****        20.0000   7.7500  28.7500 Du        
  10131 ****        20.0000   7.7500  29.0000 Du        
  10132 ****        20.0000   7.7500  29.2500 Du        
  10133 ****        20.0000   7.7500  29.5000 Du        
  10134 ****        20.0000   7.7500  29.7500 Du        
  10135 ****        20.0000   7.7500  30.0000 Du        
  10136 ****        20.0000   8.0000  29.0000 Du        
  10137 ****        20.0000   8.0000  29.2500 Du        
  10138 ****        20.0000   8.0000  29.5000 Du        
  10139 ****        20.0000   8.0000  29.7500 Du        
  10140 ****        20.0000   8.0000  30.0000 Du        
  10141 ****        20.0000   8.0000  30.2500 Du        
  10142 ****        20.0000   8.2500  29.0000 Du        
  10143 ****        20.0000   8.2500  29.2500 Du        
  10144 ****        20.0000   8.2500  29.5000 Du        
  10145 ****        20.0000   8.2500  29.7500 Du        
  10146 ****        20.0000   8.2500  30.0000 Du        
  10147 ****        20.0000   8.2500  30.2500 Du        
  10148 ****        20.0000   8.5000  29.2500 Du        
  10149 ****        20.0000   8.5000  29.5000 Du        
  10150 ****        20.0000   8.5000  29.7500 Du        
  10151 ****        20.0000   8.5000  30.0000 Du        
  10152 ****        20.0000   8.5000  30.2500 Du        
  10153 ****        20.0000   8.5000  30.5000 Du        
  10154 ****        20.0000   8.7500  29.2500 Du        
  10155 ****        20.0000   8.7500  29.5000 Du        
  10156 ****        20.0000   8.7500  29.7500 Du        
  10157 ****        20.0000   8.7500  30.0000 Du        
  10158 ****        20.0000   8.7500  30.2500 Du        
  10159 ****        20.0000   8.7500  30.5000 Du        
  10160 ****        20.0000   8.7500  30.7500 Du        
  10161 ****        20.0000   9.0000  29.5000 Du        
  10162 ****        20.0000   9.0000  29.7500 Du        
  10163 ****        20.0000   9.0000  30.0000 Du        
  10164 ****        20.0000   9.0000  30.2500 Du        
  10165 ****        20.0000   9.0000  30.5000 Du        
  10166 ****        20.0000   9.0000  30.7500 Du        
  10167 ****        20.0000   9.2500  29.5000 Du        
  10168 ****        20.0000   9.2500  29.7500 Du        
  10169 ****        20.0000   9.2500  30.0000 Du        
  10170 ****        20.0000   9.2500  30.2500 Du        
  10171 ****        20.0000   9.2500  30.5000 Du        
  10172 ****        20.0000   9.2500  30.7500 Du        
  10173 ****        20.0000   9.2500  31.0000 Du        
  10174 ****        20.0000   9.5000  29.7500 Du        
  10175 ****        20.0000   9.5000  30.0000 Du        
  10176 ****        20.0000   9.5000  30.2500 Du        
  10177 ****        20.0000   9.5000  30.5000 Du        
  10178 ****        20.0000   9.5000  30.7500 Du        
  10179 ****        20.0000   9.5000  31.0000 Du        
  10180 ****        20.0000   9.7500  29.7500 Du        
  10181 ****        20.0000   9.7500  30.0000 Du        
  10182 ****        20.0000   9.7500  30.2500 Du        
  10183 ****        20.0000   9.7500  30.5000 Du        
  10184 ****        20.0000   9.7500  30.7500 Du        
  10185 ****        20.0000   9.7500  31.0000 Du        
  10186 ****        20.0000  10.0000  29.7500 Du        
  10187 ****        20.0000  10.0000  30.0000 Du        
  10188 ****        20.0000  10.0000  30.2500 Du        
  10189 ****        20.0000  10.0000  30.5000 Du        
  10190 ****        20.0000  10.0000  30.7500 Du        
  10191 ****        20.0000  10.0000  31.0000 Du        
  10192 ****        20.0000  10.2500  29.7500 Du        
  10193 ****        20.0000  10.2500  30.0000 Du        
  10194 ****        20.0000  10.2500  30.2500 Du        
  10195 ****        20.0000  10.2500  30.5000 Du        
  10196 ****        20.0000  10.5000  29.5000 Du        
  10197 ****        20.0000  10.5000  29.7500 Du        
  10198 ****        20.0000  10.5000  30.0000 Du        
  10199 ****        20.0000  10.5000  30.2500 Du        
  10200 ****        20.0000  10.7500  29.5000 Du        
  10201 ****        20.0000  10.7500  29.7500 Du        
  10202 ****        20.0000  10.7500  30.0000 Du        
  10203 ****        20.0000  10.7500  30.2500 Du        
  10204 ****        20.0000  11.0000  29.5000 Du        
  10205 ****        20.0000  11.0000  29.7500 Du        
  10206 ****        20.0000  11.0000  30.0000 Du        
  10207 ****        20.0000  11.2500  29.5000 Du        
  10208 ****        20.0000  11.2500  29.7500 Du        
  10209 ****        20.0000  11.5000  29.5000 Du        
  10210 ****        20.0000  27.2500  20.7500 Du        
  10211 ****        20.0000  27.2500  21.0000 Du        
  10212 ****        20.0000  27.2500  21.2500 Du        
  10213 ****        20.0000  27.5000  20.7500 Du        
  10214 ****        20.0000  27.5000  21.0000 Du        
  10215 ****        20.0000  27.5000  21.2500 Du        
  10216 ****        20.2500   5.2500  26.5000 Du        
  10217 ****        20.2500   5.2500  26.7500 Du        
  10218 ****        20.2500   5.5000  26.0000 Du        
  10219 ****        20.2500   5.5000  26.2500 Du        
  10220 ****        20.2500   5.5000  26.5000 Du        
  10221 ****        20.2500   5.5000  26.7500 Du        
  10222 ****        20.2500   5.5000  27.0000 Du        
  10223 ****        20.2500   5.7500  26.0000 Du        
  10224 ****        20.2500   5.7500  26.2500 Du        
  10225 ****        20.2500   5.7500  26.5000 Du        
  10226 ****        20.2500   5.7500  26.7500 Du        
  10227 ****        20.2500   5.7500  27.0000 Du        
  10228 ****        20.2500   6.0000  25.7500 Du        
  10229 ****        20.2500   6.0000  26.0000 Du        
  10230 ****        20.2500   6.0000  26.2500 Du        
  10231 ****        20.2500   6.0000  26.5000 Du        
  10232 ****        20.2500   6.0000  26.7500 Du        
  10233 ****        20.2500   6.0000  27.0000 Du        
  10234 ****        20.2500   6.0000  27.2500 Du        
  10235 ****        20.2500   6.2500  25.7500 Du        
  10236 ****        20.2500   6.2500  26.0000 Du        
  10237 ****        20.2500   6.2500  26.2500 Du        
  10238 ****        20.2500   6.2500  26.5000 Du        
  10239 ****        20.2500   6.2500  26.7500 Du        
  10240 ****        20.2500   6.2500  27.0000 Du        
  10241 ****        20.2500   6.2500  27.2500 Du        
  10242 ****        20.2500   6.2500  27.5000 Du        
  10243 ****        20.2500   6.5000  25.5000 Du        
  10244 ****        20.2500   6.5000  25.7500 Du        
  10245 ****        20.2500   6.5000  26.0000 Du        
  10246 ****        20.2500   6.5000  26.2500 Du        
  10247 ****        20.2500   6.5000  26.5000 Du        
  10248 ****        20.2500   6.5000  26.7500 Du        
  10249 ****        20.2500   6.5000  27.0000 Du        
  10250 ****        20.2500   6.5000  27.2500 Du        
  10251 ****        20.2500   6.5000  27.5000 Du        
  10252 ****        20.2500   6.7500  25.7500 Du        
  10253 ****        20.2500   6.7500  26.0000 Du        
  10254 ****        20.2500   6.7500  26.2500 Du        
  10255 ****        20.2500   6.7500  26.5000 Du        
  10256 ****        20.2500   6.7500  26.7500 Du        
  10257 ****        20.2500   6.7500  27.0000 Du        
  10258 ****        20.2500   6.7500  27.2500 Du        
  10259 ****        20.2500   6.7500  27.5000 Du        
  10260 ****        20.2500   6.7500  27.7500 Du        
  10261 ****        20.2500   7.0000  27.2500 Du        
  10262 ****        20.2500   7.0000  27.5000 Du        
  10263 ****        20.2500   7.0000  27.7500 Du        
  10264 ****        20.2500   7.0000  28.0000 Du        
  10265 ****        20.2500   7.0000  28.2500 Du        
  10266 ****        20.2500   7.2500  27.7500 Du        
  10267 ****        20.2500   7.2500  28.0000 Du        
  10268 ****        20.2500   7.2500  28.2500 Du        
  10269 ****        20.2500   7.2500  28.5000 Du        
  10270 ****        20.2500   7.2500  28.7500 Du        
  10271 ****        20.2500   7.5000  28.2500 Du        
  10272 ****        20.2500   7.5000  28.5000 Du        
  10273 ****        20.2500   7.5000  28.7500 Du        
  10274 ****        20.2500   7.5000  29.0000 Du        
  10275 ****        20.2500   7.5000  29.2500 Du        
  10276 ****        20.2500   7.5000  29.5000 Du        
  10277 ****        20.2500   7.5000  29.7500 Du        
  10278 ****        20.2500   7.7500  28.5000 Du        
  10279 ****        20.2500   7.7500  28.7500 Du        
  10280 ****        20.2500   7.7500  29.0000 Du        
  10281 ****        20.2500   7.7500  29.2500 Du        
  10282 ****        20.2500   7.7500  29.5000 Du        
  10283 ****        20.2500   7.7500  29.7500 Du        
  10284 ****        20.2500   7.7500  30.0000 Du        
  10285 ****        20.2500   7.7500  30.2500 Du        
  10286 ****        20.2500   8.0000  28.7500 Du        
  10287 ****        20.2500   8.0000  29.0000 Du        
  10288 ****        20.2500   8.0000  29.2500 Du        
  10289 ****        20.2500   8.0000  29.5000 Du        
  10290 ****        20.2500   8.0000  29.7500 Du        
  10291 ****        20.2500   8.0000  30.0000 Du        
  10292 ****        20.2500   8.0000  30.2500 Du        
  10293 ****        20.2500   8.2500  29.0000 Du        
  10294 ****        20.2500   8.2500  29.2500 Du        
  10295 ****        20.2500   8.2500  29.5000 Du        
  10296 ****        20.2500   8.2500  29.7500 Du        
  10297 ****        20.2500   8.2500  30.0000 Du        
  10298 ****        20.2500   8.2500  30.2500 Du        
  10299 ****        20.2500   8.2500  30.5000 Du        
  10300 ****        20.2500   8.5000  29.2500 Du        
  10301 ****        20.2500   8.5000  29.5000 Du        
  10302 ****        20.2500   8.5000  29.7500 Du        
  10303 ****        20.2500   8.5000  30.0000 Du        
  10304 ****        20.2500   8.5000  30.2500 Du        
  10305 ****        20.2500   8.5000  30.5000 Du        
  10306 ****        20.2500   8.7500  29.2500 Du        
  10307 ****        20.2500   8.7500  29.5000 Du        
  10308 ****        20.2500   8.7500  29.7500 Du        
  10309 ****        20.2500   8.7500  30.0000 Du        
  10310 ****        20.2500   8.7500  30.2500 Du        
  10311 ****        20.2500   8.7500  30.5000 Du        
  10312 ****        20.2500   8.7500  30.7500 Du        
  10313 ****        20.2500   9.0000  29.5000 Du        
  10314 ****        20.2500   9.0000  29.7500 Du        
  10315 ****        20.2500   9.0000  30.0000 Du        
  10316 ****        20.2500   9.0000  30.2500 Du        
  10317 ****        20.2500   9.0000  30.5000 Du        
  10318 ****        20.2500   9.0000  30.7500 Du        
  10319 ****        20.2500   9.0000  31.0000 Du        
  10320 ****        20.2500   9.2500  29.5000 Du        
  10321 ****        20.2500   9.2500  29.7500 Du        
  10322 ****        20.2500   9.2500  30.0000 Du        
  10323 ****        20.2500   9.2500  30.2500 Du        
  10324 ****        20.2500   9.2500  30.5000 Du        
  10325 ****        20.2500   9.2500  30.7500 Du        
  10326 ****        20.2500   9.2500  31.0000 Du        
  10327 ****        20.2500   9.5000  29.7500 Du        
  10328 ****        20.2500   9.5000  30.0000 Du        
  10329 ****        20.2500   9.5000  30.2500 Du        
  10330 ****        20.2500   9.5000  30.5000 Du        
  10331 ****        20.2500   9.5000  30.7500 Du        
  10332 ****        20.2500   9.7500  29.7500 Du        
  10333 ****        20.2500   9.7500  30.0000 Du        
  10334 ****        20.2500   9.7500  30.2500 Du        
  10335 ****        20.2500   9.7500  30.5000 Du        
  10336 ****        20.2500   9.7500  30.7500 Du        
  10337 ****        20.2500  10.0000  29.7500 Du        
  10338 ****        20.2500  10.0000  30.0000 Du        
  10339 ****        20.2500  10.0000  30.2500 Du        
  10340 ****        20.2500  10.2500  29.7500 Du        
  10341 ****        20.2500  10.2500  30.0000 Du        
  10342 ****        20.2500  27.2500  20.7500 Du        
  10343 ****        20.2500  27.2500  21.0000 Du        
  10344 ****        20.2500  27.5000  20.7500 Du        
  10345 ****        20.2500  27.5000  21.0000 Du        
  10346 ****        20.2500  27.5000  21.2500 Du        
  10347 ****        20.5000   5.7500  26.0000 Du        
  10348 ****        20.5000   5.7500  26.2500 Du        
  10349 ****        20.5000   5.7500  26.5000 Du        
  10350 ****        20.5000   6.0000  25.7500 Du        
  10351 ****        20.5000   6.0000  26.0000 Du        
  10352 ****        20.5000   6.0000  26.2500 Du        
  10353 ****        20.5000   6.0000  26.5000 Du        
  10354 ****        20.5000   6.0000  26.7500 Du        
  10355 ****        20.5000   6.0000  27.0000 Du        
  10356 ****        20.5000   6.2500  25.7500 Du        
  10357 ****        20.5000   6.2500  26.0000 Du        
  10358 ****        20.5000   6.2500  26.2500 Du        
  10359 ****        20.5000   6.2500  26.5000 Du        
  10360 ****        20.5000   6.2500  26.7500 Du        
  10361 ****        20.5000   6.2500  27.0000 Du        
  10362 ****        20.5000   6.2500  27.2500 Du        
  10363 ****        20.5000   6.5000  25.7500 Du        
  10364 ****        20.5000   6.5000  26.0000 Du        
  10365 ****        20.5000   6.5000  26.2500 Du        
  10366 ****        20.5000   6.5000  26.5000 Du        
  10367 ****        20.5000   6.5000  26.7500 Du        
  10368 ****        20.5000   6.5000  27.0000 Du        
  10369 ****        20.5000   6.5000  27.2500 Du        
  10370 ****        20.5000   6.5000  27.5000 Du        
  10371 ****        20.5000   6.7500  26.7500 Du        
  10372 ****        20.5000   6.7500  27.0000 Du        
  10373 ****        20.5000   6.7500  27.2500 Du        
  10374 ****        20.5000   6.7500  27.5000 Du        
  10375 ****        20.5000   6.7500  27.7500 Du        
  10376 ****        20.5000   7.0000  27.5000 Du        
  10377 ****        20.5000   7.0000  27.7500 Du        
  10378 ****        20.5000   7.0000  28.0000 Du        
  10379 ****        20.5000   7.0000  28.2500 Du        
  10380 ****        20.5000   7.2500  28.0000 Du        
  10381 ****        20.5000   7.2500  28.2500 Du        
  10382 ****        20.5000   7.2500  28.5000 Du        
  10383 ****        20.5000   7.5000  28.2500 Du        
  10384 ****        20.5000   7.5000  28.5000 Du        
  10385 ****        20.5000   7.5000  28.7500 Du        
  10386 ****        20.5000   7.5000  29.0000 Du        
  10387 ****        20.5000   7.5000  29.2500 Du        
  10388 ****        20.5000   7.7500  28.7500 Du        
  10389 ****        20.5000   7.7500  29.0000 Du        
  10390 ****        20.5000   7.7500  29.2500 Du        
  10391 ****        20.5000   7.7500  29.5000 Du        
  10392 ****        20.5000   7.7500  29.7500 Du        
  10393 ****        20.5000   7.7500  30.0000 Du        
  10394 ****        20.5000   7.7500  30.2500 Du        
  10395 ****        20.5000   8.0000  28.7500 Du        
  10396 ****        20.5000   8.0000  29.0000 Du        
  10397 ****        20.5000   8.0000  29.2500 Du        
  10398 ****        20.5000   8.0000  29.5000 Du        
  10399 ****        20.5000   8.0000  29.7500 Du        
  10400 ****        20.5000   8.0000  30.0000 Du        
  10401 ****        20.5000   8.0000  30.2500 Du        
  10402 ****        20.5000   8.0000  30.5000 Du        
  10403 ****        20.5000   8.2500  29.0000 Du        
  10404 ****        20.5000   8.2500  29.2500 Du        
  10405 ****        20.5000   8.2500  29.5000 Du        
  10406 ****        20.5000   8.2500  29.7500 Du        
  10407 ****        20.5000   8.2500  30.0000 Du        
  10408 ****        20.5000   8.2500  30.2500 Du        
  10409 ****        20.5000   8.2500  30.5000 Du        
  10410 ****        20.5000   8.5000  29.2500 Du        
  10411 ****        20.5000   8.5000  29.5000 Du        
  10412 ****        20.5000   8.5000  29.7500 Du        
  10413 ****        20.5000   8.5000  30.0000 Du        
  10414 ****        20.5000   8.5000  30.2500 Du        
  10415 ****        20.5000   8.5000  30.5000 Du        
  10416 ****        20.5000   8.5000  30.7500 Du        
  10417 ****        20.5000   8.7500  29.5000 Du        
  10418 ****        20.5000   8.7500  29.7500 Du        
  10419 ****        20.5000   8.7500  30.0000 Du        
  10420 ****        20.5000   8.7500  30.2500 Du        
  10421 ****        20.5000   8.7500  30.5000 Du        
  10422 ****        20.5000   8.7500  30.7500 Du        
  10423 ****        20.5000   9.0000  29.5000 Du        
  10424 ****        20.5000   9.0000  29.7500 Du        
  10425 ****        20.5000   9.0000  30.0000 Du        
  10426 ****        20.5000   9.0000  30.2500 Du        
  10427 ****        20.5000   9.0000  30.5000 Du        
  10428 ****        20.5000   9.0000  30.7500 Du        
  10429 ****        20.5000   9.0000  31.0000 Du        
  10430 ****        20.5000   9.2500  29.5000 Du        
  10431 ****        20.5000   9.2500  29.7500 Du        
  10432 ****        20.5000   9.2500  30.0000 Du        
  10433 ****        20.5000   9.2500  30.2500 Du        
  10434 ****        20.5000   9.2500  30.5000 Du        
  10435 ****        20.5000   9.2500  30.7500 Du        
  10436 ****        20.5000   9.5000  29.7500 Du        
  10437 ****        20.5000   9.5000  30.0000 Du        
  10438 ****        20.5000   9.5000  30.2500 Du        
  10439 ****        20.5000   9.7500  30.0000 Du        
  10440 ****        20.5000  27.2500  20.7500 Du        
  10441 ****        20.5000  27.5000  20.7500 Du        
  10442 ****        20.5000  27.5000  21.0000 Du        
  10443 ****        20.7500   6.2500  26.0000 Du        
  10444 ****        20.7500   6.2500  26.2500 Du        
  10445 ****        20.7500   7.2500  28.0000 Du        
  10446 ****        20.7500   7.2500  28.2500 Du        
  10447 ****        20.7500   7.5000  28.5000 Du        
  10448 ****        20.7500   7.5000  28.7500 Du        
  10449 ****        20.7500   7.7500  28.7500 Du        
  10450 ****        20.7500   7.7500  29.0000 Du        
  10451 ****        20.7500   7.7500  29.2500 Du        
  10452 ****        20.7500   7.7500  29.5000 Du        
  10453 ****        20.7500   7.7500  29.7500 Du        
  10454 ****        20.7500   7.7500  30.0000 Du        
  10455 ****        20.7500   7.7500  30.2500 Du        
  10456 ****        20.7500   8.0000  28.7500 Du        
  10457 ****        20.7500   8.0000  29.0000 Du        
  10458 ****        20.7500   8.0000  29.2500 Du        
  10459 ****        20.7500   8.0000  29.5000 Du        
  10460 ****        20.7500   8.0000  29.7500 Du        
  10461 ****        20.7500   8.0000  30.0000 Du        
  10462 ****        20.7500   8.0000  30.2500 Du        
  10463 ****        20.7500   8.0000  30.5000 Du        
  10464 ****        20.7500   8.2500  29.0000 Du        
  10465 ****        20.7500   8.2500  29.2500 Du        
  10466 ****        20.7500   8.2500  29.5000 Du        
  10467 ****        20.7500   8.2500  29.7500 Du        
  10468 ****        20.7500   8.2500  30.0000 Du        
  10469 ****        20.7500   8.2500  30.2500 Du        
  10470 ****        20.7500   8.2500  30.5000 Du        
  10471 ****        20.7500   8.2500  30.7500 Du        
  10472 ****        20.7500   8.5000  29.2500 Du        
  10473 ****        20.7500   8.5000  29.5000 Du        
  10474 ****        20.7500   8.5000  29.7500 Du        
  10475 ****        20.7500   8.5000  30.0000 Du        
  10476 ****        20.7500   8.5000  30.2500 Du        
  10477 ****        20.7500   8.5000  30.5000 Du        
  10478 ****        20.7500   8.5000  30.7500 Du        
  10479 ****        20.7500   8.7500  29.5000 Du        
  10480 ****        20.7500   8.7500  29.7500 Du        
  10481 ****        20.7500   8.7500  30.0000 Du        
  10482 ****        20.7500   8.7500  30.2500 Du        
  10483 ****        20.7500   8.7500  30.5000 Du        
  10484 ****        20.7500   8.7500  30.7500 Du        
  10485 ****        20.7500   9.0000  29.5000 Du        
  10486 ****        20.7500   9.0000  29.7500 Du        
  10487 ****        20.7500   9.0000  30.0000 Du        
  10488 ****        20.7500   9.0000  30.2500 Du        
  10489 ****        20.7500   9.0000  30.5000 Du        
  10490 ****        20.7500   9.0000  30.7500 Du        
  10491 ****        20.7500   9.2500  29.7500 Du        
  10492 ****        20.7500   9.2500  30.0000 Du        
  10493 ****        20.7500   9.2500  30.2500 Du        
  10494 ****        21.0000   7.7500  28.7500 Du        
  10495 ****        21.0000   7.7500  29.0000 Du        
  10496 ****        21.0000   7.7500  29.2500 Du        
  10497 ****        21.0000   8.0000  29.0000 Du        
  10498 ****        21.0000   8.0000  29.2500 Du        
  10499 ****        21.0000   8.0000  29.5000 Du        
  10500 ****        21.0000   8.0000  29.7500 Du        
  10501 ****        21.0000   8.0000  30.0000 Du        
  10502 ****        21.0000   8.0000  30.2500 Du        
  10503 ****        21.0000   8.0000  30.5000 Du        
  10504 ****        21.0000   8.0000  30.7500 Du        
  10505 ****        21.0000   8.2500  29.0000 Du        
  10506 ****        21.0000   8.2500  29.2500 Du        
  10507 ****        21.0000   8.2500  29.5000 Du        
  10508 ****        21.0000   8.2500  29.7500 Du        
  10509 ****        21.0000   8.2500  30.0000 Du        
  10510 ****        21.0000   8.2500  30.2500 Du        
  10511 ****        21.0000   8.2500  30.5000 Du        
  10512 ****        21.0000   8.2500  30.7500 Du        
  10513 ****        21.0000   8.5000  29.2500 Du        
  10514 ****        21.0000   8.5000  29.5000 Du        
  10515 ****        21.0000   8.5000  29.7500 Du        
  10516 ****        21.0000   8.5000  30.0000 Du        
  10517 ****        21.0000   8.5000  30.2500 Du        
  10518 ****        21.0000   8.5000  30.5000 Du        
  10519 ****        21.0000   8.5000  30.7500 Du        
  10520 ****        21.0000   8.7500  29.5000 Du        
  10521 ****        21.0000   8.7500  29.7500 Du        
  10522 ****        21.0000   8.7500  30.0000 Du        
  10523 ****        21.0000   8.7500  30.2500 Du        
  10524 ****        21.0000   8.7500  30.5000 Du        
  10525 ****        21.0000   8.7500  30.7500 Du        
  10526 ****        21.0000   9.0000  29.5000 Du        
  10527 ****        21.0000   9.0000  29.7500 Du        
  10528 ****        21.0000   9.0000  30.0000 Du        
  10529 ****        21.0000   9.0000  30.2500 Du        
  10530 ****        21.2500   8.0000  29.0000 Du        
  10531 ****        21.2500   8.0000  29.2500 Du        
  10532 ****        21.2500   8.0000  29.5000 Du        
  10533 ****        21.2500   8.0000  29.7500 Du        
  10534 ****        21.2500   8.0000  30.0000 Du        
  10535 ****        21.2500   8.0000  30.2500 Du        
  10536 ****        21.2500   8.0000  30.5000 Du        
  10537 ****        21.2500   8.0000  30.7500 Du        
  10538 ****        21.2500   8.2500  29.0000 Du        
  10539 ****        21.2500   8.2500  29.2500 Du        
  10540 ****        21.2500   8.2500  29.5000 Du        
  10541 ****        21.2500   8.2500  29.7500 Du        
  10542 ****        21.2500   8.2500  30.0000 Du        
  10543 ****        21.2500   8.2500  30.2500 Du        
  10544 ****        21.2500   8.2500  30.5000 Du        
  10545 ****        21.2500   8.2500  30.7500 Du        
  10546 ****        21.2500   8.5000  29.2500 Du        
  10547 ****        21.2500   8.5000  29.5000 Du        
  10548 ****        21.2500   8.5000  29.7500 Du        
  10549 ****        21.2500   8.5000  30.0000 Du        
  10550 ****        21.2500   8.5000  30.2500 Du        
  10551 ****        21.2500   8.5000  30.5000 Du        
  10552 ****        21.2500   8.5000  30.7500 Du        
  10553 ****        21.2500   8.7500  29.5000 Du        
  10554 ****        21.2500   8.7500  29.7500 Du        
  10555 ****        21.2500   8.7500  30.0000 Du        
  10556 ****        21.2500   8.7500  30.2500 Du        
  10557 ****        21.5000   8.0000  29.0000 Du        
  10558 ****        21.5000   8.0000  29.2500 Du        
  10559 ****        21.5000   8.2500  29.2500 Du        
  10560 ****        21.5000   8.2500  29.5000 Du        
  10561 ****        21.5000   8.2500  29.7500 Du        
  10562 ****        21.5000   8.2500  30.0000 Du        
  10563 ****        21.5000   8.2500  30.2500 Du        
  10564 ****        21.5000   8.2500  30.5000 Du        
  10565 ****        21.5000   8.2500  30.7500 Du        
  10566 ****        21.5000   8.5000  29.2500 Du        
  10567 ****        21.5000   8.5000  29.5000 Du        
  10568 ****        21.5000   8.5000  29.7500 Du        
  10569 ****        21.5000   8.5000  30.0000 Du        
  10570 ****        21.5000   8.5000  30.2500 Du        
  10571 ****        21.7500   8.2500  29.2500 Du        
  10572 ****        21.7500   8.2500  29.5000 Du        
  10573 ****        21.7500   8.2500  29.7500 Du        
  10574 ****        21.7500   8.2500  30.0000 Du        
  10575 ****        21.7500   8.2500  30.2500 Du        
  10576 ****        21.7500   8.5000  29.5000 Du        
  10577 ****        21.7500   8.5000  29.7500 Du        
  10578 ****        22.0000   8.2500  29.2500 Du        
  10579 ****        22.0000   8.2500  29.5000 Du        
  10580 ****        23.0000  19.2500  27.2500 Du        
  10581 ****        23.0000  19.5000  27.2500 Du        
  10582 ****        23.0000  19.7500  27.5000 Du        
  10583 ****        23.0000  21.5000  29.0000 Du        
  10584 ****        23.2500  19.0000  27.2500 Du        
  10585 ****        23.2500  19.2500  27.2500 Du        
  10586 ****        23.2500  19.2500  27.5000 Du        
  10587 ****        23.2500  19.5000  27.2500 Du        
  10588 ****        23.2500  19.5000  27.5000 Du        
  10589 ****        23.2500  19.5000  27.7500 Du        
  10590 ****        23.2500  19.7500  27.5000 Du        
  10591 ****        23.2500  19.7500  27.7500 Du        
  10592 ****        23.2500  20.0000  27.7500 Du        
  10593 ****        23.2500  20.2500  28.0000 Du        
  10594 ****        23.2500  21.0000  28.7500 Du        
  10595 ****        23.2500  21.2500  28.7500 Du        
  10596 ****        23.2500  21.2500  29.0000 Du        
  10597 ****        23.2500  21.5000  29.0000 Du        
  10598 ****        23.2500  21.5000  29.2500 Du        
  10599 ****        23.2500  21.7500  29.0000 Du        
  10600 ****        23.5000  19.0000  27.5000 Du        
  10601 ****        23.5000  19.0000  27.7500 Du        
  10602 ****        23.5000  19.2500  27.5000 Du        
  10603 ****        23.5000  19.2500  27.7500 Du        
  10604 ****        23.5000  19.5000  27.7500 Du        
  10605 ****        23.5000  21.0000  28.7500 Du        
  10606 ****        23.5000  21.0000  29.0000 Du        
  10607 ****        23.5000  21.2500  28.7500 Du        
  10608 ****        23.5000  21.2500  29.0000 Du        
  10609 ****        23.5000  21.2500  29.2500 Du        
  10610 ****        23.5000  21.5000  29.0000 Du        
  10611 ****        23.5000  21.5000  29.2500 Du        
  10612 ****        23.7500  18.7500  27.7500 Du        
  10613 ****        23.7500  18.7500  28.0000 Du        
  10614 ****        23.7500  18.7500  28.2500 Du        
  10615 ****        23.7500  19.0000  27.7500 Du        
  10616 ****        23.7500  19.0000  28.0000 Du        
  10617 ****        23.7500  19.0000  28.2500 Du        
  10618 ****        23.7500  19.2500  27.7500 Du        
  10619 ****        23.7500  19.2500  28.0000 Du        
  10620 ****        23.7500  20.7500  29.0000 Du        
  10621 ****        23.7500  21.0000  28.7500 Du        
  10622 ****        23.7500  21.0000  29.0000 Du        
  10623 ****        23.7500  21.0000  29.2500 Du        
  10624 ****        23.7500  21.2500  28.7500 Du        
  10625 ****        23.7500  21.2500  29.0000 Du        
  10626 ****        23.7500  21.2500  29.2500 Du        
  10627 ****        23.7500  21.5000  29.0000 Du        
  10628 ****        23.7500  21.5000  29.2500 Du        
  10629 ****        24.0000  15.0000  33.2500 Du        
  10630 ****        24.0000  15.0000  33.5000 Du        
  10631 ****        24.0000  15.2500  33.2500 Du        
  10632 ****        24.0000  18.2500  28.5000 Du        
  10633 ****        24.0000  18.2500  28.7500 Du        
  10634 ****        24.0000  18.5000  28.0000 Du        
  10635 ****        24.0000  18.5000  28.2500 Du        
  10636 ****        24.0000  18.5000  28.5000 Du        
  10637 ****        24.0000  18.7500  28.0000 Du        
  10638 ****        24.0000  18.7500  28.2500 Du        
  10639 ****        24.0000  18.7500  28.5000 Du        
  10640 ****        24.0000  19.0000  28.0000 Du        
  10641 ****        24.0000  19.0000  28.2500 Du        
  10642 ****        24.0000  19.0000  28.5000 Du        
  10643 ****        24.0000  20.7500  29.2500 Du        
  10644 ****        24.0000  20.7500  29.5000 Du        
  10645 ****        24.0000  21.0000  29.2500 Du        
  10646 ****        24.0000  21.0000  29.5000 Du        
  10647 ****        24.0000  21.2500  29.0000 Du        
  10648 ****        24.0000  21.2500  29.2500 Du        
  10649 ****        24.0000  21.2500  29.5000 Du        
  10650 ****        24.0000  21.5000  29.0000 Du        
  10651 ****        24.0000  21.5000  29.2500 Du        
  10652 ****        24.0000  21.7500  29.2500 Du        
  10653 ****        24.2500  14.2500  33.5000 Du        
  10654 ****        24.2500  14.2500  33.7500 Du        
  10655 ****        24.2500  14.5000  33.5000 Du        
  10656 ****        24.2500  14.5000  33.7500 Du        
  10657 ****        24.2500  14.7500  33.2500 Du        
  10658 ****        24.2500  14.7500  33.5000 Du        
  10659 ****        24.2500  14.7500  33.7500 Du        
  10660 ****        24.2500  15.0000  33.0000 Du        
  10661 ****        24.2500  15.0000  33.2500 Du        
  10662 ****        24.2500  15.0000  33.5000 Du        
  10663 ****        24.2500  15.0000  33.7500 Du        
  10664 ****        24.2500  15.2500  33.0000 Du        
  10665 ****        24.2500  15.2500  33.2500 Du        
  10666 ****        24.2500  15.2500  33.5000 Du        
  10667 ****        24.2500  15.2500  33.7500 Du        
  10668 ****        24.2500  15.5000  32.7500 Du        
  10669 ****        24.2500  15.5000  33.0000 Du        
  10670 ****        24.2500  15.5000  33.2500 Du        
  10671 ****        24.2500  15.5000  33.5000 Du        
  10672 ****        24.2500  15.7500  32.7500 Du        
  10673 ****        24.2500  15.7500  33.0000 Du        
  10674 ****        24.2500  15.7500  33.2500 Du        
  10675 ****        24.2500  16.0000  32.7500 Du        
  10676 ****        24.2500  16.0000  33.0000 Du        
  10677 ****        24.2500  16.0000  33.2500 Du        
  10678 ****        24.2500  16.2500  32.7500 Du        
  10679 ****        24.2500  16.2500  33.0000 Du        
  10680 ****        24.2500  16.5000  32.7500 Du        
  10681 ****        24.2500  16.5000  33.0000 Du        
  10682 ****        24.2500  16.7500  32.7500 Du        
  10683 ****        24.2500  16.7500  33.0000 Du        
  10684 ****        24.2500  17.0000  32.5000 Du        
  10685 ****        24.2500  17.0000  32.7500 Du        
  10686 ****        24.2500  17.0000  33.0000 Du        
  10687 ****        24.2500  17.2500  32.5000 Du        
  10688 ****        24.2500  17.2500  32.7500 Du        
  10689 ****        24.2500  17.2500  33.0000 Du        
  10690 ****        24.2500  17.5000  32.5000 Du        
  10691 ****        24.2500  17.5000  32.7500 Du        
  10692 ****        24.2500  17.5000  33.0000 Du        
  10693 ****        24.2500  18.0000  28.5000 Du        
  10694 ****        24.2500  18.0000  28.7500 Du        
  10695 ****        24.2500  18.0000  29.0000 Du        
  10696 ****        24.2500  18.0000  29.2500 Du        
  10697 ****        24.2500  18.2500  28.2500 Du        
  10698 ****        24.2500  18.2500  28.5000 Du        
  10699 ****        24.2500  18.2500  28.7500 Du        
  10700 ****        24.2500  18.2500  29.0000 Du        
  10701 ****        24.2500  18.2500  29.2500 Du        
  10702 ****        24.2500  18.5000  28.0000 Du        
  10703 ****        24.2500  18.5000  28.2500 Du        
  10704 ****        24.2500  18.5000  28.5000 Du        
  10705 ****        24.2500  18.5000  28.7500 Du        
  10706 ****        24.2500  18.5000  29.0000 Du        
  10707 ****        24.2500  18.5000  29.2500 Du        
  10708 ****        24.2500  18.7500  28.2500 Du        
  10709 ****        24.2500  18.7500  28.5000 Du        
  10710 ****        24.2500  18.7500  28.7500 Du        
  10711 ****        24.2500  18.7500  29.0000 Du        
  10712 ****        24.2500  18.7500  29.2500 Du        
  10713 ****        24.2500  19.0000  28.5000 Du        
  10714 ****        24.2500  19.0000  28.7500 Du        
  10715 ****        24.2500  19.0000  29.0000 Du        
  10716 ****        24.2500  19.0000  29.2500 Du        
  10717 ****        24.2500  19.2500  28.7500 Du        
  10718 ****        24.2500  19.2500  29.0000 Du        
  10719 ****        24.2500  19.2500  29.2500 Du        
  10720 ****        24.2500  20.0000  29.2500 Du        
  10721 ****        24.2500  20.2500  29.5000 Du        
  10722 ****        24.2500  20.2500  29.7500 Du        
  10723 ****        24.2500  20.2500  30.0000 Du        
  10724 ****        24.2500  20.5000  29.5000 Du        
  10725 ****        24.2500  20.5000  29.7500 Du        
  10726 ****        24.2500  20.7500  29.5000 Du        
  10727 ****        24.2500  20.7500  29.7500 Du        
  10728 ****        24.2500  21.0000  29.5000 Du        
  10729 ****        24.2500  21.2500  29.2500 Du        
  10730 ****        24.2500  21.2500  29.5000 Du        
  10731 ****        24.2500  21.5000  29.2500 Du        
  10732 ****        24.2500  21.7500  29.2500 Du        
  10733 ****        24.5000  14.0000  33.5000 Du        
  10734 ****        24.5000  14.0000  33.7500 Du        
  10735 ****        24.5000  14.2500  33.5000 Du        
  10736 ****        24.5000  14.2500  33.7500 Du        
  10737 ****        24.5000  14.5000  33.2500 Du        
  10738 ****        24.5000  14.5000  33.5000 Du        
  10739 ****        24.5000  14.5000  33.7500 Du        
  10740 ****        24.5000  14.7500  33.0000 Du        
  10741 ****        24.5000  14.7500  33.2500 Du        
  10742 ****        24.5000  14.7500  33.5000 Du        
  10743 ****        24.5000  14.7500  33.7500 Du        
  10744 ****        24.5000  15.0000  33.0000 Du        
  10745 ****        24.5000  15.0000  33.2500 Du        
  10746 ****        24.5000  15.0000  33.5000 Du        
  10747 ****        24.5000  15.0000  33.7500 Du        
  10748 ****        24.5000  15.0000  34.0000 Du        
  10749 ****        24.5000  15.2500  32.7500 Du        
  10750 ****        24.5000  15.2500  33.0000 Du        
  10751 ****        24.5000  15.2500  33.2500 Du        
  10752 ****        24.5000  15.2500  33.5000 Du        
  10753 ****        24.5000  15.2500  33.7500 Du        
  10754 ****        24.5000  15.5000  32.7500 Du        
  10755 ****        24.5000  15.5000  33.0000 Du        
  10756 ****        24.5000  15.5000  33.2500 Du        
  10757 ****        24.5000  15.5000  33.5000 Du        
  10758 ****        24.5000  15.5000  33.7500 Du        
  10759 ****        24.5000  15.7500  32.5000 Du        
  10760 ****        24.5000  15.7500  32.7500 Du        
  10761 ****        24.5000  15.7500  33.0000 Du        
  10762 ****        24.5000  15.7500  33.2500 Du        
  10763 ****        24.5000  15.7500  33.5000 Du        
  10764 ****        24.5000  16.0000  32.5000 Du        
  10765 ****        24.5000  16.0000  32.7500 Du        
  10766 ****        24.5000  16.0000  33.0000 Du        
  10767 ****        24.5000  16.0000  33.2500 Du        
  10768 ****        24.5000  16.0000  33.5000 Du        
  10769 ****        24.5000  16.2500  32.5000 Du        
  10770 ****        24.5000  16.2500  32.7500 Du        
  10771 ****        24.5000  16.2500  33.0000 Du        
  10772 ****        24.5000  16.2500  33.2500 Du        
  10773 ****        24.5000  16.5000  32.5000 Du        
  10774 ****        24.5000  16.5000  32.7500 Du        
  10775 ****        24.5000  16.5000  33.0000 Du        
  10776 ****        24.5000  16.5000  33.2500 Du        
  10777 ****        24.5000  16.7500  32.5000 Du        
  10778 ****        24.5000  16.7500  32.7500 Du        
  10779 ****        24.5000  16.7500  33.0000 Du        
  10780 ****        24.5000  16.7500  33.2500 Du        
  10781 ****        24.5000  17.0000  32.2500 Du        
  10782 ****        24.5000  17.0000  32.5000 Du        
  10783 ****        24.5000  17.0000  32.7500 Du        
  10784 ****        24.5000  17.0000  33.0000 Du        
  10785 ****        24.5000  17.0000  33.2500 Du        
  10786 ****        24.5000  17.2500  32.2500 Du        
  10787 ****        24.5000  17.2500  32.5000 Du        
  10788 ****        24.5000  17.2500  32.7500 Du        
  10789 ****        24.5000  17.2500  33.0000 Du        
  10790 ****        24.5000  17.2500  33.2500 Du        
  10791 ****        24.5000  17.5000  32.2500 Du        
  10792 ****        24.5000  17.5000  32.5000 Du        
  10793 ****        24.5000  17.5000  32.7500 Du        
  10794 ****        24.5000  17.5000  33.0000 Du        
  10795 ****        24.5000  17.5000  33.2500 Du        
  10796 ****        24.5000  17.7500  28.7500 Du        
  10797 ****        24.5000  17.7500  29.0000 Du        
  10798 ****        24.5000  17.7500  29.2500 Du        
  10799 ****        24.5000  18.0000  28.2500 Du        
  10800 ****        24.5000  18.0000  28.5000 Du        
  10801 ****        24.5000  18.0000  28.7500 Du        
  10802 ****        24.5000  18.0000  29.0000 Du        
  10803 ****        24.5000  18.0000  29.2500 Du        
  10804 ****        24.5000  18.0000  29.5000 Du        
  10805 ****        24.5000  18.0000  29.7500 Du        
  10806 ****        24.5000  18.0000  30.0000 Du        
  10807 ****        24.5000  18.2500  28.2500 Du        
  10808 ****        24.5000  18.2500  28.5000 Du        
  10809 ****        24.5000  18.2500  28.7500 Du        
  10810 ****        24.5000  18.2500  29.0000 Du        
  10811 ****        24.5000  18.2500  29.2500 Du        
  10812 ****        24.5000  18.2500  29.5000 Du        
  10813 ****        24.5000  18.2500  29.7500 Du        
  10814 ****        24.5000  18.2500  30.0000 Du        
  10815 ****        24.5000  18.2500  30.2500 Du        
  10816 ****        24.5000  18.2500  30.5000 Du        
  10817 ****        24.5000  18.2500  30.7500 Du        
  10818 ****        24.5000  18.2500  31.0000 Du        
  10819 ****        24.5000  18.2500  31.2500 Du        
  10820 ****        24.5000  18.5000  28.2500 Du        
  10821 ****        24.5000  18.5000  28.5000 Du        
  10822 ****        24.5000  18.5000  28.7500 Du        
  10823 ****        24.5000  18.5000  29.0000 Du        
  10824 ****        24.5000  18.5000  29.2500 Du        
  10825 ****        24.5000  18.5000  29.5000 Du        
  10826 ****        24.5000  18.5000  29.7500 Du        
  10827 ****        24.5000  18.5000  30.0000 Du        
  10828 ****        24.5000  18.5000  30.2500 Du        
  10829 ****        24.5000  18.5000  30.7500 Du        
  10830 ****        24.5000  18.5000  31.0000 Du        
  10831 ****        24.5000  18.5000  31.2500 Du        
  10832 ****        24.5000  18.7500  28.5000 Du        
  10833 ****        24.5000  18.7500  28.7500 Du        
  10834 ****        24.5000  18.7500  29.0000 Du        
  10835 ****        24.5000  18.7500  29.2500 Du        
  10836 ****        24.5000  18.7500  29.5000 Du        
  10837 ****        24.5000  18.7500  29.7500 Du        
  10838 ****        24.5000  18.7500  30.0000 Du        
  10839 ****        24.5000  18.7500  30.2500 Du        
  10840 ****        24.5000  18.7500  30.5000 Du        
  10841 ****        24.5000  18.7500  30.7500 Du        
  10842 ****        24.5000  18.7500  31.0000 Du        
  10843 ****        24.5000  19.0000  28.7500 Du        
  10844 ****        24.5000  19.0000  29.0000 Du        
  10845 ****        24.5000  19.0000  29.2500 Du        
  10846 ****        24.5000  19.0000  29.5000 Du        
  10847 ****        24.5000  19.0000  29.7500 Du        
  10848 ****        24.5000  19.0000  30.0000 Du        
  10849 ****        24.5000  19.0000  30.2500 Du        
  10850 ****        24.5000  19.0000  30.5000 Du        
  10851 ****        24.5000  19.0000  30.7500 Du        
  10852 ****        24.5000  19.2500  29.0000 Du        
  10853 ****        24.5000  19.2500  29.2500 Du        
  10854 ****        24.5000  19.2500  29.5000 Du        
  10855 ****        24.5000  19.2500  29.7500 Du        
  10856 ****        24.5000  19.2500  30.0000 Du        
  10857 ****        24.5000  19.2500  30.2500 Du        
  10858 ****        24.5000  19.2500  30.7500 Du        
  10859 ****        24.5000  19.5000  29.5000 Du        
  10860 ****        24.5000  19.5000  29.7500 Du        
  10861 ****        24.5000  19.5000  30.0000 Du        
  10862 ****        24.5000  19.5000  30.2500 Du        
  10863 ****        24.5000  19.7500  29.5000 Du        
  10864 ****        24.5000  19.7500  29.7500 Du        
  10865 ****        24.5000  19.7500  30.0000 Du        
  10866 ****        24.5000  19.7500  30.2500 Du        
  10867 ****        24.5000  19.7500  30.5000 Du        
  10868 ****        24.5000  19.7500  30.7500 Du        
  10869 ****        24.5000  20.0000  29.5000 Du        
  10870 ****        24.5000  20.0000  29.7500 Du        
  10871 ****        24.5000  20.0000  30.0000 Du        
  10872 ****        24.5000  20.0000  30.2500 Du        
  10873 ****        24.5000  20.0000  30.5000 Du        
  10874 ****        24.5000  20.2500  29.7500 Du        
  10875 ****        24.5000  20.2500  30.0000 Du        
  10876 ****        24.5000  20.2500  30.2500 Du        
  10877 ****        24.5000  20.5000  29.7500 Du        
  10878 ****        24.5000  20.5000  30.0000 Du        
  10879 ****        24.5000  20.7500  29.7500 Du        
  10880 ****        24.7500   8.2500  28.5000 Du        
  10881 ****        24.7500  13.7500  33.5000 Du        
  10882 ****        24.7500  13.7500  33.7500 Du        
  10883 ****        24.7500  14.0000  33.2500 Du        
  10884 ****        24.7500  14.0000  33.5000 Du        
  10885 ****        24.7500  14.0000  33.7500 Du        
  10886 ****        24.7500  14.2500  33.2500 Du        
  10887 ****        24.7500  14.2500  33.5000 Du        
  10888 ****        24.7500  14.2500  33.7500 Du        
  10889 ****        24.7500  14.5000  33.0000 Du        
  10890 ****        24.7500  14.5000  33.2500 Du        
  10891 ****        24.7500  14.5000  33.5000 Du        
  10892 ****        24.7500  14.5000  33.7500 Du        
  10893 ****        24.7500  14.7500  32.7500 Du        
  10894 ****        24.7500  14.7500  33.0000 Du        
  10895 ****        24.7500  14.7500  33.2500 Du        
  10896 ****        24.7500  14.7500  33.5000 Du        
  10897 ****        24.7500  14.7500  33.7500 Du        
  10898 ****        24.7500  14.7500  34.0000 Du        
  10899 ****        24.7500  15.0000  32.7500 Du        
  10900 ****        24.7500  15.0000  33.0000 Du        
  10901 ****        24.7500  15.0000  33.2500 Du        
  10902 ****        24.7500  15.0000  33.5000 Du        
  10903 ****        24.7500  15.0000  33.7500 Du        
  10904 ****        24.7500  15.0000  34.0000 Du        
  10905 ****        24.7500  15.2500  32.7500 Du        
  10906 ****        24.7500  15.2500  33.0000 Du        
  10907 ****        24.7500  15.2500  33.2500 Du        
  10908 ****        24.7500  15.2500  33.5000 Du        
  10909 ****        24.7500  15.2500  33.7500 Du        
  10910 ****        24.7500  15.2500  34.0000 Du        
  10911 ****        24.7500  15.5000  32.5000 Du        
  10912 ****        24.7500  15.5000  32.7500 Du        
  10913 ****        24.7500  15.5000  33.0000 Du        
  10914 ****        24.7500  15.5000  33.2500 Du        
  10915 ****        24.7500  15.5000  33.5000 Du        
  10916 ****        24.7500  15.5000  33.7500 Du        
  10917 ****        24.7500  15.5000  34.0000 Du        
  10918 ****        24.7500  15.7500  32.5000 Du        
  10919 ****        24.7500  15.7500  32.7500 Du        
  10920 ****        24.7500  15.7500  33.0000 Du        
  10921 ****        24.7500  15.7500  33.2500 Du        
  10922 ****        24.7500  15.7500  33.5000 Du        
  10923 ****        24.7500  15.7500  33.7500 Du        
  10924 ****        24.7500  15.7500  34.0000 Du        
  10925 ****        24.7500  16.0000  32.5000 Du        
  10926 ****        24.7500  16.0000  32.7500 Du        
  10927 ****        24.7500  16.0000  33.0000 Du        
  10928 ****        24.7500  16.0000  33.2500 Du        
  10929 ****        24.7500  16.0000  33.5000 Du        
  10930 ****        24.7500  16.0000  33.7500 Du        
  10931 ****        24.7500  16.2500  32.2500 Du        
  10932 ****        24.7500  16.2500  32.5000 Du        
  10933 ****        24.7500  16.2500  32.7500 Du        
  10934 ****        24.7500  16.2500  33.0000 Du        
  10935 ****        24.7500  16.2500  33.2500 Du        
  10936 ****        24.7500  16.2500  33.5000 Du        
  10937 ****        24.7500  16.5000  32.2500 Du        
  10938 ****        24.7500  16.5000  32.5000 Du        
  10939 ****        24.7500  16.5000  32.7500 Du        
  10940 ****        24.7500  16.5000  33.0000 Du        
  10941 ****        24.7500  16.5000  33.2500 Du        
  10942 ****        24.7500  16.5000  33.5000 Du        
  10943 ****        24.7500  16.7500  32.2500 Du        
  10944 ****        24.7500  16.7500  32.5000 Du        
  10945 ****        24.7500  16.7500  32.7500 Du        
  10946 ****        24.7500  16.7500  33.0000 Du        
  10947 ****        24.7500  16.7500  33.2500 Du        
  10948 ****        24.7500  16.7500  33.5000 Du        
  10949 ****        24.7500  17.0000  32.0000 Du        
  10950 ****        24.7500  17.0000  32.2500 Du        
  10951 ****        24.7500  17.0000  32.5000 Du        
  10952 ****        24.7500  17.0000  32.7500 Du        
  10953 ****        24.7500  17.0000  33.0000 Du        
  10954 ****        24.7500  17.0000  33.2500 Du        
  10955 ****        24.7500  17.0000  33.5000 Du        
  10956 ****        24.7500  17.2500  31.7500 Du        
  10957 ****        24.7500  17.2500  32.0000 Du        
  10958 ****        24.7500  17.2500  32.2500 Du        
  10959 ****        24.7500  17.2500  32.5000 Du        
  10960 ****        24.7500  17.2500  32.7500 Du        
  10961 ****        24.7500  17.2500  33.0000 Du        
  10962 ****        24.7500  17.2500  33.2500 Du        
  10963 ****        24.7500  17.2500  33.5000 Du        
  10964 ****        24.7500  17.5000  28.7500 Du        
  10965 ****        24.7500  17.5000  29.0000 Du        
  10966 ****        24.7500  17.5000  29.2500 Du        
  10967 ****        24.7500  17.5000  31.7500 Du        
  10968 ****        24.7500  17.5000  32.0000 Du        
  10969 ****        24.7500  17.5000  32.2500 Du        
  10970 ****        24.7500  17.5000  32.5000 Du        
  10971 ****        24.7500  17.5000  32.7500 Du        
  10972 ****        24.7500  17.5000  33.0000 Du        
  10973 ****        24.7500  17.5000  33.2500 Du        
  10974 ****        24.7500  17.5000  33.5000 Du        
  10975 ****        24.7500  17.7500  28.5000 Du        
  10976 ****        24.7500  17.7500  28.7500 Du        
  10977 ****        24.7500  17.7500  29.0000 Du        
  10978 ****        24.7500  17.7500  29.2500 Du        
  10979 ****        24.7500  17.7500  29.5000 Du        
  10980 ****        24.7500  17.7500  29.7500 Du        
  10981 ****        24.7500  17.7500  30.0000 Du        
  10982 ****        24.7500  17.7500  30.2500 Du        
  10983 ****        24.7500  17.7500  30.7500 Du        
  10984 ****        24.7500  17.7500  31.0000 Du        
  10985 ****        24.7500  18.0000  28.2500 Du        
  10986 ****        24.7500  18.0000  28.5000 Du        
  10987 ****        24.7500  18.0000  28.7500 Du        
  10988 ****        24.7500  18.0000  29.0000 Du        
  10989 ****        24.7500  18.0000  29.2500 Du        
  10990 ****        24.7500  18.0000  29.5000 Du        
  10991 ****        24.7500  18.0000  29.7500 Du        
  10992 ****        24.7500  18.0000  30.0000 Du        
  10993 ****        24.7500  18.0000  30.2500 Du        
  10994 ****        24.7500  18.0000  30.5000 Du        
  10995 ****        24.7500  18.0000  30.7500 Du        
  10996 ****        24.7500  18.0000  31.0000 Du        
  10997 ****        24.7500  18.2500  28.2500 Du        
  10998 ****        24.7500  18.2500  28.5000 Du        
  10999 ****        24.7500  18.2500  28.7500 Du        
  11000 ****        24.7500  18.2500  29.0000 Du        
  11001 ****        24.7500  18.2500  29.2500 Du        
  11002 ****        24.7500  18.2500  29.5000 Du        
  11003 ****        24.7500  18.2500  29.7500 Du        
  11004 ****        24.7500  18.2500  30.0000 Du        
  11005 ****        24.7500  18.2500  30.2500 Du        
  11006 ****        24.7500  18.2500  30.5000 Du        
  11007 ****        24.7500  18.2500  30.7500 Du        
  11008 ****        24.7500  18.2500  31.0000 Du        
  11009 ****        24.7500  18.2500  31.2500 Du        
  11010 ****        24.7500  18.2500  31.5000 Du        
  11011 ****        24.7500  18.5000  28.7500 Du        
  11012 ****        24.7500  18.5000  29.0000 Du        
  11013 ****        24.7500  18.5000  29.2500 Du        
  11014 ****        24.7500  18.5000  29.5000 Du        
  11015 ****        24.7500  18.5000  29.7500 Du        
  11016 ****        24.7500  18.5000  30.0000 Du        
  11017 ****        24.7500  18.5000  30.2500 Du        
  11018 ****        24.7500  18.5000  30.5000 Du        
  11019 ****        24.7500  18.5000  30.7500 Du        
  11020 ****        24.7500  18.5000  31.0000 Du        
  11021 ****        24.7500  18.5000  31.2500 Du        
  11022 ****        24.7500  18.5000  31.5000 Du        
  11023 ****        24.7500  18.7500  28.7500 Du        
  11024 ****        24.7500  18.7500  29.0000 Du        
  11025 ****        24.7500  18.7500  29.2500 Du        
  11026 ****        24.7500  18.7500  29.5000 Du        
  11027 ****        24.7500  18.7500  29.7500 Du        
  11028 ****        24.7500  18.7500  30.0000 Du        
  11029 ****        24.7500  18.7500  30.2500 Du        
  11030 ****        24.7500  18.7500  30.5000 Du        
  11031 ****        24.7500  18.7500  30.7500 Du        
  11032 ****        24.7500  18.7500  31.0000 Du        
  11033 ****        24.7500  18.7500  31.2500 Du        
  11034 ****        24.7500  18.7500  31.5000 Du        
  11035 ****        24.7500  18.7500  31.7500 Du        
  11036 ****        24.7500  18.7500  32.0000 Du        
  11037 ****        24.7500  19.0000  29.0000 Du        
  11038 ****        24.7500  19.0000  29.2500 Du        
  11039 ****        24.7500  19.0000  29.5000 Du        
  11040 ****        24.7500  19.0000  29.7500 Du        
  11041 ****        24.7500  19.0000  30.0000 Du        
  11042 ****        24.7500  19.0000  30.2500 Du        
  11043 ****        24.7500  19.0000  30.5000 Du        
  11044 ****        24.7500  19.0000  30.7500 Du        
  11045 ****        24.7500  19.0000  31.0000 Du        
  11046 ****        24.7500  19.0000  31.2500 Du        
  11047 ****        24.7500  19.0000  31.5000 Du        
  11048 ****        24.7500  19.0000  31.7500 Du        
  11049 ****        24.7500  19.0000  32.0000 Du        
  11050 ****        24.7500  19.2500  29.2500 Du        
  11051 ****        24.7500  19.2500  29.5000 Du        
  11052 ****        24.7500  19.2500  29.7500 Du        
  11053 ****        24.7500  19.2500  30.0000 Du        
  11054 ****        24.7500  19.2500  30.2500 Du        
  11055 ****        24.7500  19.2500  30.5000 Du        
  11056 ****        24.7500  19.2500  30.7500 Du        
  11057 ****        24.7500  19.2500  31.0000 Du        
  11058 ****        24.7500  19.2500  31.2500 Du        
  11059 ****        24.7500  19.2500  31.7500 Du        
  11060 ****        24.7500  19.2500  32.0000 Du        
  11061 ****        24.7500  19.5000  29.5000 Du        
  11062 ****        24.7500  19.5000  29.7500 Du        
  11063 ****        24.7500  19.5000  30.0000 Du        
  11064 ****        24.7500  19.5000  30.2500 Du        
  11065 ****        24.7500  19.5000  30.5000 Du        
  11066 ****        24.7500  19.5000  30.7500 Du        
  11067 ****        24.7500  19.5000  31.0000 Du        
  11068 ****        24.7500  19.5000  31.2500 Du        
  11069 ****        24.7500  19.7500  29.5000 Du        
  11070 ****        24.7500  19.7500  29.7500 Du        
  11071 ****        24.7500  19.7500  30.0000 Du        
  11072 ****        24.7500  19.7500  30.2500 Du        
  11073 ****        24.7500  19.7500  30.5000 Du        
  11074 ****        24.7500  19.7500  30.7500 Du        
  11075 ****        24.7500  19.7500  31.0000 Du        
  11076 ****        24.7500  19.7500  31.2500 Du        
  11077 ****        24.7500  20.0000  29.7500 Du        
  11078 ****        24.7500  20.0000  30.0000 Du        
  11079 ****        24.7500  20.0000  30.2500 Du        
  11080 ****        24.7500  20.0000  30.5000 Du        
  11081 ****        24.7500  20.0000  30.7500 Du        
  11082 ****        24.7500  20.0000  31.0000 Du        
  11083 ****        24.7500  20.2500  29.7500 Du        
  11084 ****        24.7500  20.2500  30.0000 Du        
  11085 ****        24.7500  20.2500  30.2500 Du        
  11086 ****        24.7500  20.2500  30.5000 Du        
  11087 ****        24.7500  20.5000  30.0000 Du        
  11088 ****        24.7500  20.5000  30.2500 Du        
  11089 ****        24.7500  20.7500  29.7500 Du        
  11090 ****        24.7500  20.7500  30.0000 Du        
  11091 ****        25.0000   8.2500  28.2500 Du        
  11092 ****        25.0000   8.2500  28.5000 Du        
  11093 ****        25.0000   8.2500  28.7500 Du        
  11094 ****        25.0000   8.5000  28.0000 Du        
  11095 ****        25.0000   8.5000  28.2500 Du        
  11096 ****        25.0000   8.5000  28.5000 Du        
  11097 ****        25.0000   8.7500  28.0000 Du        
  11098 ****        25.0000   8.7500  28.2500 Du        
  11099 ****        25.0000   9.0000  27.7500 Du        
  11100 ****        25.0000   9.0000  28.0000 Du        
  11101 ****        25.0000   9.2500  27.7500 Du        
  11102 ****        25.0000   9.5000  27.5000 Du        
  11103 ****        25.0000   9.5000  27.7500 Du        
  11104 ****        25.0000   9.7500  27.5000 Du        
  11105 ****        25.0000  10.0000  27.0000 Du        
  11106 ****        25.0000  10.0000  27.2500 Du        
  11107 ****        25.0000  10.2500  27.0000 Du        
  11108 ****        25.0000  13.0000  33.7500 Du        
  11109 ****        25.0000  13.2500  33.5000 Du        
  11110 ****        25.0000  13.2500  33.7500 Du        
  11111 ****        25.0000  13.5000  33.2500 Du        
  11112 ****        25.0000  13.5000  33.5000 Du        
  11113 ****        25.0000  13.5000  33.7500 Du        
  11114 ****        25.0000  13.7500  33.2500 Du        
  11115 ****        25.0000  13.7500  33.5000 Du        
  11116 ****        25.0000  13.7500  33.7500 Du        
  11117 ****        25.0000  14.0000  33.0000 Du        
  11118 ****        25.0000  14.0000  33.2500 Du        
  11119 ****        25.0000  14.0000  33.5000 Du        
  11120 ****        25.0000  14.0000  33.7500 Du        
  11121 ****        25.0000  14.2500  33.0000 Du        
  11122 ****        25.0000  14.2500  33.2500 Du        
  11123 ****        25.0000  14.2500  33.5000 Du        
  11124 ****        25.0000  14.2500  33.7500 Du        
  11125 ****        25.0000  14.2500  34.0000 Du        
  11126 ****        25.0000  14.5000  32.7500 Du        
  11127 ****        25.0000  14.5000  33.0000 Du        
  11128 ****        25.0000  14.5000  33.2500 Du        
  11129 ****        25.0000  14.5000  33.5000 Du        
  11130 ****        25.0000  14.5000  33.7500 Du        
  11131 ****        25.0000  14.5000  34.0000 Du        
  11132 ****        25.0000  14.7500  32.5000 Du        
  11133 ****        25.0000  14.7500  32.7500 Du        
  11134 ****        25.0000  14.7500  33.0000 Du        
  11135 ****        25.0000  14.7500  33.2500 Du        
  11136 ****        25.0000  14.7500  33.5000 Du        
  11137 ****        25.0000  14.7500  33.7500 Du        
  11138 ****        25.0000  14.7500  34.0000 Du        
  11139 ****        25.0000  15.0000  32.5000 Du        
  11140 ****        25.0000  15.0000  32.7500 Du        
  11141 ****        25.0000  15.0000  33.0000 Du        
  11142 ****        25.0000  15.0000  33.2500 Du        
  11143 ****        25.0000  15.0000  33.5000 Du        
  11144 ****        25.0000  15.0000  33.7500 Du        
  11145 ****        25.0000  15.0000  34.0000 Du        
  11146 ****        25.0000  15.2500  32.5000 Du        
  11147 ****        25.0000  15.2500  32.7500 Du        
  11148 ****        25.0000  15.2500  33.0000 Du        
  11149 ****        25.0000  15.2500  33.2500 Du        
  11150 ****        25.0000  15.2500  33.5000 Du        
  11151 ****        25.0000  15.2500  33.7500 Du        
  11152 ****        25.0000  15.2500  34.0000 Du        
  11153 ****        25.0000  15.5000  32.5000 Du        
  11154 ****        25.0000  15.5000  32.7500 Du        
  11155 ****        25.0000  15.5000  33.0000 Du        
  11156 ****        25.0000  15.5000  33.2500 Du        
  11157 ****        25.0000  15.5000  33.5000 Du        
  11158 ****        25.0000  15.5000  33.7500 Du        
  11159 ****        25.0000  15.5000  34.0000 Du        
  11160 ****        25.0000  15.7500  32.5000 Du        
  11161 ****        25.0000  15.7500  32.7500 Du        
  11162 ****        25.0000  15.7500  33.0000 Du        
  11163 ****        25.0000  15.7500  33.2500 Du        
  11164 ****        25.0000  15.7500  33.5000 Du        
  11165 ****        25.0000  15.7500  33.7500 Du        
  11166 ****        25.0000  15.7500  34.0000 Du        
  11167 ****        25.0000  15.7500  34.2500 Du        
  11168 ****        25.0000  16.0000  32.2500 Du        
  11169 ****        25.0000  16.0000  32.5000 Du        
  11170 ****        25.0000  16.0000  32.7500 Du        
  11171 ****        25.0000  16.0000  33.0000 Du        
  11172 ****        25.0000  16.0000  33.2500 Du        
  11173 ****        25.0000  16.0000  33.5000 Du        
  11174 ****        25.0000  16.0000  33.7500 Du        
  11175 ****        25.0000  16.0000  34.0000 Du        
  11176 ****        25.0000  16.2500  32.2500 Du        
  11177 ****        25.0000  16.2500  32.5000 Du        
  11178 ****        25.0000  16.2500  32.7500 Du        
  11179 ****        25.0000  16.2500  33.0000 Du        
  11180 ****        25.0000  16.2500  33.2500 Du        
  11181 ****        25.0000  16.2500  33.5000 Du        
  11182 ****        25.0000  16.2500  33.7500 Du        
  11183 ****        25.0000  16.2500  34.0000 Du        
  11184 ****        25.0000  16.5000  32.0000 Du        
  11185 ****        25.0000  16.5000  32.2500 Du        
  11186 ****        25.0000  16.5000  32.5000 Du        
  11187 ****        25.0000  16.5000  32.7500 Du        
  11188 ****        25.0000  16.5000  33.0000 Du        
  11189 ****        25.0000  16.5000  33.2500 Du        
  11190 ****        25.0000  16.5000  33.5000 Du        
  11191 ****        25.0000  16.7500  32.0000 Du        
  11192 ****        25.0000  16.7500  32.2500 Du        
  11193 ****        25.0000  16.7500  32.5000 Du        
  11194 ****        25.0000  16.7500  32.7500 Du        
  11195 ****        25.0000  16.7500  33.0000 Du        
  11196 ****        25.0000  16.7500  33.2500 Du        
  11197 ****        25.0000  16.7500  33.5000 Du        
  11198 ****        25.0000  16.7500  33.7500 Du        
  11199 ****        25.0000  17.0000  32.0000 Du        
  11200 ****        25.0000  17.0000  32.2500 Du        
  11201 ****        25.0000  17.0000  32.5000 Du        
  11202 ****        25.0000  17.0000  32.7500 Du        
  11203 ****        25.0000  17.0000  33.0000 Du        
  11204 ****        25.0000  17.0000  33.2500 Du        
  11205 ****        25.0000  17.0000  33.5000 Du        
  11206 ****        25.0000  17.0000  33.7500 Du        
  11207 ****        25.0000  17.2500  28.7500 Du        
  11208 ****        25.0000  17.2500  29.0000 Du        
  11209 ****        25.0000  17.2500  31.7500 Du        
  11210 ****        25.0000  17.2500  32.0000 Du        
  11211 ****        25.0000  17.2500  32.2500 Du        
  11212 ****        25.0000  17.2500  32.5000 Du        
  11213 ****        25.0000  17.2500  32.7500 Du        
  11214 ****        25.0000  17.2500  33.0000 Du        
  11215 ****        25.0000  17.2500  33.2500 Du        
  11216 ****        25.0000  17.2500  33.5000 Du        
  11217 ****        25.0000  17.2500  33.7500 Du        
  11218 ****        25.0000  17.2500  34.0000 Du        
  11219 ****        25.0000  17.5000  28.5000 Du        
  11220 ****        25.0000  17.5000  28.7500 Du        
  11221 ****        25.0000  17.5000  29.0000 Du        
  11222 ****        25.0000  17.5000  29.2500 Du        
  11223 ****        25.0000  17.5000  29.5000 Du        
  11224 ****        25.0000  17.5000  29.7500 Du        
  11225 ****        25.0000  17.5000  30.0000 Du        
  11226 ****        25.0000  17.5000  30.2500 Du        
  11227 ****        25.0000  17.5000  31.0000 Du        
  11228 ****        25.0000  17.5000  31.2500 Du        
  11229 ****        25.0000  17.5000  32.0000 Du        
  11230 ****        25.0000  17.5000  32.2500 Du        
  11231 ****        25.0000  17.5000  32.5000 Du        
  11232 ****        25.0000  17.5000  32.7500 Du        
  11233 ****        25.0000  17.5000  33.0000 Du        
  11234 ****        25.0000  17.5000  33.2500 Du        
  11235 ****        25.0000  17.5000  33.5000 Du        
  11236 ****        25.0000  17.5000  33.7500 Du        
  11237 ****        25.0000  17.5000  34.0000 Du        
  11238 ****        25.0000  17.7500  28.5000 Du        
  11239 ****        25.0000  17.7500  28.7500 Du        
  11240 ****        25.0000  17.7500  29.0000 Du        
  11241 ****        25.0000  17.7500  29.2500 Du        
  11242 ****        25.0000  17.7500  29.5000 Du        
  11243 ****        25.0000  17.7500  29.7500 Du        
  11244 ****        25.0000  17.7500  30.0000 Du        
  11245 ****        25.0000  17.7500  30.2500 Du        
  11246 ****        25.0000  17.7500  30.5000 Du        
  11247 ****        25.0000  17.7500  30.7500 Du        
  11248 ****        25.0000  17.7500  31.0000 Du        
  11249 ****        25.0000  18.0000  28.5000 Du        
  11250 ****        25.0000  18.0000  28.7500 Du        
  11251 ****        25.0000  18.0000  29.0000 Du        
  11252 ****        25.0000  18.0000  29.2500 Du        
  11253 ****        25.0000  18.0000  29.5000 Du        
  11254 ****        25.0000  18.0000  29.7500 Du        
  11255 ****        25.0000  18.0000  30.0000 Du        
  11256 ****        25.0000  18.0000  30.2500 Du        
  11257 ****        25.0000  18.0000  30.5000 Du        
  11258 ****        25.0000  18.0000  30.7500 Du        
  11259 ****        25.0000  18.0000  31.0000 Du        
  11260 ****        25.0000  18.2500  28.5000 Du        
  11261 ****        25.0000  18.2500  28.7500 Du        
  11262 ****        25.0000  18.2500  29.0000 Du        
  11263 ****        25.0000  18.2500  29.2500 Du        
  11264 ****        25.0000  18.2500  29.5000 Du        
  11265 ****        25.0000  18.2500  29.7500 Du        
  11266 ****        25.0000  18.2500  30.0000 Du        
  11267 ****        25.0000  18.2500  30.2500 Du        
  11268 ****        25.0000  18.2500  30.5000 Du        
  11269 ****        25.0000  18.2500  30.7500 Du        
  11270 ****        25.0000  18.2500  31.0000 Du        
  11271 ****        25.0000  18.2500  31.2500 Du        
  11272 ****        25.0000  18.2500  31.5000 Du        
  11273 ****        25.0000  18.5000  28.7500 Du        
  11274 ****        25.0000  18.5000  29.0000 Du        
  11275 ****        25.0000  18.5000  29.2500 Du        
  11276 ****        25.0000  18.5000  29.5000 Du        
  11277 ****        25.0000  18.5000  29.7500 Du        
  11278 ****        25.0000  18.5000  30.0000 Du        
  11279 ****        25.0000  18.5000  30.2500 Du        
  11280 ****        25.0000  18.5000  30.5000 Du        
  11281 ****        25.0000  18.5000  30.7500 Du        
  11282 ****        25.0000  18.5000  31.0000 Du        
  11283 ****        25.0000  18.5000  31.2500 Du        
  11284 ****        25.0000  18.7500  29.0000 Du        
  11285 ****        25.0000  18.7500  29.2500 Du        
  11286 ****        25.0000  18.7500  29.5000 Du        
  11287 ****        25.0000  18.7500  29.7500 Du        
  11288 ****        25.0000  18.7500  30.0000 Du        
  11289 ****        25.0000  18.7500  30.2500 Du        
  11290 ****        25.0000  18.7500  30.5000 Du        
  11291 ****        25.0000  18.7500  30.7500 Du        
  11292 ****        25.0000  18.7500  31.0000 Du        
  11293 ****        25.0000  18.7500  31.2500 Du        
  11294 ****        25.0000  18.7500  31.7500 Du        
  11295 ****        25.0000  18.7500  32.0000 Du        
  11296 ****        25.0000  19.0000  29.2500 Du        
  11297 ****        25.0000  19.0000  29.5000 Du        
  11298 ****        25.0000  19.0000  29.7500 Du        
  11299 ****        25.0000  19.0000  30.0000 Du        
  11300 ****        25.0000  19.0000  30.2500 Du        
  11301 ****        25.0000  19.0000  30.5000 Du        
  11302 ****        25.0000  19.0000  30.7500 Du        
  11303 ****        25.0000  19.0000  31.0000 Du        
  11304 ****        25.0000  19.0000  31.2500 Du        
  11305 ****        25.0000  19.0000  31.5000 Du        
  11306 ****        25.0000  19.0000  31.7500 Du        
  11307 ****        25.0000  19.0000  32.0000 Du        
  11308 ****        25.0000  19.2500  29.5000 Du        
  11309 ****        25.0000  19.2500  29.7500 Du        
  11310 ****        25.0000  19.2500  30.0000 Du        
  11311 ****        25.0000  19.2500  30.2500 Du        
  11312 ****        25.0000  19.2500  30.5000 Du        
  11313 ****        25.0000  19.2500  30.7500 Du        
  11314 ****        25.0000  19.2500  31.0000 Du        
  11315 ****        25.0000  19.2500  31.2500 Du        
  11316 ****        25.0000  19.5000  29.7500 Du        
  11317 ****        25.0000  19.5000  30.0000 Du        
  11318 ****        25.0000  19.5000  30.2500 Du        
  11319 ****        25.0000  19.5000  30.5000 Du        
  11320 ****        25.0000  19.5000  30.7500 Du        
  11321 ****        25.0000  19.5000  31.0000 Du        
  11322 ****        25.0000  19.5000  31.2500 Du        
  11323 ****        25.0000  19.7500  29.7500 Du        
  11324 ****        25.0000  19.7500  30.0000 Du        
  11325 ****        25.0000  19.7500  30.2500 Du        
  11326 ****        25.0000  19.7500  30.5000 Du        
  11327 ****        25.0000  19.7500  30.7500 Du        
  11328 ****        25.0000  19.7500  31.0000 Du        
  11329 ****        25.0000  19.7500  31.2500 Du        
  11330 ****        25.0000  20.0000  29.7500 Du        
  11331 ****        25.0000  20.0000  30.0000 Du        
  11332 ****        25.0000  20.0000  30.2500 Du        
  11333 ****        25.0000  20.0000  30.5000 Du        
  11334 ****        25.0000  20.0000  30.7500 Du        
  11335 ****        25.0000  20.0000  31.0000 Du        
  11336 ****        25.0000  20.2500  30.0000 Du        
  11337 ****        25.0000  20.2500  30.2500 Du        
  11338 ****        25.0000  20.2500  30.5000 Du        
  11339 ****        25.0000  20.5000  30.0000 Du        
  11340 ****        25.0000  20.5000  30.2500 Du        
  11341 ****        25.0000  20.7500  30.0000 Du        
  11342 ****        25.0000  21.0000  30.0000 Du        
  11343 ****        25.0000  22.2500  29.5000 Du        
  11344 ****        25.0000  22.5000  29.2500 Du        
  11345 ****        25.0000  22.5000  29.5000 Du        
  11346 ****        25.0000  22.7500  29.5000 Du        
  11347 ****        25.0000  23.0000  29.5000 Du        
  11348 ****        25.0000  23.7500  29.7500 Du        
  11349 ****        25.0000  24.0000  29.7500 Du        
  11350 ****        25.0000  24.0000  30.0000 Du        
  11351 ****        25.0000  24.2500  30.0000 Du        
  11352 ****        25.2500   8.0000  28.5000 Du        
  11353 ****        25.2500   8.0000  28.7500 Du        
  11354 ****        25.2500   8.2500  28.0000 Du        
  11355 ****        25.2500   8.2500  28.2500 Du        
  11356 ****        25.2500   8.2500  28.5000 Du        
  11357 ****        25.2500   8.2500  28.7500 Du        
  11358 ****        25.2500   8.2500  29.0000 Du        
  11359 ****        25.2500   8.5000  28.0000 Du        
  11360 ****        25.2500   8.5000  28.2500 Du        
  11361 ****        25.2500   8.5000  28.5000 Du        
  11362 ****        25.2500   8.5000  28.7500 Du        
  11363 ****        25.2500   8.7500  27.7500 Du        
  11364 ****        25.2500   8.7500  28.0000 Du        
  11365 ****        25.2500   8.7500  28.2500 Du        
  11366 ****        25.2500   8.7500  28.5000 Du        
  11367 ****        25.2500   9.0000  27.7500 Du        
  11368 ****        25.2500   9.0000  28.0000 Du        
  11369 ****        25.2500   9.0000  28.2500 Du        
  11370 ****        25.2500   9.2500  27.5000 Du        
  11371 ****        25.2500   9.2500  27.7500 Du        
  11372 ****        25.2500   9.2500  28.0000 Du        
  11373 ****        25.2500   9.5000  27.2500 Du        
  11374 ****        25.2500   9.5000  27.5000 Du        
  11375 ****        25.2500   9.5000  27.7500 Du        
  11376 ****        25.2500   9.7500  27.0000 Du        
  11377 ****        25.2500   9.7500  27.2500 Du        
  11378 ****        25.2500   9.7500  27.5000 Du        
  11379 ****        25.2500   9.7500  27.7500 Du        
  11380 ****        25.2500  10.0000  26.7500 Du        
  11381 ****        25.2500  10.0000  27.0000 Du        
  11382 ****        25.2500  10.0000  27.2500 Du        
  11383 ****        25.2500  10.0000  27.5000 Du        
  11384 ****        25.2500  10.0000  27.7500 Du        
  11385 ****        25.2500  10.2500  26.5000 Du        
  11386 ****        25.2500  10.2500  26.7500 Du        
  11387 ****        25.2500  10.2500  27.0000 Du        
  11388 ****        25.2500  10.2500  27.2500 Du        
  11389 ****        25.2500  10.2500  27.5000 Du        
  11390 ****        25.2500  10.5000  26.7500 Du        
  11391 ****        25.2500  10.5000  27.0000 Du        
  11392 ****        25.2500  12.7500  33.5000 Du        
  11393 ****        25.2500  12.7500  33.7500 Du        
  11394 ****        25.2500  13.0000  33.2500 Du        
  11395 ****        25.2500  13.0000  33.5000 Du        
  11396 ****        25.2500  13.0000  33.7500 Du        
  11397 ****        25.2500  13.2500  33.0000 Du        
  11398 ****        25.2500  13.2500  33.2500 Du        
  11399 ****        25.2500  13.2500  33.5000 Du        
  11400 ****        25.2500  13.2500  33.7500 Du        
  11401 ****        25.2500  13.5000  33.0000 Du        
  11402 ****        25.2500  13.5000  33.2500 Du        
  11403 ****        25.2500  13.5000  33.5000 Du        
  11404 ****        25.2500  13.5000  33.7500 Du        
  11405 ****        25.2500  13.7500  33.0000 Du        
  11406 ****        25.2500  13.7500  33.2500 Du        
  11407 ****        25.2500  13.7500  33.5000 Du        
  11408 ****        25.2500  13.7500  33.7500 Du        
  11409 ****        25.2500  14.0000  32.7500 Du        
  11410 ****        25.2500  14.0000  33.0000 Du        
  11411 ****        25.2500  14.0000  33.2500 Du        
  11412 ****        25.2500  14.0000  33.5000 Du        
  11413 ****        25.2500  14.0000  33.7500 Du        
  11414 ****        25.2500  14.2500  32.7500 Du        
  11415 ****        25.2500  14.2500  33.0000 Du        
  11416 ****        25.2500  14.2500  33.2500 Du        
  11417 ****        25.2500  14.2500  33.5000 Du        
  11418 ****        25.2500  14.2500  33.7500 Du        
  11419 ****        25.2500  14.2500  34.0000 Du        
  11420 ****        25.2500  14.5000  32.5000 Du        
  11421 ****        25.2500  14.5000  32.7500 Du        
  11422 ****        25.2500  14.5000  33.0000 Du        
  11423 ****        25.2500  14.5000  33.2500 Du        
  11424 ****        25.2500  14.5000  33.5000 Du        
  11425 ****        25.2500  14.5000  33.7500 Du        
  11426 ****        25.2500  14.5000  34.0000 Du        
  11427 ****        25.2500  14.7500  32.5000 Du        
  11428 ****        25.2500  14.7500  32.7500 Du        
  11429 ****        25.2500  14.7500  33.0000 Du        
  11430 ****        25.2500  14.7500  33.2500 Du        
  11431 ****        25.2500  14.7500  33.5000 Du        
  11432 ****        25.2500  14.7500  33.7500 Du        
  11433 ****        25.2500  14.7500  34.0000 Du        
  11434 ****        25.2500  15.0000  32.5000 Du        
  11435 ****        25.2500  15.0000  32.7500 Du        
  11436 ****        25.2500  15.0000  33.0000 Du        
  11437 ****        25.2500  15.0000  33.2500 Du        
  11438 ****        25.2500  15.0000  33.5000 Du        
  11439 ****        25.2500  15.0000  33.7500 Du        
  11440 ****        25.2500  15.0000  34.0000 Du        
  11441 ****        25.2500  15.2500  32.2500 Du        
  11442 ****        25.2500  15.2500  32.5000 Du        
  11443 ****        25.2500  15.2500  32.7500 Du        
  11444 ****        25.2500  15.2500  33.0000 Du        
  11445 ****        25.2500  15.2500  33.2500 Du        
  11446 ****        25.2500  15.2500  33.5000 Du        
  11447 ****        25.2500  15.2500  33.7500 Du        
  11448 ****        25.2500  15.2500  34.0000 Du        
  11449 ****        25.2500  15.2500  34.2500 Du        
  11450 ****        25.2500  15.5000  32.5000 Du        
  11451 ****        25.2500  15.5000  32.7500 Du        
  11452 ****        25.2500  15.5000  33.0000 Du        
  11453 ****        25.2500  15.5000  33.2500 Du        
  11454 ****        25.2500  15.5000  33.5000 Du        
  11455 ****        25.2500  15.5000  33.7500 Du        
  11456 ****        25.2500  15.5000  34.0000 Du        
  11457 ****        25.2500  15.5000  34.2500 Du        
  11458 ****        25.2500  15.7500  32.5000 Du        
  11459 ****        25.2500  15.7500  32.7500 Du        
  11460 ****        25.2500  15.7500  33.0000 Du        
  11461 ****        25.2500  15.7500  33.2500 Du        
  11462 ****        25.2500  15.7500  33.5000 Du        
  11463 ****        25.2500  15.7500  33.7500 Du        
  11464 ****        25.2500  15.7500  34.0000 Du        
  11465 ****        25.2500  15.7500  34.2500 Du        
  11466 ****        25.2500  16.0000  32.2500 Du        
  11467 ****        25.2500  16.0000  32.5000 Du        
  11468 ****        25.2500  16.0000  32.7500 Du        
  11469 ****        25.2500  16.0000  33.0000 Du        
  11470 ****        25.2500  16.0000  33.2500 Du        
  11471 ****        25.2500  16.0000  33.5000 Du        
  11472 ****        25.2500  16.0000  33.7500 Du        
  11473 ****        25.2500  16.0000  34.0000 Du        
  11474 ****        25.2500  16.0000  34.2500 Du        
  11475 ****        25.2500  16.2500  32.2500 Du        
  11476 ****        25.2500  16.2500  32.5000 Du        
  11477 ****        25.2500  16.2500  32.7500 Du        
  11478 ****        25.2500  16.2500  33.0000 Du        
  11479 ****        25.2500  16.2500  33.2500 Du        
  11480 ****        25.2500  16.2500  33.5000 Du        
  11481 ****        25.2500  16.2500  33.7500 Du        
  11482 ****        25.2500  16.2500  34.0000 Du        
  11483 ****        25.2500  16.2500  34.2500 Du        
  11484 ****        25.2500  16.5000  32.2500 Du        
  11485 ****        25.2500  16.5000  32.7500 Du        
  11486 ****        25.2500  16.5000  33.0000 Du        
  11487 ****        25.2500  16.5000  33.2500 Du        
  11488 ****        25.2500  16.7500  32.0000 Du        
  11489 ****        25.2500  16.7500  32.2500 Du        
  11490 ****        25.2500  16.7500  32.7500 Du        
  11491 ****        25.2500  16.7500  33.0000 Du        
  11492 ****        25.2500  16.7500  33.2500 Du        
  11493 ****        25.2500  17.0000  29.0000 Du        
  11494 ****        25.2500  17.0000  29.2500 Du        
  11495 ****        25.2500  17.0000  32.7500 Du        
  11496 ****        25.2500  17.0000  33.0000 Du        
  11497 ****        25.2500  17.0000  33.2500 Du        
  11498 ****        25.2500  17.0000  33.5000 Du        
  11499 ****        25.2500  17.2500  28.7500 Du        
  11500 ****        25.2500  17.2500  29.0000 Du        
  11501 ****        25.2500  17.2500  29.2500 Du        
  11502 ****        25.2500  17.2500  29.5000 Du        
  11503 ****        25.2500  17.2500  29.7500 Du        
  11504 ****        25.2500  17.2500  30.7500 Du        
  11505 ****        25.2500  17.2500  31.0000 Du        
  11506 ****        25.2500  17.2500  31.2500 Du        
  11507 ****        25.2500  17.2500  32.0000 Du        
  11508 ****        25.2500  17.2500  32.2500 Du        
  11509 ****        25.2500  17.2500  32.5000 Du        
  11510 ****        25.2500  17.2500  32.7500 Du        
  11511 ****        25.2500  17.2500  33.0000 Du        
  11512 ****        25.2500  17.2500  33.2500 Du        
  11513 ****        25.2500  17.2500  33.5000 Du        
  11514 ****        25.2500  17.2500  33.7500 Du        
  11515 ****        25.2500  17.5000  28.7500 Du        
  11516 ****        25.2500  17.5000  29.0000 Du        
  11517 ****        25.2500  17.5000  29.2500 Du        
  11518 ****        25.2500  17.5000  29.5000 Du        
  11519 ****        25.2500  17.5000  29.7500 Du        
  11520 ****        25.2500  17.5000  30.0000 Du        
  11521 ****        25.2500  17.5000  30.2500 Du        
  11522 ****        25.2500  17.5000  30.5000 Du        
  11523 ****        25.2500  17.5000  30.7500 Du        
  11524 ****        25.2500  17.5000  31.0000 Du        
  11525 ****        25.2500  17.5000  31.2500 Du        
  11526 ****        25.2500  17.5000  32.7500 Du        
  11527 ****        25.2500  17.5000  33.0000 Du        
  11528 ****        25.2500  17.5000  33.2500 Du        
  11529 ****        25.2500  17.5000  33.5000 Du        
  11530 ****        25.2500  17.5000  33.7500 Du        
  11531 ****        25.2500  17.5000  34.0000 Du        
  11532 ****        25.2500  17.7500  28.5000 Du        
  11533 ****        25.2500  17.7500  28.7500 Du        
  11534 ****        25.2500  17.7500  29.0000 Du        
  11535 ****        25.2500  17.7500  29.2500 Du        
  11536 ****        25.2500  17.7500  29.5000 Du        
  11537 ****        25.2500  17.7500  29.7500 Du        
  11538 ****        25.2500  17.7500  30.0000 Du        
  11539 ****        25.2500  17.7500  30.2500 Du        
  11540 ****        25.2500  17.7500  30.5000 Du        
  11541 ****        25.2500  17.7500  30.7500 Du        
  11542 ****        25.2500  17.7500  31.0000 Du        
  11543 ****        25.2500  18.0000  28.5000 Du        
  11544 ****        25.2500  18.0000  28.7500 Du        
  11545 ****        25.2500  18.0000  29.0000 Du        
  11546 ****        25.2500  18.0000  29.2500 Du        
  11547 ****        25.2500  18.0000  29.5000 Du        
  11548 ****        25.2500  18.0000  29.7500 Du        
  11549 ****        25.2500  18.0000  30.0000 Du        
  11550 ****        25.2500  18.0000  30.2500 Du        
  11551 ****        25.2500  18.0000  30.5000 Du        
  11552 ****        25.2500  18.0000  30.7500 Du        
  11553 ****        25.2500  18.0000  31.0000 Du        
  11554 ****        25.2500  18.2500  28.7500 Du        
  11555 ****        25.2500  18.2500  29.0000 Du        
  11556 ****        25.2500  18.2500  29.2500 Du        
  11557 ****        25.2500  18.2500  29.5000 Du        
  11558 ****        25.2500  18.2500  29.7500 Du        
  11559 ****        25.2500  18.2500  30.0000 Du        
  11560 ****        25.2500  18.2500  30.2500 Du        
  11561 ****        25.2500  18.2500  30.5000 Du        
  11562 ****        25.2500  18.2500  30.7500 Du        
  11563 ****        25.2500  18.2500  31.0000 Du        
  11564 ****        25.2500  18.2500  31.2500 Du        
  11565 ****        25.2500  18.5000  29.0000 Du        
  11566 ****        25.2500  18.5000  29.2500 Du        
  11567 ****        25.2500  18.5000  29.5000 Du        
  11568 ****        25.2500  18.5000  29.7500 Du        
  11569 ****        25.2500  18.5000  30.0000 Du        
  11570 ****        25.2500  18.5000  30.2500 Du        
  11571 ****        25.2500  18.5000  30.5000 Du        
  11572 ****        25.2500  18.5000  30.7500 Du        
  11573 ****        25.2500  18.5000  31.0000 Du        
  11574 ****        25.2500  18.5000  31.2500 Du        
  11575 ****        25.2500  18.7500  29.0000 Du        
  11576 ****        25.2500  18.7500  29.2500 Du        
  11577 ****        25.2500  18.7500  29.5000 Du        
  11578 ****        25.2500  18.7500  29.7500 Du        
  11579 ****        25.2500  18.7500  30.0000 Du        
  11580 ****        25.2500  18.7500  30.2500 Du        
  11581 ****        25.2500  18.7500  30.5000 Du        
  11582 ****        25.2500  18.7500  30.7500 Du        
  11583 ****        25.2500  18.7500  31.0000 Du        
  11584 ****        25.2500  18.7500  31.2500 Du        
  11585 ****        25.2500  19.0000  29.2500 Du        
  11586 ****        25.2500  19.0000  29.5000 Du        
  11587 ****        25.2500  19.0000  29.7500 Du        
  11588 ****        25.2500  19.0000  30.0000 Du        
  11589 ****        25.2500  19.0000  30.2500 Du        
  11590 ****        25.2500  19.0000  30.5000 Du        
  11591 ****        25.2500  19.0000  30.7500 Du        
  11592 ****        25.2500  19.0000  31.0000 Du        
  11593 ****        25.2500  19.0000  31.2500 Du        
  11594 ****        25.2500  19.2500  29.7500 Du        
  11595 ****        25.2500  19.2500  30.0000 Du        
  11596 ****        25.2500  19.2500  30.2500 Du        
  11597 ****        25.2500  19.2500  30.5000 Du        
  11598 ****        25.2500  19.2500  30.7500 Du        
  11599 ****        25.2500  19.2500  31.0000 Du        
  11600 ****        25.2500  19.5000  30.0000 Du        
  11601 ****        25.2500  19.5000  30.2500 Du        
  11602 ****        25.2500  19.5000  30.5000 Du        
  11603 ****        25.2500  19.5000  30.7500 Du        
  11604 ****        25.2500  19.5000  31.2500 Du        
  11605 ****        25.2500  19.7500  30.0000 Du        
  11606 ****        25.2500  19.7500  30.2500 Du        
  11607 ****        25.2500  19.7500  30.5000 Du        
  11608 ****        25.2500  19.7500  30.7500 Du        
  11609 ****        25.2500  19.7500  31.0000 Du        
  11610 ****        25.2500  20.0000  30.0000 Du        
  11611 ****        25.2500  20.0000  30.2500 Du        
  11612 ****        25.2500  20.0000  30.5000 Du        
  11613 ****        25.2500  20.0000  30.7500 Du        
  11614 ****        25.2500  20.0000  31.0000 Du        
  11615 ****        25.2500  20.2500  30.0000 Du        
  11616 ****        25.2500  20.2500  30.2500 Du        
  11617 ****        25.2500  20.2500  30.5000 Du        
  11618 ****        25.2500  20.5000  30.0000 Du        
  11619 ****        25.2500  20.5000  30.2500 Du        
  11620 ****        25.2500  20.7500  30.0000 Du        
  11621 ****        25.2500  20.7500  30.2500 Du        
  11622 ****        25.2500  21.0000  30.0000 Du        
  11623 ****        25.2500  22.0000  29.7500 Du        
  11624 ****        25.2500  22.2500  29.5000 Du        
  11625 ****        25.2500  22.2500  29.7500 Du        
  11626 ****        25.2500  22.5000  29.2500 Du        
  11627 ****        25.2500  22.5000  29.5000 Du        
  11628 ****        25.2500  22.5000  29.7500 Du        
  11629 ****        25.2500  22.7500  29.2500 Du        
  11630 ****        25.2500  22.7500  29.5000 Du        
  11631 ****        25.2500  22.7500  29.7500 Du        
  11632 ****        25.2500  23.0000  29.2500 Du        
  11633 ****        25.2500  23.0000  29.5000 Du        
  11634 ****        25.2500  23.0000  29.7500 Du        
  11635 ****        25.2500  23.2500  29.5000 Du        
  11636 ****        25.2500  23.2500  29.7500 Du        
  11637 ****        25.2500  23.5000  29.5000 Du        
  11638 ****        25.2500  23.5000  29.7500 Du        
  11639 ****        25.2500  23.5000  30.0000 Du        
  11640 ****        25.2500  23.7500  29.5000 Du        
  11641 ****        25.2500  23.7500  29.7500 Du        
  11642 ****        25.2500  23.7500  30.0000 Du        
  11643 ****        25.2500  24.0000  29.7500 Du        
  11644 ****        25.2500  24.0000  30.0000 Du        
  11645 ****        25.2500  24.0000  30.2500 Du        
  11646 ****        25.2500  24.2500  29.7500 Du        
  11647 ****        25.2500  24.2500  30.0000 Du        
  11648 ****        25.2500  24.2500  30.2500 Du        
  11649 ****        25.2500  24.5000  30.0000 Du        
  11650 ****        25.2500  24.5000  30.2500 Du        
  11651 ****        25.5000   8.0000  28.2500 Du        
  11652 ****        25.5000   8.0000  28.5000 Du        
  11653 ****        25.5000   8.0000  28.7500 Du        
  11654 ****        25.5000   8.2500  28.0000 Du        
  11655 ****        25.5000   8.2500  28.2500 Du        
  11656 ****        25.5000   8.2500  28.5000 Du        
  11657 ****        25.5000   8.2500  28.7500 Du        
  11658 ****        25.5000   8.2500  29.0000 Du        
  11659 ****        25.5000   8.5000  27.7500 Du        
  11660 ****        25.5000   8.5000  28.0000 Du        
  11661 ****        25.5000   8.5000  28.2500 Du        
  11662 ****        25.5000   8.5000  28.5000 Du        
  11663 ****        25.5000   8.5000  28.7500 Du        
  11664 ****        25.5000   8.5000  29.0000 Du        
  11665 ****        25.5000   8.7500  27.7500 Du        
  11666 ****        25.5000   8.7500  28.0000 Du        
  11667 ****        25.5000   8.7500  28.2500 Du        
  11668 ****        25.5000   8.7500  28.5000 Du        
  11669 ****        25.5000   8.7500  28.7500 Du        
  11670 ****        25.5000   9.0000  27.5000 Du        
  11671 ****        25.5000   9.0000  27.7500 Du        
  11672 ****        25.5000   9.0000  28.0000 Du        
  11673 ****        25.5000   9.0000  28.2500 Du        
  11674 ****        25.5000   9.2500  27.5000 Du        
  11675 ****        25.5000   9.2500  27.7500 Du        
  11676 ****        25.5000   9.2500  28.0000 Du        
  11677 ****        25.5000   9.2500  28.2500 Du        
  11678 ****        25.5000   9.5000  27.5000 Du        
  11679 ****        25.5000   9.5000  27.7500 Du        
  11680 ****        25.5000   9.5000  28.0000 Du        
  11681 ****        25.5000   9.7500  27.2500 Du        
  11682 ****        25.5000   9.7500  27.5000 Du        
  11683 ****        25.5000   9.7500  27.7500 Du        
  11684 ****        25.5000  10.0000  27.0000 Du        
  11685 ****        25.5000  10.0000  27.2500 Du        
  11686 ****        25.5000  10.0000  27.5000 Du        
  11687 ****        25.5000  10.2500  27.0000 Du        
  11688 ****        25.5000  10.2500  27.2500 Du        
  11689 ****        25.5000  12.7500  33.5000 Du        
  11690 ****        25.5000  12.7500  33.7500 Du        
  11691 ****        25.5000  13.0000  33.2500 Du        
  11692 ****        25.5000  13.0000  33.5000 Du        
  11693 ****        25.5000  13.0000  33.7500 Du        
  11694 ****        25.5000  13.2500  33.0000 Du        
  11695 ****        25.5000  13.2500  33.2500 Du        
  11696 ****        25.5000  13.2500  33.5000 Du        
  11697 ****        25.5000  13.2500  33.7500 Du        
  11698 ****        25.5000  13.5000  32.7500 Du        
  11699 ****        25.5000  13.5000  33.0000 Du        
  11700 ****        25.5000  13.5000  33.2500 Du        
  11701 ****        25.5000  13.5000  33.5000 Du        
  11702 ****        25.5000  13.5000  33.7500 Du        
  11703 ****        25.5000  13.7500  32.7500 Du        
  11704 ****        25.5000  13.7500  33.0000 Du        
  11705 ****        25.5000  13.7500  33.2500 Du        
  11706 ****        25.5000  13.7500  33.5000 Du        
  11707 ****        25.5000  13.7500  33.7500 Du        
  11708 ****        25.5000  14.0000  32.5000 Du        
  11709 ****        25.5000  14.0000  32.7500 Du        
  11710 ****        25.5000  14.0000  33.0000 Du        
  11711 ****        25.5000  14.0000  33.2500 Du        
  11712 ****        25.5000  14.0000  33.5000 Du        
  11713 ****        25.5000  14.0000  33.7500 Du        
  11714 ****        25.5000  14.2500  32.5000 Du        
  11715 ****        25.5000  14.2500  32.7500 Du        
  11716 ****        25.5000  14.2500  33.0000 Du        
  11717 ****        25.5000  14.2500  33.2500 Du        
  11718 ****        25.5000  14.2500  33.5000 Du        
  11719 ****        25.5000  14.2500  33.7500 Du        
  11720 ****        25.5000  14.5000  32.5000 Du        
  11721 ****        25.5000  14.5000  32.7500 Du        
  11722 ****        25.5000  14.5000  33.0000 Du        
  11723 ****        25.5000  14.5000  33.2500 Du        
  11724 ****        25.5000  14.5000  33.5000 Du        
  11725 ****        25.5000  14.5000  33.7500 Du        
  11726 ****        25.5000  14.7500  32.5000 Du        
  11727 ****        25.5000  14.7500  32.7500 Du        
  11728 ****        25.5000  14.7500  33.0000 Du        
  11729 ****        25.5000  14.7500  33.2500 Du        
  11730 ****        25.5000  14.7500  33.5000 Du        
  11731 ****        25.5000  14.7500  33.7500 Du        
  11732 ****        25.5000  15.0000  32.7500 Du        
  11733 ****        25.5000  15.0000  33.0000 Du        
  11734 ****        25.5000  15.0000  33.2500 Du        
  11735 ****        25.5000  15.0000  33.5000 Du        
  11736 ****        25.5000  15.0000  33.7500 Du        
  11737 ****        25.5000  15.0000  34.0000 Du        
  11738 ****        25.5000  15.2500  32.7500 Du        
  11739 ****        25.5000  15.2500  33.0000 Du        
  11740 ****        25.5000  15.2500  33.2500 Du        
  11741 ****        25.5000  15.2500  33.5000 Du        
  11742 ****        25.5000  15.2500  33.7500 Du        
  11743 ****        25.5000  15.2500  34.0000 Du        
  11744 ****        25.5000  17.0000  29.0000 Du        
  11745 ****        25.5000  17.0000  29.2500 Du        
  11746 ****        25.5000  17.0000  29.5000 Du        
  11747 ****        25.5000  17.0000  29.7500 Du        
  11748 ****        25.5000  17.2500  29.0000 Du        
  11749 ****        25.5000  17.2500  29.2500 Du        
  11750 ****        25.5000  17.2500  29.5000 Du        
  11751 ****        25.5000  17.2500  29.7500 Du        
  11752 ****        25.5000  17.2500  30.0000 Du        
  11753 ****        25.5000  17.2500  30.2500 Du        
  11754 ****        25.5000  17.5000  28.7500 Du        
  11755 ****        25.5000  17.5000  29.0000 Du        
  11756 ****        25.5000  17.5000  29.2500 Du        
  11757 ****        25.5000  17.5000  29.5000 Du        
  11758 ****        25.5000  17.5000  29.7500 Du        
  11759 ****        25.5000  17.5000  30.0000 Du        
  11760 ****        25.5000  17.5000  30.2500 Du        
  11761 ****        25.5000  17.7500  28.7500 Du        
  11762 ****        25.5000  17.7500  29.0000 Du        
  11763 ****        25.5000  17.7500  29.2500 Du        
  11764 ****        25.5000  17.7500  29.5000 Du        
  11765 ****        25.5000  17.7500  29.7500 Du        
  11766 ****        25.5000  17.7500  30.0000 Du        
  11767 ****        25.5000  17.7500  30.2500 Du        
  11768 ****        25.5000  17.7500  30.5000 Du        
  11769 ****        25.5000  18.0000  28.7500 Du        
  11770 ****        25.5000  18.0000  29.0000 Du        
  11771 ****        25.5000  18.0000  29.2500 Du        
  11772 ****        25.5000  18.0000  29.5000 Du        
  11773 ****        25.5000  18.0000  29.7500 Du        
  11774 ****        25.5000  18.0000  30.0000 Du        
  11775 ****        25.5000  18.0000  30.2500 Du        
  11776 ****        25.5000  18.0000  30.5000 Du        
  11777 ****        25.5000  18.2500  29.0000 Du        
  11778 ****        25.5000  18.2500  29.2500 Du        
  11779 ****        25.5000  18.2500  29.5000 Du        
  11780 ****        25.5000  18.2500  29.7500 Du        
  11781 ****        25.5000  18.2500  30.0000 Du        
  11782 ****        25.5000  18.2500  30.2500 Du        
  11783 ****        25.5000  18.5000  29.2500 Du        
  11784 ****        25.5000  18.5000  29.5000 Du        
  11785 ****        25.5000  18.5000  29.7500 Du        
  11786 ****        25.5000  18.5000  30.0000 Du        
  11787 ****        25.5000  18.7500  29.7500 Du        
  11788 ****        25.5000  18.7500  30.0000 Du        
  11789 ****        25.5000  19.0000  30.0000 Du        
  11790 ****        25.5000  22.2500  29.7500 Du        
  11791 ****        25.5000  22.5000  29.5000 Du        
  11792 ****        25.5000  22.5000  29.7500 Du        
  11793 ****        25.5000  22.7500  29.2500 Du        
  11794 ****        25.5000  22.7500  29.5000 Du        
  11795 ****        25.5000  22.7500  29.7500 Du        
  11796 ****        25.5000  23.0000  29.2500 Du        
  11797 ****        25.5000  23.0000  29.5000 Du        
  11798 ****        25.5000  23.0000  29.7500 Du        
  11799 ****        25.5000  23.0000  30.0000 Du        
  11800 ****        25.5000  23.2500  29.5000 Du        
  11801 ****        25.5000  23.2500  29.7500 Du        
  11802 ****        25.5000  23.2500  30.0000 Du        
  11803 ****        25.5000  23.5000  29.5000 Du        
  11804 ****        25.5000  23.5000  29.7500 Du        
  11805 ****        25.5000  23.5000  30.0000 Du        
  11806 ****        25.5000  23.5000  30.2500 Du        
  11807 ****        25.5000  23.7500  29.5000 Du        
  11808 ****        25.5000  23.7500  29.7500 Du        
  11809 ****        25.5000  23.7500  30.0000 Du        
  11810 ****        25.5000  23.7500  30.2500 Du        
  11811 ****        25.5000  24.0000  29.7500 Du        
  11812 ****        25.5000  24.0000  30.0000 Du        
  11813 ****        25.5000  24.0000  30.2500 Du        
  11814 ****        25.5000  24.2500  29.7500 Du        
  11815 ****        25.5000  24.2500  30.0000 Du        
  11816 ****        25.5000  24.2500  30.2500 Du        
  11817 ****        25.5000  24.5000  30.0000 Du        
  11818 ****        25.7500   8.0000  28.0000 Du        
  11819 ****        25.7500   8.0000  28.2500 Du        
  11820 ****        25.7500   8.0000  28.5000 Du        
  11821 ****        25.7500   8.2500  27.7500 Du        
  11822 ****        25.7500   8.2500  28.0000 Du        
  11823 ****        25.7500   8.2500  28.2500 Du        
  11824 ****        25.7500   8.2500  28.5000 Du        
  11825 ****        25.7500   8.2500  28.7500 Du        
  11826 ****        25.7500   8.2500  29.0000 Du        
  11827 ****        25.7500   8.5000  27.7500 Du        
  11828 ****        25.7500   8.5000  28.0000 Du        
  11829 ****        25.7500   8.5000  28.2500 Du        
  11830 ****        25.7500   8.5000  28.5000 Du        
  11831 ****        25.7500   8.5000  28.7500 Du        
  11832 ****        25.7500   8.5000  29.0000 Du        
  11833 ****        25.7500   8.7500  27.7500 Du        
  11834 ****        25.7500   8.7500  28.0000 Du        
  11835 ****        25.7500   8.7500  28.2500 Du        
  11836 ****        25.7500   8.7500  28.5000 Du        
  11837 ****        25.7500   8.7500  28.7500 Du        
  11838 ****        25.7500   9.0000  27.7500 Du        
  11839 ****        25.7500   9.0000  28.0000 Du        
  11840 ****        25.7500   9.0000  28.2500 Du        
  11841 ****        25.7500   9.0000  28.5000 Du        
  11842 ****        25.7500   9.2500  28.0000 Du        
  11843 ****        25.7500   9.2500  28.2500 Du        
  11844 ****        25.7500  12.2500  33.5000 Du        
  11845 ****        25.7500  12.5000  33.5000 Du        
  11846 ****        25.7500  12.7500  33.0000 Du        
  11847 ****        25.7500  12.7500  33.2500 Du        
  11848 ****        25.7500  12.7500  33.5000 Du        
  11849 ****        25.7500  12.7500  33.7500 Du        
  11850 ****        25.7500  13.0000  33.0000 Du        
  11851 ****        25.7500  13.0000  33.2500 Du        
  11852 ****        25.7500  13.0000  33.5000 Du        
  11853 ****        25.7500  13.0000  33.7500 Du        
  11854 ****        25.7500  13.2500  33.0000 Du        
  11855 ****        25.7500  13.2500  33.2500 Du        
  11856 ****        25.7500  13.2500  33.5000 Du        
  11857 ****        25.7500  13.2500  33.7500 Du        
  11858 ****        25.7500  13.5000  32.7500 Du        
  11859 ****        25.7500  13.5000  33.0000 Du        
  11860 ****        25.7500  13.5000  33.2500 Du        
  11861 ****        25.7500  13.5000  33.5000 Du        
  11862 ****        25.7500  13.5000  33.7500 Du        
  11863 ****        25.7500  13.7500  32.7500 Du        
  11864 ****        25.7500  13.7500  33.0000 Du        
  11865 ****        25.7500  13.7500  33.2500 Du        
  11866 ****        25.7500  13.7500  33.5000 Du        
  11867 ****        25.7500  13.7500  33.7500 Du        
  11868 ****        25.7500  13.7500  34.0000 Du        
  11869 ****        25.7500  14.0000  32.5000 Du        
  11870 ****        25.7500  14.0000  32.7500 Du        
  11871 ****        25.7500  14.0000  33.0000 Du        
  11872 ****        25.7500  14.0000  33.2500 Du        
  11873 ****        25.7500  14.0000  33.5000 Du        
  11874 ****        25.7500  14.0000  33.7500 Du        
  11875 ****        25.7500  14.0000  34.0000 Du        
  11876 ****        25.7500  14.2500  32.5000 Du        
  11877 ****        25.7500  14.2500  32.7500 Du        
  11878 ****        25.7500  14.2500  33.0000 Du        
  11879 ****        25.7500  14.2500  33.2500 Du        
  11880 ****        25.7500  14.2500  33.5000 Du        
  11881 ****        25.7500  14.2500  33.7500 Du        
  11882 ****        25.7500  14.5000  32.7500 Du        
  11883 ****        25.7500  14.5000  33.0000 Du        
  11884 ****        25.7500  14.5000  33.2500 Du        
  11885 ****        25.7500  14.7500  32.7500 Du        
  11886 ****        25.7500  14.7500  33.0000 Du        
  11887 ****        25.7500  14.7500  33.2500 Du        
  11888 ****        25.7500  14.7500  33.7500 Du        
  11889 ****        25.7500  15.0000  33.0000 Du        
  11890 ****        25.7500  15.0000  33.2500 Du        
  11891 ****        25.7500  16.7500  29.2500 Du        
  11892 ****        25.7500  16.7500  29.5000 Du        
  11893 ****        25.7500  16.7500  29.7500 Du        
  11894 ****        25.7500  16.7500  30.0000 Du        
  11895 ****        25.7500  17.0000  29.2500 Du        
  11896 ****        25.7500  17.0000  29.5000 Du        
  11897 ****        25.7500  17.0000  29.7500 Du        
  11898 ****        25.7500  17.0000  30.0000 Du        
  11899 ****        25.7500  17.0000  30.2500 Du        
  11900 ****        25.7500  17.2500  29.0000 Du        
  11901 ****        25.7500  17.2500  29.2500 Du        
  11902 ****        25.7500  17.2500  29.5000 Du        
  11903 ****        25.7500  17.2500  29.7500 Du        
  11904 ****        25.7500  17.2500  30.0000 Du        
  11905 ****        25.7500  17.2500  30.2500 Du        
  11906 ****        25.7500  17.5000  29.0000 Du        
  11907 ****        25.7500  17.5000  29.2500 Du        
  11908 ****        25.7500  17.5000  29.5000 Du        
  11909 ****        25.7500  17.5000  29.7500 Du        
  11910 ****        25.7500  17.5000  30.0000 Du        
  11911 ****        25.7500  17.5000  30.2500 Du        
  11912 ****        25.7500  17.7500  29.0000 Du        
  11913 ****        25.7500  17.7500  29.2500 Du        
  11914 ****        25.7500  17.7500  29.5000 Du        
  11915 ****        25.7500  17.7500  29.7500 Du        
  11916 ****        25.7500  17.7500  30.0000 Du        
  11917 ****        25.7500  17.7500  30.2500 Du        
  11918 ****        25.7500  18.0000  29.0000 Du        
  11919 ****        25.7500  18.0000  29.2500 Du        
  11920 ****        25.7500  18.0000  29.5000 Du        
  11921 ****        25.7500  18.0000  29.7500 Du        
  11922 ****        25.7500  18.0000  30.0000 Du        
  11923 ****        25.7500  18.0000  30.2500 Du        
  11924 ****        25.7500  18.2500  29.0000 Du        
  11925 ****        25.7500  18.2500  29.2500 Du        
  11926 ****        25.7500  18.2500  29.5000 Du        
  11927 ****        25.7500  18.2500  29.7500 Du        
  11928 ****        25.7500  18.2500  30.0000 Du        
  11929 ****        25.7500  18.2500  30.2500 Du        
  11930 ****        25.7500  18.5000  29.2500 Du        
  11931 ****        25.7500  18.5000  29.7500 Du        
  11932 ****        25.7500  22.0000  30.0000 Du        
  11933 ****        25.7500  22.2500  29.7500 Du        
  11934 ****        25.7500  22.2500  30.0000 Du        
  11935 ****        25.7500  22.5000  29.7500 Du        
  11936 ****        25.7500  22.5000  30.0000 Du        
  11937 ****        25.7500  22.7500  29.5000 Du        
  11938 ****        25.7500  22.7500  29.7500 Du        
  11939 ****        25.7500  22.7500  30.0000 Du        
  11940 ****        25.7500  22.7500  30.2500 Du        
  11941 ****        25.7500  23.0000  29.5000 Du        
  11942 ****        25.7500  23.0000  29.7500 Du        
  11943 ****        25.7500  23.0000  30.0000 Du        
  11944 ****        25.7500  23.0000  30.2500 Du        
  11945 ****        25.7500  23.2500  29.5000 Du        
  11946 ****        25.7500  23.2500  29.7500 Du        
  11947 ****        25.7500  23.2500  30.0000 Du        
  11948 ****        25.7500  23.2500  30.2500 Du        
  11949 ****        25.7500  23.5000  29.5000 Du        
  11950 ****        25.7500  23.5000  29.7500 Du        
  11951 ****        25.7500  23.5000  30.0000 Du        
  11952 ****        25.7500  23.5000  30.2500 Du        
  11953 ****        25.7500  23.5000  30.5000 Du        
  11954 ****        25.7500  23.7500  29.5000 Du        
  11955 ****        25.7500  23.7500  29.7500 Du        
  11956 ****        25.7500  23.7500  30.0000 Du        
  11957 ****        25.7500  23.7500  30.2500 Du        
  11958 ****        25.7500  23.7500  30.5000 Du        
  11959 ****        25.7500  24.0000  29.7500 Du        
  11960 ****        25.7500  24.0000  30.0000 Du        
  11961 ****        25.7500  24.0000  30.2500 Du        
  11962 ****        25.7500  24.0000  30.5000 Du        
  11963 ****        25.7500  24.2500  29.7500 Du        
  11964 ****        25.7500  24.2500  30.0000 Du        
  11965 ****        25.7500  24.2500  30.2500 Du        
  11966 ****        26.0000   8.0000  28.2500 Du        
  11967 ****        26.0000   8.2500  28.0000 Du        
  11968 ****        26.0000   8.2500  28.2500 Du        
  11969 ****        26.0000   8.2500  28.5000 Du        
  11970 ****        26.0000   8.2500  28.7500 Du        
  11971 ****        26.0000   8.5000  28.0000 Du        
  11972 ****        26.0000   8.5000  28.2500 Du        
  11973 ****        26.0000   8.5000  28.5000 Du        
  11974 ****        26.0000   8.5000  28.7500 Du        
  11975 ****        26.0000   8.5000  29.0000 Du        
  11976 ****        26.0000   8.7500  28.2500 Du        
  11977 ****        26.0000   8.7500  28.5000 Du        
  11978 ****        26.0000   8.7500  28.7500 Du        
  11979 ****        26.0000   8.7500  29.0000 Du        
  11980 ****        26.0000   8.7500  32.0000 Du        
  11981 ****        26.0000   9.0000  28.5000 Du        
  11982 ****        26.0000   9.0000  28.7500 Du        
  11983 ****        26.0000  12.2500  33.5000 Du        
  11984 ****        26.0000  12.5000  33.5000 Du        
  11985 ****        26.0000  12.7500  33.0000 Du        
  11986 ****        26.0000  12.7500  33.2500 Du        
  11987 ****        26.0000  12.7500  33.5000 Du        
  11988 ****        26.0000  12.7500  33.7500 Du        
  11989 ****        26.0000  13.0000  33.0000 Du        
  11990 ****        26.0000  13.0000  33.2500 Du        
  11991 ****        26.0000  13.0000  33.5000 Du        
  11992 ****        26.0000  13.0000  33.7500 Du        
  11993 ****        26.0000  13.2500  33.0000 Du        
  11994 ****        26.0000  13.2500  33.2500 Du        
  11995 ****        26.0000  13.2500  33.5000 Du        
  11996 ****        26.0000  13.2500  33.7500 Du        
  11997 ****        26.0000  13.5000  33.2500 Du        
  11998 ****        26.0000  13.5000  33.5000 Du        
  11999 ****        26.0000  13.5000  33.7500 Du        
  12000 ****        26.0000  13.7500  32.7500 Du        
  12001 ****        26.0000  13.7500  33.5000 Du        
  12002 ****        26.0000  13.7500  33.7500 Du        
  12003 ****        26.0000  14.2500  33.0000 Du        
  12004 ****        26.0000  16.2500  30.0000 Du        
  12005 ****        26.0000  16.5000  29.7500 Du        
  12006 ****        26.0000  16.5000  30.0000 Du        
  12007 ****        26.0000  16.7500  29.5000 Du        
  12008 ****        26.0000  16.7500  29.7500 Du        
  12009 ****        26.0000  16.7500  30.0000 Du        
  12010 ****        26.0000  16.7500  30.2500 Du        
  12011 ****        26.0000  17.0000  29.2500 Du        
  12012 ****        26.0000  17.0000  29.5000 Du        
  12013 ****        26.0000  17.0000  29.7500 Du        
  12014 ****        26.0000  17.0000  30.0000 Du        
  12015 ****        26.0000  17.2500  29.2500 Du        
  12016 ****        26.0000  17.2500  29.5000 Du        
  12017 ****        26.0000  17.2500  29.7500 Du        
  12018 ****        26.0000  17.2500  30.0000 Du        
  12019 ****        26.0000  17.2500  30.2500 Du        
  12020 ****        26.0000  17.5000  29.2500 Du        
  12021 ****        26.0000  17.5000  29.5000 Du        
  12022 ****        26.0000  17.5000  29.7500 Du        
  12023 ****        26.0000  17.5000  30.0000 Du        
  12024 ****        26.0000  17.5000  30.2500 Du        
  12025 ****        26.0000  17.7500  29.0000 Du        
  12026 ****        26.0000  17.7500  29.2500 Du        
  12027 ****        26.0000  17.7500  29.5000 Du        
  12028 ****        26.0000  17.7500  29.7500 Du        
  12029 ****        26.0000  17.7500  30.0000 Du        
  12030 ****        26.0000  17.7500  30.2500 Du        
  12031 ****        26.0000  18.0000  29.0000 Du        
  12032 ****        26.0000  18.0000  29.2500 Du        
  12033 ****        26.0000  18.0000  29.5000 Du        
  12034 ****        26.0000  18.0000  29.7500 Du        
  12035 ****        26.0000  18.0000  30.0000 Du        
  12036 ****        26.0000  18.0000  30.2500 Du        
  12037 ****        26.0000  18.2500  29.2500 Du        
  12038 ****        26.0000  18.2500  29.5000 Du        
  12039 ****        26.0000  18.2500  29.7500 Du        
  12040 ****        26.0000  18.2500  30.0000 Du        
  12041 ****        26.0000  22.2500  30.2500 Du        
  12042 ****        26.0000  22.5000  30.0000 Du        
  12043 ****        26.0000  22.5000  30.2500 Du        
  12044 ****        26.0000  22.7500  30.0000 Du        
  12045 ****        26.0000  22.7500  30.2500 Du        
  12046 ****        26.0000  23.0000  30.0000 Du        
  12047 ****        26.0000  23.0000  30.2500 Du        
  12048 ****        26.0000  23.0000  30.5000 Du        
  12049 ****        26.0000  23.2500  30.0000 Du        
  12050 ****        26.0000  23.2500  30.2500 Du        
  12051 ****        26.0000  23.2500  30.5000 Du        
  12052 ****        26.0000  23.5000  29.7500 Du        
  12053 ****        26.0000  23.5000  30.0000 Du        
  12054 ****        26.0000  23.5000  30.2500 Du        
  12055 ****        26.0000  23.5000  30.5000 Du        
  12056 ****        26.0000  23.7500  30.0000 Du        
  12057 ****        26.0000  23.7500  30.2500 Du        
  12058 ****        26.0000  23.7500  30.5000 Du        
  12059 ****        26.0000  24.0000  30.0000 Du        
  12060 ****        26.0000  24.0000  30.2500 Du        
  12061 ****        26.2500  16.0000  30.2500 Du        
  12062 ****        26.2500  16.2500  30.2500 Du        
  12063 ****        26.2500  16.5000  30.2500 Du        
  12064 ****        26.2500  16.7500  29.7500 Du        
  12065 ****        26.2500  16.7500  30.0000 Du        
  12066 ****        26.2500  16.7500  30.2500 Du        
  12067 ****        26.2500  17.0000  29.7500 Du        
  12068 ****        26.2500  17.0000  30.0000 Du        
  12069 ****        26.2500  17.2500  29.5000 Du        
  12070 ****        26.2500  17.2500  29.7500 Du        
  12071 ****        26.2500  17.2500  30.0000 Du        
  12072 ****        26.2500  17.5000  29.2500 Du        
  12073 ****        26.2500  17.5000  29.5000 Du        
  12074 ****        26.2500  17.5000  29.7500 Du        
  12075 ****        26.2500  17.7500  29.2500 Du        
  12076 ****        26.2500  17.7500  29.5000 Du        
  12077 ****        26.2500  17.7500  29.7500 Du        
  12078 ****        26.2500  23.0000  30.7500 Du        
