#       Name:                CT1002167954
#       Creating user name   hitesit
#       Creation time:       Sun Apr 16 02:21:24 2023


#       File generated by GOLD software.
#

@<TRIPOS>MOLECULE
CT1002167954|ligand_prepared|mol2|1|dock4
    29    30     1
SMALL
NO_CHARGES


@<TRIPOS>ATOM
      1 C1          15.3183  14.9146  22.0288 C.3            1 RES1               0.0000
      2 C2          15.0847  16.1145  22.9692 C.ar           1 RES1               0.0000
      3 C3          14.0586  14.0571  22.1073 C.2            1 RES1               0.0000
      4 C4          15.5865  15.5011  20.6473 C.2            1 RES1               0.0000
      5 C5          16.5325  14.0407  22.4207 C.3            1 RES1               0.0000
      6 C6          15.0447  15.9363  24.3488 C.ar           1 RES1               0.0000
      7 C7          14.9105  17.4037  22.4729 C.ar           1 RES1               0.0000
      8 N8          13.2092  14.0829  21.0407 N.am           1 RES1               0.0000
      9 O9          13.7947  13.3991  23.1062 O.2            1 RES1               0.0000
     10 N10         14.6728  15.2541  19.6564 N.am           1 RES1               0.0000
     11 O11         16.5723  16.1889  20.4121 O.2            1 RES1               0.0000
     12 C12         16.6892  12.7911  21.5686 C.3            1 RES1               0.0000
     13 C13         14.8410  17.0084  25.2017 C.ar           1 RES1               0.0000
     14 C14         14.7066  18.4744  23.3276 C.ar           1 RES1               0.0000
     15 C15         13.4808  14.5973  19.7984 C.2            1 RES1               0.0000
     16 C16         14.6722  18.2781  24.6918 C.ar           1 RES1               0.0000
     17 O17         12.6862  14.4622  18.8724 O.2            1 RES1               0.0000
     18 H18         17.4445  14.6441  22.3338 H              1 RES1               0.0000
     19 H19         16.4276  13.7410  23.4708 H              1 RES1               0.0000
     20 H20         15.1731  14.9440  24.7683 H              1 RES1               0.0000
     21 H21         14.9327  17.5816  21.4031 H              1 RES1               0.0000
     22 H22         12.2868  13.6828  21.1795 H              1 RES1               0.0000
     23 H23         14.9025  15.5909  18.7268 H              1 RES1               0.0000
     24 H24         17.5556  12.2143  21.8854 H              1 RES1               0.0000
     25 H25         15.8102  12.1553  21.6511 H              1 RES1               0.0000
     26 H26         16.8210  13.0529  20.5207 H              1 RES1               0.0000
     27 H27         14.8134  16.8484  26.2745 H              1 RES1               0.0000
     28 H28         14.5737  19.4719  22.9218 H              1 RES1               0.0000
     29 H29         14.5130  19.1179  25.3601 H              1 RES1               0.0000
@<TRIPOS>BOND
    1    1    2 1     
    2    1    3 1     
    3    1    4 1     
    4    1    5 1     
    5    2    6 ar    
    6    2    7 ar    
    7    3    8 1     
    8    3    9 2     
    9    4   10 1     
   10    4   11 2     
   11    5   12 1     
   12    5   18 1     
   13    5   19 1     
   14    6   13 ar    
   15    6   20 1     
   16    7   14 ar    
   17    7   21 1     
   18    8   15 1     
   19    8   22 1     
   20   10   15 1     
   21   10   23 1     
   22   12   24 1     
   23   12   25 1     
   24   12   26 1     
   25   13   16 ar    
   26   13   27 1     
   27   14   16 ar    
   28   14   28 1     
   29   15   17 2     
   30   16   29 1     
@<TRIPOS>SUBSTRUCTURE
      1 RES1           1
@<TRIPOS>SET
DONOR_HYDROGENS      STATIC     ATOMS    <user>   **** ""
2 22 23
ATOM$RED        STATIC     ATOMS    COLORGROUP SYSTEM
2 22 23
@<TRIPOS>COMMENT
> <Gold.Version>
2022.3.0

> <Gold.Id.Protein>
unknown|3nnw_clean|pdb

> <Gold.Protein.RotatedTorsions>
[ 1705 1700 1698 1695 ] final   89.61 input   59.99 | X-H torsion
[  530  527  526  524 ] final   97.93 input   59.98 | X-H torsion
[ 1060 1053 1051 1048 ] final -155.93 input   60.02 | X-H torsion
[ 5171 5162 5161 5159 ] final   -3.43 input   60.02 | X-H torsion

> <Gold.Protein.ActiveResidues>
 TRP18   VAL30   TYR35   SER37   VAL38   CYS39   ALA40   VAL50   ALA51   VAL52  
 LYS53   LYS54   LEU55   ILE63   HIS64   LYS66   ARG67   THR68   TYR69   ARG70  
 GLU71   LEU72   ARG73   LEU74   LEU75   LYS76   HIS77   MET78   ASN82   VAL83  
 ILE84   GLY85   LEU86   LEU87   ASP88   VAL89   VAL102  TYR103  LEU104  VAL105 
 THR106  HIS107  LEU108  MET109  LEU138  TYR140  ILE141  HIS142  ALA144  ILE146 
 ILE147  HIS148  ARG149  ASP150  LEU151  SER154  ASN155  LEU156  ALA157  LYS165 
 ILE166  LEU167  ASP168  PHE169  GLY170  LEU171  ALA172  HIS174  ASP205  TYR323 
 PHE327  GLU328 

> <Gold.Protein.RotatedAtoms>
   15.4139   26.4783   31.1213 H   0  0  0  0  0  0  0  0  0  0  0  0  # atno 530  bound_to 527 
    8.6523   20.4106   34.6776 H   0  0  0  0  0  0  0  0  0  0  0  0  # atno 1060 bound_to 1053
   17.5423    6.5499   29.4430 H   0  0  0  0  0  0  0  0  0  0  0  0  # atno 1705 bound_to 1700
    6.9181   17.9036   21.7098 H   0  0  0  0  0  0  0  0  0  0  0  0  # atno 5171 bound_to 5162
   16.7187    6.8940   30.8034 LP  0  0  0  0  0  0  0  0  0  0  0  0  # atno 5667 bound_to 1700
   17.0629    8.0776   29.7322 LP  0  0  0  0  0  0  0  0  0  0  0  0  # atno 5668 bound_to 1700
   16.9817   26.8090   31.4052 LP  0  0  0  0  0  0  0  0  0  0  0  0  # atno 5712 bound_to 527 
   15.8390   27.2784   32.4731 LP  0  0  0  0  0  0  0  0  0  0  0  0  # atno 5713 bound_to 527 

> <Gold.Score>
     Fitness  S(hb_ext) S(vdw_ext)  S(hb_int)    S(int)      intcor
     35.56       0.00      27.70       0.00      -2.53      -0.76

> <Gold.Goldscore.Fitness>
35.5571

> <Gold.Goldscore.Internal.Vdw>
-2.8757

> <Gold.Goldscore.Internal.Torsion>
-0.4109

> <Gold.Goldscore.External.Vdw>
27.6984

> <Gold.Goldscore.Internal.HBond>
0.0000

> <Gold.Goldscore.External.HBond>
0.0000

> <Gold.Goldscore.Internal.Correction>
-0.7585

> <Gold.Goldscore.Internal.Vdw.Weighted>
-2.8757

> <Gold.Goldscore.Internal.Torsion.Weighted>
-0.4109

> <Gold.Goldscore.External.Vdw.Weighted>
38.0852

> <Gold.Goldscore.Internal.HBond.Weighted>
0.0000

> <Gold.Goldscore.External.HBond.Weighted>
0.0000

> <Gold.Goldscore.Internal.Correction.Weighted>
-0.7585

> <Gold.Rescore>
     Score     S(PLP)   S(hbond)     S(cho)   S(metal)  DE(clash)   DE(tors)     intcor
     31.67     -33.32       0.00       0.00       0.00       1.28       0.18       ----

> <Gold.PLP.Fitness>
31.6724

> <Gold.PLP.PLP>
-33.3196

> <Gold.PLP.part.hbond>
0.0000

> <Gold.PLP.part.metal>
0.0000

> <Gold.PLP.part.buried>
-0.7127

> <Gold.PLP.part.nonpolar>
-34.3866

> <Gold.PLP.part.repulsive>
0.1806

> <Gold.PLP.ligand.clash>
1.2787

> <Gold.PLP.ligand.torsion>
0.1843

> <Gold.PLP.Chemscore.Hbond>
0.0000

> <Gold.PLP.Chemscore.CHOScore>
0.0000

> <Gold.PLP.Chemscore.Metal>
0.0000

> <Gold.PLP.Chemscore.Internal.Correction>
   9.000000E+99

