#       Name:                CT1002167954
#       Creating user name   hitesit
#       Creation time:       Sun Apr 16 02:21:25 2023


#       File generated by GOLD software.
#

@<TRIPOS>MOLECULE
CT1002167954|ligand_prepared|mol2|1|dock5
    29    30     1
SMALL
NO_CHARGES


@<TRIPOS>ATOM
      1 C1          15.8136  16.4119  22.5987 C.3            1 RES1               0.0000
      2 C2          15.8137  16.4689  24.1400 C.ar           1 RES1               0.0000
      3 C3          17.2338  16.0391  22.1836 C.2            1 RES1               0.0000
      4 C4          14.7608  15.3798  22.2101 C.2            1 RES1               0.0000
      5 C5          15.4405  17.7524  21.9239 C.3            1 RES1               0.0000
      6 C6          15.9719  15.3087  24.8920 C.ar           1 RES1               0.0000
      7 C7          15.6597  17.6726  24.8227 C.ar           1 RES1               0.0000
      8 N8          17.4469  14.7713  21.7285 N.am           1 RES1               0.0000
      9 O9          18.1602  16.8332  22.2913 O.2            1 RES1               0.0000
     10 N10         15.1842  14.2312  21.5942 N.am           1 RES1               0.0000
     11 O11         13.5702  15.5434  22.4467 O.2            1 RES1               0.0000
     12 C12         15.2278  17.6445  20.4221 C.3            1 RES1               0.0000
     13 C13         15.9788  15.3505  26.2764 C.ar           1 RES1               0.0000
     14 C14         15.6667  17.7121  26.2072 C.ar           1 RES1               0.0000
     15 C15         16.4827  13.8666  21.3635 C.2            1 RES1               0.0000
     16 C16         15.8267  16.5521  26.9349 C.ar           1 RES1               0.0000
     17 O17         16.7868  12.7920  20.8535 O.2            1 RES1               0.0000
     18 H18         14.5213  18.1355  22.3840 H              1 RES1               0.0000
     19 H19         16.2397  18.4789  22.1159 H              1 RES1               0.0000
     20 H20         16.0905  14.3536  24.3913 H              1 RES1               0.0000
     21 H21         15.5312  18.5976  24.2709 H              1 RES1               0.0000
     22 H22         18.4126  14.4678  21.6527 H              1 RES1               0.0000
     23 H23         14.4647  13.5887  21.2782 H              1 RES1               0.0000
     24 H24         14.9683  18.6126  19.9988 H              1 RES1               0.0000
     25 H25         16.1307  17.2900  19.9291 H              1 RES1               0.0000
     26 H26         14.4225  16.9487  20.1956 H              1 RES1               0.0000
     27 H27         16.1037  14.4346  26.8444 H              1 RES1               0.0000
     28 H28         15.5460  18.6599  26.7213 H              1 RES1               0.0000
     29 H29         15.8325  16.5846  28.0194 H              1 RES1               0.0000
@<TRIPOS>BOND
    1    1    2 1     
    2    1    3 1     
    3    1    4 1     
    4    1    5 1     
    5    2    6 ar    
    6    2    7 ar    
    7    3    8 1     
    8    3    9 2     
    9    4   10 1     
   10    4   11 2     
   11    5   12 1     
   12    5   18 1     
   13    5   19 1     
   14    6   13 ar    
   15    6   20 1     
   16    7   14 ar    
   17    7   21 1     
   18    8   15 1     
   19    8   22 1     
   20   10   15 1     
   21   10   23 1     
   22   12   24 1     
   23   12   25 1     
   24   12   26 1     
   25   13   16 ar    
   26   13   27 1     
   27   14   16 ar    
   28   14   28 1     
   29   15   17 2     
   30   16   29 1     
@<TRIPOS>SUBSTRUCTURE
      1 RES1           1
@<TRIPOS>SET
DONOR_HYDROGENS      STATIC     ATOMS    <user>   **** ""
2 22 23
ATOM$RED        STATIC     ATOMS    COLORGROUP SYSTEM
2 22 23
@<TRIPOS>COMMENT
> <Gold.Version>
2022.3.0

> <Gold.Id.Protein>
unknown|3nnw_clean|pdb

> <Gold.Protein.RotatedTorsions>
[ 1705 1700 1698 1695 ] final -144.19 input   59.99 | X-H torsion
[  530  527  526  524 ] final  125.44 input   59.98 | X-H torsion
[ 1060 1053 1051 1048 ] final    7.63 input   60.02 | X-H torsion
[ 5171 5162 5161 5159 ] final -145.99 input   60.02 | X-H torsion

> <Gold.Protein.ActiveResidues>
 TRP18   VAL30   TYR35   SER37   VAL38   CYS39   ALA40   VAL50   ALA51   VAL52  
 LYS53   LYS54   LEU55   ILE63   HIS64   LYS66   ARG67   THR68   TYR69   ARG70  
 GLU71   LEU72   ARG73   LEU74   LEU75   LYS76   HIS77   MET78   ASN82   VAL83  
 ILE84   GLY85   LEU86   LEU87   ASP88   VAL89   VAL102  TYR103  LEU104  VAL105 
 THR106  HIS107  LEU108  MET109  LEU138  TYR140  ILE141  HIS142  ALA144  ILE146 
 ILE147  HIS148  ARG149  ASP150  LEU151  SER154  ASN155  LEU156  ALA157  LYS165 
 ILE166  LEU167  ASP168  PHE169  GLY170  LEU171  ALA172  HIS174  ASP205  TYR323 
 PHE327  GLU328 

> <Gold.Protein.RotatedAtoms>
   15.1862   26.6449   31.4656 H   0  0  0  0  0  0  0  0  0  0  0  0  # atno 530  bound_to 527 
    9.6943   20.9497   33.2439 H   0  0  0  0  0  0  0  0  0  0  0  0  # atno 1060 bound_to 1053
   17.0101    8.0867   29.8189 H   0  0  0  0  0  0  0  0  0  0  0  0  # atno 1705 bound_to 1700
    7.4773   19.3280   20.8151 H   0  0  0  0  0  0  0  0  0  0  0  0  # atno 5171 bound_to 5162
   17.5664    6.6232   29.3765 LP  0  0  0  0  0  0  0  0  0  0  0  0  # atno 5667 bound_to 1700
   16.7513    6.8000   30.7804 LP  0  0  0  0  0  0  0  0  0  0  0  0  # atno 5668 bound_to 1700
   16.7648   26.6009   31.0728 LP  0  0  0  0  0  0  0  0  0  0  0  0  # atno 5712 bound_to 527 
   16.2851   27.3187   32.4588 LP  0  0  0  0  0  0  0  0  0  0  0  0  # atno 5713 bound_to 527 

> <Gold.Score>
     Fitness  S(hb_ext) S(vdw_ext)  S(hb_int)    S(int)      intcor
     33.33       0.00      24.48       0.00      -0.34      -0.76

> <Gold.Goldscore.Fitness>
33.3253

> <Gold.Goldscore.Internal.Vdw>
-0.6043

> <Gold.Goldscore.Internal.Torsion>
-0.4936

> <Gold.Goldscore.External.Vdw>
24.4834

> <Gold.Goldscore.Internal.HBond>
0.0000

> <Gold.Goldscore.External.HBond>
0.0000

> <Gold.Goldscore.Internal.Correction>
-0.7585

> <Gold.Goldscore.Internal.Vdw.Weighted>
-0.6043

> <Gold.Goldscore.Internal.Torsion.Weighted>
-0.4936

> <Gold.Goldscore.External.Vdw.Weighted>
33.6647

> <Gold.Goldscore.Internal.HBond.Weighted>
0.0000

> <Gold.Goldscore.External.HBond.Weighted>
0.0000

> <Gold.Goldscore.Internal.Correction.Weighted>
-0.7585

> <Gold.Rescore>
     Score     S(PLP)   S(hbond)     S(cho)   S(metal)  DE(clash)   DE(tors)     intcor
     22.95     -23.28       0.00       0.00       0.00       0.00       0.17       ----

> <Gold.PLP.Fitness>
22.9451

> <Gold.PLP.PLP>
-23.2845

> <Gold.PLP.part.hbond>
-0.5433

> <Gold.PLP.part.metal>
0.0000

> <Gold.PLP.part.buried>
5.9965

> <Gold.PLP.part.nonpolar>
-30.3418

> <Gold.PLP.part.repulsive>
1.2264

> <Gold.PLP.ligand.clash>
0.0000

> <Gold.PLP.ligand.torsion>
0.1697

> <Gold.PLP.Chemscore.Hbond>
0.0000

> <Gold.PLP.Chemscore.CHOScore>
0.0000

> <Gold.PLP.Chemscore.Metal>
0.0000

> <Gold.PLP.Chemscore.Internal.Correction>
   9.000000E+99

