#       Name:                CT1002167954
#       Creating user name   hitesit
#       Creation time:       Sun Apr 16 20:15:38 2023


#       File generated by GOLD software.
#

@<TRIPOS>MOLECULE
CT1002167954|ligand_prepared|mol2|1|dock3
    29    30     1
SMALL
NO_CHARGES


@<TRIPOS>ATOM
      1 C1          26.9128   9.4753  -3.5722 C.3            1 RES1               0.0000
      2 C2          26.9638   9.7132  -2.0491 C.ar           1 RES1               0.0000
      3 C3          26.8626   7.9628  -3.7681 C.2            1 RES1               0.0000
      4 C4          25.6756  10.2094  -4.0774 C.2            1 RES1               0.0000
      5 C5          28.1404  10.0286  -4.3325 C.3            1 RES1               0.0000
      6 C6          28.1844   9.8230  -1.3896 C.ar           1 RES1               0.0000
      7 C7          25.8010   9.8275  -1.2920 C.ar           1 RES1               0.0000
      8 N8          25.6740   7.4143  -4.1505 N.am           1 RES1               0.0000
      9 O9          27.8405   7.2577  -3.5519 O.2            1 RES1               0.0000
     10 N10         24.6501   9.4604  -4.5923 N.am           1 RES1               0.0000
     11 O11         25.5728  11.4285  -4.0189 O.2            1 RES1               0.0000
     12 C12         27.9251  10.1595  -5.8321 C.3            1 RES1               0.0000
     13 C13         28.2405  10.0421  -0.0232 C.ar           1 RES1               0.0000
     14 C14         25.8593  10.0464   0.0744 C.ar           1 RES1               0.0000
     15 C15         24.5805   8.0942  -4.6235 C.2            1 RES1               0.0000
     16 C16         27.0781  10.1544   0.7096 C.ar           1 RES1               0.0000
     17 O17         23.6007   7.4920  -5.0529 O.2            1 RES1               0.0000
     18 H18         28.3932  11.0151  -3.9247 H              1 RES1               0.0000
     19 H19         28.9947   9.3636  -4.1553 H              1 RES1               0.0000
     20 H20         29.1096   9.7349  -1.9493 H              1 RES1               0.0000
     21 H21         24.8309   9.7449  -1.7703 H              1 RES1               0.0000
     22 H22         25.5904   6.4053  -4.0781 H              1 RES1               0.0000
     23 H23         23.8661   9.9683  -4.9892 H              1 RES1               0.0000
     24 H24         28.8165  10.5518  -6.3170 H              1 RES1               0.0000
     25 H25         27.6964   9.1923  -6.2748 H              1 RES1               0.0000
     26 H26         27.0984  10.8339  -6.0455 H              1 RES1               0.0000
     27 H27         29.2022  10.1250   0.4722 H              1 RES1               0.0000
     28 H28         24.9420  10.1335   0.6473 H              1 RES1               0.0000
     29 H29         27.1223  10.3264   1.7800 H              1 RES1               0.0000
@<TRIPOS>BOND
    1    1    2 1     
    2    1    3 1     
    3    1    4 1     
    4    1    5 1     
    5    2    6 ar    
    6    2    7 ar    
    7    3    8 1     
    8    3    9 2     
    9    4   10 1     
   10    4   11 2     
   11    5   12 1     
   12    5   18 1     
   13    5   19 1     
   14    6   13 ar    
   15    6   20 1     
   16    7   14 ar    
   17    7   21 1     
   18    8   15 1     
   19    8   22 1     
   20   10   15 1     
   21   10   23 1     
   22   12   24 1     
   23   12   25 1     
   24   12   26 1     
   25   13   16 ar    
   26   13   27 1     
   27   14   16 ar    
   28   14   28 1     
   29   15   17 2     
   30   16   29 1     
@<TRIPOS>SUBSTRUCTURE
      1 RES1           1
@<TRIPOS>SET
DONOR_HYDROGENS      STATIC     ATOMS    <user>   **** ""
2 22 23
ATOM$RED        STATIC     ATOMS    COLORGROUP SYSTEM
2 22 23
@<TRIPOS>COMMENT
> <Gold.Version>
2022.3.0

> <Gold.Id.Protein>
unknown|3nx8_clean|pdb

> <Gold.Protein.RotatedTorsions>
[ 1751 1744 1743 1741 ] final -164.49 input   60.01 | X-H torsion
[ 2770 2763 2761 2758 ] final   71.83 input   60.01 | X-H torsion
[ 5056 5047 5046 5044 ] final   99.59 input   59.99 | X-H torsion

> <Gold.Protein.ActiveResidues>
 LEU49   GLY50   THR51   GLY52   ARG56   VAL57   MET58   LEU59   VAL60   HIS68  
 TYR69   ALA70   MET71   LYS72   LEU95   VAL104  LYS105  MET118  VAL119  MET120 
 GLU121  TYR122  VAL123  PRO124  GLY125  GLY126  GLU127  GLU170  ASN171  LEU173 
 ILE174  GLN181  VAL182  THR183  ASP184  PHE327  TYR330 

> <Gold.Protein.RotatedAtoms>
   35.6465   11.7462  -11.4064 H   0  0  0  0  0  0  0  0  0  0  0  0  # atno 1751 bound_to 1744
   30.4802    8.3737    0.9632 H   0  0  0  0  0  0  0  0  0  0  0  0  # atno 2770 bound_to 2763
   23.1068   10.1404   -8.5067 H   0  0  0  0  0  0  0  0  0  0  0  0  # atno 5056 bound_to 5047
   34.3656   12.6640  -11.0000 LP  0  0  0  0  0  0  0  0  0  0  0  0  # atno 5370 bound_to 1744
   34.3359   11.0528  -10.7357 LP  0  0  0  0  0  0  0  0  0  0  0  0  # atno 5371 bound_to 1744
   28.8681    8.1769    1.0711 LP  0  0  0  0  0  0  0  0  0  0  0  0  # atno 5378 bound_to 2763
   29.5335    8.7460   -0.3073 LP  0  0  0  0  0  0  0  0  0  0  0  0  # atno 5379 bound_to 2763

> <Gold.Score>
     Fitness  S(hb_ext) S(vdw_ext)  S(hb_int)    S(int)      intcor
     41.41       1.60      29.50       0.00      -0.75      -0.77

> <Gold.Goldscore.Fitness>
41.4086

> <Gold.Goldscore.Internal.Vdw>
-0.7419

> <Gold.Goldscore.Internal.Torsion>
-0.7763

> <Gold.Goldscore.External.Vdw>
29.5017

> <Gold.Goldscore.Internal.HBond>
0.0000

> <Gold.Goldscore.External.HBond>
1.5967

> <Gold.Goldscore.Internal.Correction>
-0.7653

> <Gold.Goldscore.Hbonds>
donor molecule, donor type, donor heavy atom, donor atom, acceptor molecule, acceptor atom, score
      L1  H     8    22       P1  2555  0.80

> <Gold.Goldscore.Internal.Vdw.Weighted>
-0.7419

> <Gold.Goldscore.Internal.Torsion.Weighted>
-0.7763

> <Gold.Goldscore.External.Vdw.Weighted>
40.5648

> <Gold.Goldscore.Internal.HBond.Weighted>
0.0000

> <Gold.Goldscore.External.HBond.Weighted>
1.5967

> <Gold.Goldscore.Internal.Correction.Weighted>
-0.7653

> <Gold.Rescore>
     Score     S(PLP)   S(hbond)     S(cho)   S(metal)  DE(clash)   DE(tors)     intcor
     23.78     -22.52       1.12       0.00       0.00       0.00       1.05       ----

> <Gold.PLP.Fitness>
23.7791

> <Gold.PLP.PLP>
-22.5196

> <Gold.PLP.part.hbond>
-3.0000

> <Gold.PLP.part.metal>
0.0000

> <Gold.PLP.part.buried>
14.9002

> <Gold.PLP.part.nonpolar>
-37.6512

> <Gold.PLP.part.repulsive>
2.7896

> <Gold.PLP.ligand.clash>
0.0000

> <Gold.PLP.ligand.torsion>
1.0453

> <Gold.PLP.Chemscore.Hbond>
1.1167

> <Gold.PLP.Chemscore.CHOScore>
0.0000

> <Gold.PLP.Chemscore.Metal>
0.0000

> <Gold.Chemscore.Hbonds>
donor molecule, donor type, donor heavy atom, donor atom, acceptor molecule, acceptor atom, score
      L1  H     8    22       P1  2555  1.00
      L1  H    10    23       P1   541  0.12

> <Gold.PLP.Chemscore.Internal.Correction>
   9.000000E+99

