#       Name:                CT1002167954
#       Creating user name   hitesit
#       Creation time:       Sun Apr 16 20:15:44 2023


#       File generated by GOLD software.
#

@<TRIPOS>MOLECULE
CT1002167954|ligand_prepared|mol2|1|dock9
    29    30     1
SMALL
NO_CHARGES


@<TRIPOS>ATOM
      1 C1          28.1136   9.8575  -4.0066 C.3            1 RES1               0.0000
      2 C2          29.6225   9.9061  -3.6910 C.ar           1 RES1               0.0000
      3 C3          27.9021  10.7488  -5.2269 C.2            1 RES1               0.0000
      4 C4          27.7741   8.3898  -4.2420 C.2            1 RES1               0.0000
      5 C5          27.2179  10.3768  -2.8579 C.3            1 RES1               0.0000
      6 C6          30.0728   9.8645  -2.3749 C.ar           1 RES1               0.0000
      7 C7          30.5744   9.9899  -4.7036 C.ar           1 RES1               0.0000
      8 N8          27.6589  10.1374  -6.4214 N.am           1 RES1               0.0000
      9 O9          27.9867  11.9683  -5.1498 O.2            1 RES1               0.0000
     10 N10         27.3765   8.0163  -5.4990 N.am           1 RES1               0.0000
     11 O11         27.8633   7.5505  -3.3544 O.2            1 RES1               0.0000
     12 C12         25.7776  10.6345  -3.2719 C.3            1 RES1               0.0000
     13 C13         31.4260   9.9022  -2.0817 C.ar           1 RES1               0.0000
     14 C14         31.9272  10.0277  -4.4082 C.ar           1 RES1               0.0000
     15 C15         27.3331   8.8179  -6.6070 C.2            1 RES1               0.0000
     16 C16         32.3539   9.9833  -3.0980 C.ar           1 RES1               0.0000
     17 O17         27.0171   8.3964  -7.7159 O.2            1 RES1               0.0000
     18 H18         27.2251   9.6410  -2.0443 H              1 RES1               0.0000
     19 H19         27.6461  11.3094  -2.4703 H              1 RES1               0.0000
     20 H20         29.3572   9.8031  -1.5618 H              1 RES1               0.0000
     21 H21         30.2617  10.0271  -5.7416 H              1 RES1               0.0000
     22 H22         27.7255  10.7147  -7.2537 H              1 RES1               0.0000
     23 H23         27.0859   7.0513  -5.6199 H              1 RES1               0.0000
     24 H24         25.1930  10.9972  -2.4291 H              1 RES1               0.0000
     25 H25         25.7312  11.3804  -4.0626 H              1 RES1               0.0000
     26 H26         25.3127   9.7219  -3.6391 H              1 RES1               0.0000
     27 H27         31.7566   9.8684  -1.0489 H              1 RES1               0.0000
     28 H28         32.6540  10.0922  -5.2112 H              1 RES1               0.0000
     29 H29         33.4139  10.0124  -2.8681 H              1 RES1               0.0000
@<TRIPOS>BOND
    1    1    2 1     
    2    1    3 1     
    3    1    4 1     
    4    1    5 1     
    5    2    6 ar    
    6    2    7 ar    
    7    3    8 1     
    8    3    9 2     
    9    4   10 1     
   10    4   11 2     
   11    5   12 1     
   12    5   18 1     
   13    5   19 1     
   14    6   13 ar    
   15    6   20 1     
   16    7   14 ar    
   17    7   21 1     
   18    8   15 1     
   19    8   22 1     
   20   10   15 1     
   21   10   23 1     
   22   12   24 1     
   23   12   25 1     
   24   12   26 1     
   25   13   16 ar    
   26   13   27 1     
   27   14   16 ar    
   28   14   28 1     
   29   15   17 2     
   30   16   29 1     
@<TRIPOS>SUBSTRUCTURE
      1 RES1           1
@<TRIPOS>SET
DONOR_HYDROGENS      STATIC     ATOMS    <user>   **** ""
2 22 23
ATOM$RED        STATIC     ATOMS    COLORGROUP SYSTEM
2 22 23
@<TRIPOS>COMMENT
> <Gold.Version>
2022.3.0

> <Gold.Id.Protein>
unknown|3nx8_clean|pdb

> <Gold.Protein.RotatedTorsions>
[ 1751 1744 1743 1741 ] final   61.63 input   60.01 | X-H torsion
[ 2770 2763 2761 2758 ] final  -91.24 input   60.01 | X-H torsion
[ 5056 5047 5046 5044 ] final  -91.25 input   59.99 | X-H torsion

> <Gold.Protein.ActiveResidues>
 LEU49   GLY50   THR51   GLY52   ARG56   VAL57   MET58   LEU59   VAL60   HIS68  
 TYR69   ALA70   MET71   LYS72   LEU95   VAL104  LYS105  MET118  VAL119  MET120 
 GLU121  TYR122  VAL123  PRO124  GLY125  GLY126  GLU127  GLU170  ASN171  LEU173 
 ILE174  GLN181  VAL182  THR183  ASP184  PHE327  TYR330 

> <Gold.Protein.RotatedAtoms>
   34.2006   12.5388  -10.9062 H   0  0  0  0  0  0  0  0  0  0  0  0  # atno 1751 bound_to 1744
   28.7041    8.3899    0.4358 H   0  0  0  0  0  0  0  0  0  0  0  0  # atno 2770 bound_to 2763
   22.4922    9.7640  -10.2260 H   0  0  0  0  0  0  0  0  0  0  0  0  # atno 5056 bound_to 5047
   34.5271   10.9480  -10.8018 LP  0  0  0  0  0  0  0  0  0  0  0  0  # atno 5370 bound_to 1744
   35.6300   11.9708  -11.4375 LP  0  0  0  0  0  0  0  0  0  0  0  0  # atno 5371 bound_to 1744
   30.1968    8.7399   -0.1103 LP  0  0  0  0  0  0  0  0  0  0  0  0  # atno 5378 bound_to 2763
   29.9925    8.1667    1.4050 LP  0  0  0  0  0  0  0  0  0  0  0  0  # atno 5379 bound_to 2763

> <Gold.Score>
     Fitness  S(hb_ext) S(vdw_ext)  S(hb_int)    S(int)      intcor
     35.75       0.16      26.39       0.00      -0.69      -0.76

> <Gold.Goldscore.Fitness>
35.7503

> <Gold.Goldscore.Internal.Vdw>
-0.7905

> <Gold.Goldscore.Internal.Torsion>
-0.6545

> <Gold.Goldscore.External.Vdw>
26.3853

> <Gold.Goldscore.Internal.HBond>
0.0000

> <Gold.Goldscore.External.HBond>
0.1570

> <Gold.Goldscore.Internal.Correction>
-0.7585

> <Gold.Goldscore.Hbonds>
donor molecule, donor type, donor heavy atom, donor atom, acceptor molecule, acceptor atom, score
      L1  H     8    22       P1   515  0.08

> <Gold.Goldscore.Internal.Vdw.Weighted>
-0.7905

> <Gold.Goldscore.Internal.Torsion.Weighted>
-0.6545

> <Gold.Goldscore.External.Vdw.Weighted>
36.2798

> <Gold.Goldscore.Internal.HBond.Weighted>
0.0000

> <Gold.Goldscore.External.HBond.Weighted>
0.1570

> <Gold.Goldscore.Internal.Correction.Weighted>
-0.7585

> <Gold.Rescore>
     Score     S(PLP)   S(hbond)     S(cho)   S(metal)  DE(clash)   DE(tors)     intcor
     11.05     -11.83       0.29       0.00       0.00       0.00       0.82       ----

> <Gold.PLP.Fitness>
11.0476

> <Gold.PLP.PLP>
-11.8298

> <Gold.PLP.part.hbond>
-2.3511

> <Gold.PLP.part.metal>
0.0000

> <Gold.PLP.part.buried>
23.0813

> <Gold.PLP.part.nonpolar>
-41.2053

> <Gold.PLP.part.repulsive>
10.0269

> <Gold.PLP.ligand.clash>
0.0000

> <Gold.PLP.ligand.torsion>
0.8193

> <Gold.PLP.Chemscore.Hbond>
0.2855

> <Gold.PLP.Chemscore.CHOScore>
0.0000

> <Gold.PLP.Chemscore.Metal>
0.0000

> <Gold.Chemscore.Hbonds>
donor molecule, donor type, donor heavy atom, donor atom, acceptor molecule, acceptor atom, score
      L1  H     8    22       P1   515  0.57

> <Gold.PLP.Chemscore.Internal.Correction>
   9.000000E+99

