#       Name:                CT1002167954
#       Creating user name   hitesit
#       Creation time:       Sun Apr 16 20:15:36 2023


#       File generated by GOLD software.
#

@<TRIPOS>MOLECULE
CT1002167954|ligand_prepared|mol2|1|dock1
    29    30     1
SMALL
NO_CHARGES


@<TRIPOS>ATOM
      1 C1          26.7673   9.6127  -3.0718 C.3            1 RES1               0.0000
      2 C2          28.2943   9.8299  -3.0634 C.ar           1 RES1               0.0000
      3 C3          26.3794   9.2422  -1.6433 C.2            1 RES1               0.0000
      4 C4          26.1535  10.9186  -3.5643 C.2            1 RES1               0.0000
      5 C5          26.3025   8.4801  -4.0165 C.3            1 RES1               0.0000
      6 C6          28.9959   9.9751  -4.2564 C.ar           1 RES1               0.0000
      7 C7          29.0133   9.8897  -1.8726 C.ar           1 RES1               0.0000
      8 N8          25.7345  10.1855  -0.8988 N.am           1 RES1               0.0000
      9 O9          26.6701   8.1530  -1.1643 O.2            1 RES1               0.0000
     10 N10         25.3820  11.6361  -2.6881 N.am           1 RES1               0.0000
     11 O11         26.3445  11.3410  -4.6980 O.2            1 RES1               0.0000
     12 C12         24.8115   8.1914  -3.9404 C.3            1 RES1               0.0000
     13 C13         30.3663  10.1759  -4.2589 C.ar           1 RES1               0.0000
     14 C14         30.3838  10.0904  -1.8774 C.ar           1 RES1               0.0000
     15 C15         25.1699  11.3442  -1.3682 C.2            1 RES1               0.0000
     16 C16         31.0611  10.2341  -3.0696 C.ar           1 RES1               0.0000
     17 O17         24.5081  12.0676  -0.6293 O.2            1 RES1               0.0000
     18 H18         26.5570   8.7537  -5.0478 H              1 RES1               0.0000
     19 H19         26.8525   7.5642  -3.7671 H              1 RES1               0.0000
     20 H20         28.4665   9.9297  -5.2023 H              1 RES1               0.0000
     21 H21         28.5016   9.7781  -0.9227 H              1 RES1               0.0000
     22 H22         25.6657  10.0135   0.0991 H              1 RES1               0.0000
     23 H23         24.9233  12.4645  -3.0536 H              1 RES1               0.0000
     24 H24         24.5387   7.3890  -4.6226 H              1 RES1               0.0000
     25 H25         24.5275   7.8916  -2.9338 H              1 RES1               0.0000
     26 H26         24.2337   9.0740  -4.2069 H              1 RES1               0.0000
     27 H27         30.8948  10.2871  -5.2000 H              1 RES1               0.0000
     28 H28         30.9266  10.1349  -0.9390 H              1 RES1               0.0000
     29 H29         32.1345  10.3918  -3.0718 H              1 RES1               0.0000
@<TRIPOS>BOND
    1    1    2 1     
    2    1    3 1     
    3    1    4 1     
    4    1    5 1     
    5    2    6 ar    
    6    2    7 ar    
    7    3    8 1     
    8    3    9 2     
    9    4   10 1     
   10    4   11 2     
   11    5   12 1     
   12    5   18 1     
   13    5   19 1     
   14    6   13 ar    
   15    6   20 1     
   16    7   14 ar    
   17    7   21 1     
   18    8   15 1     
   19    8   22 1     
   20   10   15 1     
   21   10   23 1     
   22   12   24 1     
   23   12   25 1     
   24   12   26 1     
   25   13   16 ar    
   26   13   27 1     
   27   14   16 ar    
   28   14   28 1     
   29   15   17 2     
   30   16   29 1     
@<TRIPOS>SUBSTRUCTURE
      1 RES1           1
@<TRIPOS>SET
DONOR_HYDROGENS      STATIC     ATOMS    <user>   **** ""
2 22 23
ATOM$RED        STATIC     ATOMS    COLORGROUP SYSTEM
2 22 23
@<TRIPOS>COMMENT
> <Gold.Version>
2022.3.0

> <Gold.Id.Protein>
unknown|3nx8_clean|pdb

> <Gold.Protein.RotatedTorsions>
[ 1751 1744 1743 1741 ] final   65.87 input   60.01 | X-H torsion
[ 2770 2763 2761 2758 ] final  -91.33 input   60.01 | X-H torsion
[ 5056 5047 5046 5044 ] final   68.49 input   59.99 | X-H torsion

> <Gold.Protein.ActiveResidues>
 LEU49   GLY50   THR51   GLY52   ARG56   VAL57   MET58   LEU59   VAL60   HIS68  
 TYR69   ALA70   MET71   LYS72   LEU95   VAL104  LYS105  MET118  VAL119  MET120 
 GLU121  TYR122  VAL123  PRO124  GLY125  GLY126  GLU127  GLU170  ASN171  LEU173 
 ILE174  GLN181  VAL182  THR183  ASP184  PHE327  TYR330 

> <Gold.Protein.RotatedAtoms>
   34.2490   12.5803  -10.9336 H   0  0  0  0  0  0  0  0  0  0  0  0  # atno 1751 bound_to 1744
   28.7042    8.3904    0.4344 H   0  0  0  0  0  0  0  0  0  0  0  0  # atno 2770 bound_to 2763
   23.5427   10.1277   -8.7555 H   0  0  0  0  0  0  0  0  0  0  0  0  # atno 5056 bound_to 5047
   34.4665   10.9749  -10.7799 LP  0  0  0  0  0  0  0  0  0  0  0  0  # atno 5370 bound_to 1744
   35.6419   11.9021  -11.4319 LP  0  0  0  0  0  0  0  0  0  0  0  0  # atno 5371 bound_to 1744
   30.1981    8.7397   -0.1094 LP  0  0  0  0  0  0  0  0  0  0  0  0  # atno 5378 bound_to 2763
   29.9911    8.1664    1.4055 LP  0  0  0  0  0  0  0  0  0  0  0  0  # atno 5379 bound_to 2763

> <Gold.Score>
     Fitness  S(hb_ext) S(vdw_ext)  S(hb_int)    S(int)      intcor
     42.99       0.11      32.29       0.00      -1.52      -0.82

> <Gold.Goldscore.Fitness>
42.9921

> <Gold.Goldscore.Internal.Vdw>
-1.9346

> <Gold.Goldscore.Internal.Torsion>
-0.4049

> <Gold.Goldscore.External.Vdw>
32.2948

> <Gold.Goldscore.Internal.HBond>
0.0000

> <Gold.Goldscore.External.HBond>
0.1086

> <Gold.Goldscore.Internal.Correction>
-0.8177

> <Gold.Goldscore.Hbonds>
donor molecule, donor type, donor heavy atom, donor atom, acceptor molecule, acceptor atom, score
      P1  H  2763  2770       L1     9  0.02
      L1  H    10    23       P1   534  0.03

> <Gold.Goldscore.Internal.Vdw.Weighted>
-1.9346

> <Gold.Goldscore.Internal.Torsion.Weighted>
-0.4049

> <Gold.Goldscore.External.Vdw.Weighted>
44.4054

> <Gold.Goldscore.Internal.HBond.Weighted>
0.0000

> <Gold.Goldscore.External.HBond.Weighted>
0.1086

> <Gold.Goldscore.Internal.Correction.Weighted>
-0.8177

> <Gold.Rescore>
     Score     S(PLP)   S(hbond)     S(cho)   S(metal)  DE(clash)   DE(tors)     intcor
     27.26     -24.61       1.46       0.00       0.00       1.34       0.20       ----

> <Gold.PLP.Fitness>
27.2614

> <Gold.PLP.PLP>
-24.6055

> <Gold.PLP.part.hbond>
-2.9896

> <Gold.PLP.part.metal>
0.0000

> <Gold.PLP.part.buried>
10.7774

> <Gold.PLP.part.nonpolar>
-35.1627

> <Gold.PLP.part.repulsive>
2.7848

> <Gold.PLP.ligand.clash>
1.3368

> <Gold.PLP.ligand.torsion>
0.1997

> <Gold.PLP.Chemscore.Hbond>
1.4640

> <Gold.PLP.Chemscore.CHOScore>
0.0000

> <Gold.PLP.Chemscore.Metal>
0.0000

> <Gold.Chemscore.Hbonds>
donor molecule, donor type, donor heavy atom, donor atom, acceptor molecule, acceptor atom, score
      L1  H    10    23       P1   534  0.20
      P1  H   552   556       L1    17  0.19

> <Gold.PLP.Chemscore.Internal.Correction>
   9.000000E+99

