#       Name:                CT1002167954
#       Creating user name   hitesit
#       Creation time:       Sun Apr 16 20:15:39 2023


#       File generated by GOLD software.
#

@<TRIPOS>MOLECULE
CT1002167954|ligand_prepared|mol2|1|dock4
    29    30     1
SMALL
NO_CHARGES


@<TRIPOS>ATOM
      1 C1          26.5730   9.0399  -3.3705 C.3            1 RES1               0.0000
      2 C2          27.7203   9.5822  -4.2470 C.ar           1 RES1               0.0000
      3 C3          25.3064   9.7545  -3.8325 C.2            1 RES1               0.0000
      4 C4          26.5491   7.5306  -3.5848 C.2            1 RES1               0.0000
      5 C5          26.7628   9.3049  -1.8588 C.3            1 RES1               0.0000
      6 C6          28.9935   9.7633  -3.7152 C.ar           1 RES1               0.0000
      7 C7          27.5219   9.9026  -5.5874 C.ar           1 RES1               0.0000
      8 N8          24.4090   9.0377  -4.5678 N.am           1 RES1               0.0000
      9 O9          25.1165  10.9398  -3.5890 O.2            1 RES1               0.0000
     10 N10         25.4519   6.9866  -4.1997 N.am           1 RES1               0.0000
     11 O11         27.4778   6.8094  -3.2418 O.2            1 RES1               0.0000
     12 C12         25.5071   9.0729  -1.0332 C.3            1 RES1               0.0000
     13 C13         30.0316  10.2445  -4.4958 C.ar           1 RES1               0.0000
     14 C14         28.5613  10.3839  -6.3662 C.ar           1 RES1               0.0000
     15 C15         24.3945   7.6754  -4.7285 C.2            1 RES1               0.0000
     16 C16         29.8163  10.5547  -5.8217 C.ar           1 RES1               0.0000
     17 O17         23.4705   7.1195  -5.3153 O.2            1 RES1               0.0000
     18 H18         27.5586   8.6501  -1.4827 H              1 RES1               0.0000
     19 H19         27.0894  10.3430  -1.7205 H              1 RES1               0.0000
     20 H20         29.1813   9.5270  -2.6732 H              1 RES1               0.0000
     21 H21         26.5426   9.7773  -6.0367 H              1 RES1               0.0000
     22 H22         23.6815   9.5630  -5.0422 H              1 RES1               0.0000
     23 H23         25.4204   5.9745  -4.2696 H              1 RES1               0.0000
     24 H24         25.6952   9.2729   0.0196 H              1 RES1               0.0000
     25 H25         24.7021   9.7259  -1.3636 H              1 RES1               0.0000
     26 H26         25.1684   8.0431  -1.1273 H              1 RES1               0.0000
     27 H27         31.0171  10.3784  -4.0622 H              1 RES1               0.0000
     28 H28         28.3872  10.6273  -7.4091 H              1 RES1               0.0000
     29 H29         30.6297  10.9313  -6.4331 H              1 RES1               0.0000
@<TRIPOS>BOND
    1    1    2 1     
    2    1    3 1     
    3    1    4 1     
    4    1    5 1     
    5    2    6 ar    
    6    2    7 ar    
    7    3    8 1     
    8    3    9 2     
    9    4   10 1     
   10    4   11 2     
   11    5   12 1     
   12    5   18 1     
   13    5   19 1     
   14    6   13 ar    
   15    6   20 1     
   16    7   14 ar    
   17    7   21 1     
   18    8   15 1     
   19    8   22 1     
   20   10   15 1     
   21   10   23 1     
   22   12   24 1     
   23   12   25 1     
   24   12   26 1     
   25   13   16 ar    
   26   13   27 1     
   27   14   16 ar    
   28   14   28 1     
   29   15   17 2     
   30   16   29 1     
@<TRIPOS>SUBSTRUCTURE
      1 RES1           1
@<TRIPOS>SET
DONOR_HYDROGENS      STATIC     ATOMS    <user>   **** ""
2 22 23
ATOM$RED        STATIC     ATOMS    COLORGROUP SYSTEM
2 22 23
@<TRIPOS>COMMENT
> <Gold.Version>
2022.3.0

> <Gold.Id.Protein>
unknown|3nx8_clean|pdb

> <Gold.Protein.RotatedTorsions>
[ 1751 1744 1743 1741 ] final -103.74 input   60.01 | X-H torsion
[ 2770 2763 2761 2758 ] final  -70.79 input   60.01 | X-H torsion
[ 5056 5047 5046 5044 ] final  102.59 input   59.99 | X-H torsion

> <Gold.Protein.ActiveResidues>
 LEU49   GLY50   THR51   GLY52   ARG56   VAL57   MET58   LEU59   VAL60   HIS68  
 TYR69   ALA70   MET71   LYS72   LEU95   VAL104  LYS105  MET118  VAL119  MET120 
 GLU121  TYR122  VAL123  PRO124  GLY125  GLY126  GLU127  GLU170  ASN171  LEU173 
 ILE174  GLN181  VAL182  THR183  ASP184  PHE327  TYR330 

> <Gold.Protein.RotatedAtoms>
   35.1912   10.9784  -11.0901 H   0  0  0  0  0  0  0  0  0  0  0  0  # atno 1751 bound_to 1744
   28.7214    8.2775    0.7483 H   0  0  0  0  0  0  0  0  0  0  0  0  # atno 2770 bound_to 2763
   23.0591   10.1387   -8.4957 H   0  0  0  0  0  0  0  0  0  0  0  0  # atno 5056 bound_to 5047
   35.2423   12.5815  -11.3655 LP  0  0  0  0  0  0  0  0  0  0  0  0  # atno 5370 bound_to 1744
   33.9175   11.9082  -10.6887 LP  0  0  0  0  0  0  0  0  0  0  0  0  # atno 5371 bound_to 1744
   29.8999    8.7660   -0.2625 LP  0  0  0  0  0  0  0  0  0  0  0  0  # atno 5378 bound_to 2763
   30.2720    8.2536    1.2427 LP  0  0  0  0  0  0  0  0  0  0  0  0  # atno 5379 bound_to 2763

> <Gold.Score>
     Fitness  S(hb_ext) S(vdw_ext)  S(hb_int)    S(int)      intcor
     35.81       1.55      25.42       0.00      -0.69      -0.77

> <Gold.Goldscore.Fitness>
35.8142

> <Gold.Goldscore.Internal.Vdw>
-0.7996

> <Gold.Goldscore.Internal.Torsion>
-0.6603

> <Gold.Goldscore.External.Vdw>
25.4245

> <Gold.Goldscore.Internal.HBond>
0.0000

> <Gold.Goldscore.External.HBond>
1.5502

> <Gold.Goldscore.Internal.Correction>
-0.7653

> <Gold.Goldscore.Hbonds>
donor molecule, donor type, donor heavy atom, donor atom, acceptor molecule, acceptor atom, score
      L1  H    10    23       P1  2555  0.78

> <Gold.Goldscore.Internal.Vdw.Weighted>
-0.7996

> <Gold.Goldscore.Internal.Torsion.Weighted>
-0.6603

> <Gold.Goldscore.External.Vdw.Weighted>
34.9586

> <Gold.Goldscore.Internal.HBond.Weighted>
0.0000

> <Gold.Goldscore.External.HBond.Weighted>
1.5502

> <Gold.Goldscore.Internal.Correction.Weighted>
-0.7653

> <Gold.Rescore>
     Score     S(PLP)   S(hbond)     S(cho)   S(metal)  DE(clash)   DE(tors)     intcor
     28.11     -26.75       1.23       0.00       0.00       0.00       1.16       ----

> <Gold.PLP.Fitness>
28.1100

> <Gold.PLP.PLP>
-26.7490

> <Gold.PLP.part.hbond>
-3.4434

> <Gold.PLP.part.metal>
0.0000

> <Gold.PLP.part.buried>
10.6338

> <Gold.PLP.part.nonpolar>
-35.7072

> <Gold.PLP.part.repulsive>
2.0925

> <Gold.PLP.ligand.clash>
0.0000

> <Gold.PLP.ligand.torsion>
1.1627

> <Gold.PLP.Chemscore.Hbond>
1.2288

> <Gold.PLP.Chemscore.CHOScore>
0.0000

> <Gold.PLP.Chemscore.Metal>
0.0000

> <Gold.Chemscore.Hbonds>
donor molecule, donor type, donor heavy atom, donor atom, acceptor molecule, acceptor atom, score
      L1  H     8    22       P1   541  0.22
      L1  H    10    23       P1  2555  0.63

> <Gold.PLP.Chemscore.Internal.Correction>
   9.000000E+99

