#       Name:                CT1002167954
#       Creating user name   hitesit
#       Creation time:       Sun Apr 16 20:15:41 2023


#       File generated by GOLD software.
#

@<TRIPOS>MOLECULE
CT1002167954|ligand_prepared|mol2|1|dock6
    29    30     1
SMALL
NO_CHARGES


@<TRIPOS>ATOM
      1 C1          26.4854   8.9675  -3.8078 C.3            1 RES1               0.0000
      2 C2          26.9809   9.4399  -2.4258 C.ar           1 RES1               0.0000
      3 C3          26.5551   7.4433  -3.7900 C.2            1 RES1               0.0000
      4 C4          25.0749   9.5239  -3.9684 C.2            1 RES1               0.0000
      5 C5          27.3401   9.4845  -4.9884 C.3            1 RES1               0.0000
      6 C6          26.0760   9.7190  -1.4060 C.ar           1 RES1               0.0000
      7 C7          28.3375   9.5984  -2.1553 C.ar           1 RES1               0.0000
      8 N8          25.3798   6.7581  -3.6942 N.am           1 RES1               0.0000
      9 O9          27.6275   6.8523  -3.8195 O.2            1 RES1               0.0000
     10 N10         24.0357   8.6325  -4.0254 N.am           1 RES1               0.0000
     11 O11         24.8526  10.7268  -4.0294 O.2            1 RES1               0.0000
     12 C12         27.6310  10.9757  -4.9278 C.3            1 RES1               0.0000
     13 C13         26.5116  10.1386  -0.1600 C.ar           1 RES1               0.0000
     14 C14         28.7709  10.0183  -0.9086 C.ar           1 RES1               0.0000
     15 C15         24.1213   7.2764  -3.8647 C.2            1 RES1               0.0000
     16 C16         27.8592  10.2881   0.0897 C.ar           1 RES1               0.0000
     17 O17         23.1345   6.5461  -3.8742 O.2            1 RES1               0.0000
     18 H18         28.2920   8.9392  -5.0005 H              1 RES1               0.0000
     19 H19         26.8160   9.2648  -5.9267 H              1 RES1               0.0000
     20 H20         25.0116   9.6095  -1.5847 H              1 RES1               0.0000
     21 H21         29.0727   9.3930  -2.9259 H              1 RES1               0.0000
     22 H22         25.4425   5.7689  -3.4755 H              1 RES1               0.0000
     23 H23         23.1128   9.0154  -4.2043 H              1 RES1               0.0000
     24 H24         28.2335  11.2861  -5.7789 H              1 RES1               0.0000
     25 H25         26.7069  11.5498  -4.9396 H              1 RES1               0.0000
     26 H26         28.1741  11.2262  -4.0189 H              1 RES1               0.0000
     27 H27         25.7899  10.3509   0.6219 H              1 RES1               0.0000
     28 H28         29.8324  10.1352  -0.7168 H              1 RES1               0.0000
     29 H29         28.2001  10.6164   1.0660 H              1 RES1               0.0000
@<TRIPOS>BOND
    1    1    2 1     
    2    1    3 1     
    3    1    4 1     
    4    1    5 1     
    5    2    6 ar    
    6    2    7 ar    
    7    3    8 1     
    8    3    9 2     
    9    4   10 1     
   10    4   11 2     
   11    5   12 1     
   12    5   18 1     
   13    5   19 1     
   14    6   13 ar    
   15    6   20 1     
   16    7   14 ar    
   17    7   21 1     
   18    8   15 1     
   19    8   22 1     
   20   10   15 1     
   21   10   23 1     
   22   12   24 1     
   23   12   25 1     
   24   12   26 1     
   25   13   16 ar    
   26   13   27 1     
   27   14   16 ar    
   28   14   28 1     
   29   15   17 2     
   30   16   29 1     
@<TRIPOS>SUBSTRUCTURE
      1 RES1           1
@<TRIPOS>SET
DONOR_HYDROGENS      STATIC     ATOMS    <user>   **** ""
2 22 23
ATOM$RED        STATIC     ATOMS    COLORGROUP SYSTEM
2 22 23
@<TRIPOS>COMMENT
> <Gold.Version>
2022.3.0

> <Gold.Id.Protein>
unknown|3nx8_clean|pdb

> <Gold.Protein.RotatedTorsions>
[ 1751 1744 1743 1741 ] final  160.10 input   60.01 | X-H torsion
[ 2770 2763 2761 2758 ] final   25.69 input   60.01 | X-H torsion
[ 5056 5047 5046 5044 ] final   13.73 input   59.99 | X-H torsion

> <Gold.Protein.ActiveResidues>
 LEU49   GLY50   THR51   GLY52   ARG56   VAL57   MET58   LEU59   VAL60   HIS68  
 TYR69   ALA70   MET71   LYS72   LEU95   VAL104  LYS105  MET118  VAL119  MET120 
 GLU121  TYR122  VAL123  PRO124  GLY125  GLY126  GLU127  GLU170  ASN171  LEU173 
 ILE174  GLN181  VAL182  THR183  ASP184  PHE327  TYR330 

> <Gold.Protein.RotatedAtoms>
   35.4970   12.2953  -11.4277 H   0  0  0  0  0  0  0  0  0  0  0  0  # atno 1751 bound_to 1744
   29.9438    8.1558    1.4144 H   0  0  0  0  0  0  0  0  0  0  0  0  # atno 2770 bound_to 2763
   23.8027    9.9941   -9.5655 H   0  0  0  0  0  0  0  0  0  0  0  0  # atno 5056 bound_to 5047
   34.0029   12.2764  -10.7830 LP  0  0  0  0  0  0  0  0  0  0  0  0  # atno 5370 bound_to 1744
   34.8490   10.8875  -10.9313 LP  0  0  0  0  0  0  0  0  0  0  0  0  # atno 5371 bound_to 1744
   28.7054    8.4097    0.3891 LP  0  0  0  0  0  0  0  0  0  0  0  0  # atno 5378 bound_to 2763
   30.2361    8.7325   -0.0793 LP  0  0  0  0  0  0  0  0  0  0  0  0  # atno 5379 bound_to 2763

> <Gold.Score>
     Fitness  S(hb_ext) S(vdw_ext)  S(hb_int)    S(int)      intcor
     40.11       0.24      31.60       0.00      -3.59      -0.76

> <Gold.Goldscore.Fitness>
40.1107

> <Gold.Goldscore.Internal.Vdw>
-3.7542

> <Gold.Goldscore.Internal.Torsion>
-0.5897

> <Gold.Goldscore.External.Vdw>
31.6048

> <Gold.Goldscore.Internal.HBond>
0.0000

> <Gold.Goldscore.External.HBond>
0.2396

> <Gold.Goldscore.Internal.Correction>
-0.7585

> <Gold.Goldscore.Hbonds>
donor molecule, donor type, donor heavy atom, donor atom, acceptor molecule, acceptor atom, score
      L1  H     8    22       P1  2555  0.07
      L1  H    10    23       P1   541  0.05

> <Gold.Goldscore.Internal.Vdw.Weighted>
-3.7542

> <Gold.Goldscore.Internal.Torsion.Weighted>
-0.5897

> <Gold.Goldscore.External.Vdw.Weighted>
43.4565

> <Gold.Goldscore.Internal.HBond.Weighted>
0.0000

> <Gold.Goldscore.External.HBond.Weighted>
0.2396

> <Gold.Goldscore.Internal.Correction.Weighted>
-0.7585

> <Gold.Rescore>
     Score     S(PLP)   S(hbond)     S(cho)   S(metal)  DE(clash)   DE(tors)     intcor
     26.27     -23.90       1.44       0.00       0.00       0.00       0.97       ----

> <Gold.PLP.Fitness>
26.2700

> <Gold.PLP.PLP>
-23.8993

> <Gold.PLP.part.hbond>
-3.6548

> <Gold.PLP.part.metal>
0.0000

> <Gold.PLP.part.buried>
14.8879

> <Gold.PLP.part.nonpolar>
-35.1565

> <Gold.PLP.part.repulsive>
2.1485

> <Gold.PLP.ligand.clash>
0.0000

> <Gold.PLP.ligand.torsion>
0.9746

> <Gold.PLP.Chemscore.Hbond>
1.4400

> <Gold.PLP.Chemscore.CHOScore>
0.0000

> <Gold.PLP.Chemscore.Metal>
0.0000

> <Gold.Chemscore.Hbonds>
donor molecule, donor type, donor heavy atom, donor atom, acceptor molecule, acceptor atom, score
      L1  H     8    22       P1  2555  0.54
      L1  H    10    23       P1   541  0.49

> <Gold.PLP.Chemscore.Internal.Correction>
   9.000000E+99

