#       Name:                CT1002167954
#       Creating user name   hitesit
#       Creation time:       Sun Apr 16 20:22:00 2023


#       File generated by GOLD software.
#

@<TRIPOS>MOLECULE
CT1002167954|ligand_prepared|mol2|1|dock9
    29    30     1
SMALL
NO_CHARGES


@<TRIPOS>ATOM
      1 C1         186.5074  12.1667  51.4539 C.3            1 RES1               0.0000
      2 C2         186.8766  10.9669  50.5578 C.ar           1 RES1               0.0000
      3 C3         187.8144  12.8932  51.7572 C.2            1 RES1               0.0000
      4 C4         185.5031  12.9972  50.6624 C.2            1 RES1               0.0000
      5 C5         185.8459  11.7661  52.7931 C.3            1 RES1               0.0000
      6 C6         186.6245  11.0003  49.1896 C.ar           1 RES1               0.0000
      7 C7         187.4713   9.8230  51.0835 C.ar           1 RES1               0.0000
      8 N8         188.0392  14.0801  51.1242 N.am           1 RES1               0.0000
      9 O9         188.6528  12.4128  52.5100 O.2            1 RES1               0.0000
     10 N10        185.8793  14.2541  50.2670 N.am           1 RES1               0.0000
     11 O11        184.3956  12.5681  50.3632 O.2            1 RES1               0.0000
     12 C12        184.7709  10.7000  52.6513 C.3            1 RES1               0.0000
     13 C13        186.9575   9.9301  48.3758 C.ar           1 RES1               0.0000
     14 C14        187.8032   8.7537  50.2680 C.ar           1 RES1               0.0000
     15 C15        187.1130  14.8215  50.4355 C.2            1 RES1               0.0000
     16 C16        187.5474   8.8064  48.9143 C.ar           1 RES1               0.0000
     17 O17        187.3924  15.9362  50.0037 O.2            1 RES1               0.0000
     18 H18        186.6225  11.3960  53.4737 H              1 RES1               0.0000
     19 H19        185.3996  12.6592  53.2476 H              1 RES1               0.0000
     20 H20        186.1587  11.8751  48.7483 H              1 RES1               0.0000
     21 H21        187.6809   9.7589  52.1459 H              1 RES1               0.0000
     22 H22        188.9832  14.4506  51.1667 H              1 RES1               0.0000
     23 H23        185.1744  14.8192  49.8044 H              1 RES1               0.0000
     24 H24        184.3396  10.4559  53.6198 H              1 RES1               0.0000
     25 H25        183.9697  11.0443  52.0006 H              1 RES1               0.0000
     26 H26        185.1854   9.7886  52.2254 H              1 RES1               0.0000
     27 H27        186.7527   9.9760  47.3113 H              1 RES1               0.0000
     28 H28        188.2668   7.8711  50.6962 H              1 RES1               0.0000
     29 H29        187.8084   7.9684  48.2766 H              1 RES1               0.0000
@<TRIPOS>BOND
    1    1    2 1     
    2    1    3 1     
    3    1    4 1     
    4    1    5 1     
    5    2    6 ar    
    6    2    7 ar    
    7    3    8 1     
    8    3    9 2     
    9    4   10 1     
   10    4   11 2     
   11    5   12 1     
   12    5   18 1     
   13    5   19 1     
   14    6   13 ar    
   15    6   20 1     
   16    7   14 ar    
   17    7   21 1     
   18    8   15 1     
   19    8   22 1     
   20   10   15 1     
   21   10   23 1     
   22   12   24 1     
   23   12   25 1     
   24   12   26 1     
   25   13   16 ar    
   26   13   27 1     
   27   14   16 ar    
   28   14   28 1     
   29   15   17 2     
   30   16   29 1     
@<TRIPOS>SUBSTRUCTURE
      1 RES1           1
@<TRIPOS>SET
DONOR_HYDROGENS      STATIC     ATOMS    <user>   **** ""
2 22 23
ATOM$RED        STATIC     ATOMS    COLORGROUP SYSTEM
2 22 23
@<TRIPOS>COMMENT
> <Gold.Version>
2022.3.0

> <Gold.Id.Protein>
unknown|4v3u_clean|pdb

> <Gold.Protein.RotatedTorsions>
[  552  517  516  515 ] final  -94.85 input   59.99 | X-H torsion
[ 2539 2515 2516 2517 ] final   26.73 input  113.65 | X-H torsion
[ 2615 2585 2586 2587 ] final  -47.62 input   46.31 | X-H torsion
[ 26073 26031 26030 26028 ] final  172.56 input   59.98 | X-H torsion
[ 27148 27102 27101 27097 ] final -174.71 input   60.00 | X-H torsion
[ 7433 7405 7406 7407 ] final  -75.97 input   81.33 | X-H torsion
[ 7467 7446 7447 7448 ] final  111.00 input   92.53 | X-H torsion
[ 7519 7507 7508 7509 ] final -129.75 input   89.47 | X-H torsion
[ 17188 17168 17169 17170 ] final  -66.52 input   55.70 | X-H torsion
[ 17240 17210 17211 17212 ] final  177.00 input  101.26 | X-H torsion
[ 18288 18265 18266 18267 ] final  125.62 input   32.88 | X-H torsion
[ 18322 18307 18308 18309 ] final  -86.06 input   53.35 | X-H torsion
[ 18397 18345 18346 18347 ] final  124.76 input   36.30 | X-H torsion
[ 18484 18439 18440 18441 ] final -141.19 input   98.15 | X-H torsion
[ 18560 18519 18520 18521 ] final -120.14 input   94.34 | X-H torsion
[ 17296 17273 17274 17275 ] final   -0.55 input   50.38 | X-H torsion
[ 18492 18450 18449 18447 ] final  -12.65 input   59.99 | X-H torsion
[ 18232 18190 18191 18192 ] final  -38.95 input   49.82 | X-H torsion
[ 18292 18270 18269 18266 ] final  102.01 input   60.01 | X-H torsion
[ 10113 10086 10085 10082 ] final  152.68 input   60.00 | X-H torsion
[ 16984 16942 16941 16939 ] final  -59.71 input   60.00 | X-H torsion
[ 11483 11448 11449 11450 ] final   21.51 input   47.08 | X-H torsion
[ 11550 11515 11516 11517 ] final  -34.73 input  121.60 | X-H torsion
[ 11626 11591 11592 11593 ] final -152.44 input   57.19 | X-H torsion
[ 11428 11406 11405 11402 ] final  149.71 input   60.00 | X-H torsion
[ 27149 27104 27103 27101 ] final  -79.53 input   60.02 | X-H torsion
[ 10149 10124 10125 10126 ] final   43.86 input   16.22 | X-H torsion
[ 17349 17319 17320 17321 ] final   72.32 input   65.41 | X-H torsion
[ 27203 2518 2517 2516 ] final -129.72 input    0.00 | X-H torsion
[ 27224 7317 7316 7315 ] final  -10.77 input    0.00 | X-H torsion
[ 27227 7408 7407 7406 ] final -124.32 input   -0.00 | X-H torsion
[ 27232 17117 17116 17115 ] final  -97.58 input    0.00 | X-H torsion
[ 27236 18193 18192 18191 ] final  100.93 input    0.00 | X-H torsion
[ 27239 18268 18267 18266 ] final -175.33 input    0.00 | X-H torsion
[ 27242 18310 18309 18308 ] final  111.99 input   -0.00 | X-H torsion
[ 27245 18348 18347 18346 ] final   83.80 input    0.00 | X-H torsion
[ 27253 17171 17170 17169 ] final  -93.43 input   -0.00 | X-H torsion
[ 27255 17213 17212 17211 ] final -110.41 input    0.00 | X-H torsion
[ 27257 17042 17041 17040 ] final   14.65 input    0.00 | X-H torsion
[ 27267 10127 10126 10125 ] final -131.63 input   -0.00 | X-H torsion
[ 27269 11404 11403 11402 ] final  103.12 input    0.00 | X-H torsion
[ 27275 11594 11593 11592 ] final   87.57 input   -0.00 | X-H torsion
[ 27284 18675 18674 18673 ] final   77.73 input    0.00 | X-H torsion

> <Gold.Protein.ActiveResidues>
 LYS309  TRP311  MET341  HIS342  TRP414  ALA417  ARG419  CYS420  VAL421  GLY422 
 ARG423  SER462  ALA463  SER482  GLN483  LEU484  ILE485  ARG486  ALA502  TRP566 
 TYR567  LEU569  PRO570  ALA571  VAL572  SER573  ASN574  MET575  PHE589  SER590 
 GLY591  TRP592  TYR593  MET594  GLU597  ILE598  ARG601  ASP602  ASP605  ARG608 
 TRP683  HIS697  GLU699  TYR711  HEM750  H4B760 

> <Gold.Protein.RotatedAtoms>
  189.4169   24.4227   41.7499 H   0  0  0  0  0  0  0  0  0  0  0  0  # atno 552  bound_to 517 
  189.7894   23.3062   42.9165 H   0  0  0  0  0  0  0  0  0  0  0  0  # atno 553  bound_to 517 
  188.3645   24.1478   42.9994 H   0  0  0  0  0  0  0  0  0  0  0  0  # atno 554  bound_to 517 
  197.6898   19.9914   45.3478 H   0  0  0  0  0  0  0  0  0  0  0  0  # atno 2539 bound_to 2515
  197.8444   18.5323   44.1913 H   0  0  0  0  0  0  0  0  0  0  0  0  # atno 2615 bound_to 2585
  196.9858    7.1365   51.0789 H   0  0  0  0  0  0  0  0  0  0  0  0  # atno 7433 bound_to 7405
  194.9235    5.5892   53.6896 H   0  0  0  0  0  0  0  0  0  0  0  0  # atno 7467 bound_to 7446
  194.9610    3.0505   55.2728 H   0  0  0  0  0  0  0  0  0  0  0  0  # atno 7519 bound_to 7507
  190.4448   -4.5826   51.3795 H   0  0  0  0  0  0  0  0  0  0  0  0  # atno 10113 bound_to 10086
  187.2437   -3.9843   47.2625 H   0  0  0  0  0  0  0  0  0  0  0  0  # atno 10149 bound_to 10124
  182.7707   12.2589   43.7118 H   0  0  0  0  0  0  0  0  0  0  0  0  # atno 11428 bound_to 11406
  181.5200    8.8731   42.4835 H   0  0  0  0  0  0  0  0  0  0  0  0  # atno 11483 bound_to 11448
  180.8757    6.1403   43.6293 H   0  0  0  0  0  0  0  0  0  0  0  0  # atno 11550 bound_to 11515
  178.6391    4.4003   44.2803 H   0  0  0  0  0  0  0  0  0  0  0  0  # atno 11626 bound_to 11591
  179.9559    9.0711   48.9487 H   0  0  0  0  0  0  0  0  0  0  0  0  # atno 16984 bound_to 16942
  183.9681    3.9830   48.2774 H   0  0  0  0  0  0  0  0  0  0  0  0  # atno 17188 bound_to 17168
  185.7382    4.4191   46.2873 H   0  0  0  0  0  0  0  0  0  0  0  0  # atno 17240 bound_to 17210
  186.2222    6.4439   42.1745 H   0  0  0  0  0  0  0  0  0  0  0  0  # atno 17296 bound_to 17273
  186.7559    7.2603   40.9364 H   0  0  0  0  0  0  0  0  0  0  0  0  # atno 17349 bound_to 17319
  186.1441    1.0102   42.7070 H   0  0  0  0  0  0  0  0  0  0  0  0  # atno 18232 bound_to 18190
  186.3157   -0.8939   45.3528 H   0  0  0  0  0  0  0  0  0  0  0  0  # atno 18288 bound_to 18265
  184.4315   -2.4033   48.0824 H   0  0  0  0  0  0  0  0  0  0  0  0  # atno 18292 bound_to 18270
  186.4632   -0.9346   49.0606 H   0  0  0  0  0  0  0  0  0  0  0  0  # atno 18322 bound_to 18307
  187.2005   -1.2292   53.1602 H   0  0  0  0  0  0  0  0  0  0  0  0  # atno 18397 bound_to 18345
  185.2921    1.8581   54.4472 H   0  0  0  0  0  0  0  0  0  0  0  0  # atno 18484 bound_to 18439
  182.6164    8.0632   52.0105 H   0  0  0  0  0  0  0  0  0  0  0  0  # atno 18492 bound_to 18450
  187.0206    3.4476   57.1931 H   0  0  0  0  0  0  0  0  0  0  0  0  # atno 18560 bound_to 18519
  194.9998   12.8451   45.4468 H   0  0  0  0  0  0  0  0  0  0  0  0  # atno 26073 bound_to 26031
  192.9379   20.8312   51.6039 H   0  0  0  0  0  0  0  0  0  0  0  0  # atno 27148 bound_to 27102
  196.8843   18.6792   51.2594 H   0  0  0  0  0  0  0  0  0  0  0  0  # atno 27149 bound_to 27104
  197.4758   19.7595   47.0650 LP  0  0  0  0  0  0  0  0  0  0  0  0  # atno 27202 bound_to 2515
  197.6895   15.9177   44.0593 LP  0  0  0  0  0  0  0  0  0  0  0  0  # atno 27203 bound_to 2518
  196.1269   15.8189   44.7999 LP  0  0  0  0  0  0  0  0  0  0  0  0  # atno 27204 bound_to 2518
  196.1642   18.6438   43.7297 LP  0  0  0  0  0  0  0  0  0  0  0  0  # atno 27205 bound_to 2585
  193.8555   11.6888   45.4763 LP  0  0  0  0  0  0  0  0  0  0  0  0  # atno 27209 bound_to 26031
  193.4280   13.2648   45.4673 LP  0  0  0  0  0  0  0  0  0  0  0  0  # atno 27210 bound_to 26031
  193.3352   19.9895   52.9384 LP  0  0  0  0  0  0  0  0  0  0  0  0  # atno 27213 bound_to 27102
  192.2644   19.3742   51.8700 LP  0  0  0  0  0  0  0  0  0  0  0  0  # atno 27214 bound_to 27102
  195.8381    8.9948   51.7482 LP  0  0  0  0  0  0  0  0  0  0  0  0  # atno 27224 bound_to 7317
  195.0752    7.4462   51.8892 LP  0  0  0  0  0  0  0  0  0  0  0  0  # atno 27225 bound_to 7317
  197.3650    5.8770   49.9329 LP  0  0  0  0  0  0  0  0  0  0  0  0  # atno 27226 bound_to 7405
  197.6015    3.2335   53.0951 LP  0  0  0  0  0  0  0  0  0  0  0  0  # atno 27227 bound_to 7408
  198.3597    4.6222   52.3903 LP  0  0  0  0  0  0  0  0  0  0  0  0  # atno 27228 bound_to 7408
  196.1180    4.5426   52.9540 LP  0  0  0  0  0  0  0  0  0  0  0  0  # atno 27229 bound_to 7446
  195.1160    2.7459   53.5604 LP  0  0  0  0  0  0  0  0  0  0  0  0  # atno 27230 bound_to 7507
  185.8197    2.8359   48.8228 LP  0  0  0  0  0  0  0  0  0  0  0  0  # atno 27232 bound_to 17117
  184.8382    1.4222   49.0185 LP  0  0  0  0  0  0  0  0  0  0  0  0  # atno 27233 bound_to 17117
  182.4250    3.3118   47.8172 LP  0  0  0  0  0  0  0  0  0  0  0  0  # atno 27234 bound_to 17168
  185.3030    3.3896   44.9379 LP  0  0  0  0  0  0  0  0  0  0  0  0  # atno 27235 bound_to 17210
  185.4916    1.6111   45.2111 LP  0  0  0  0  0  0  0  0  0  0  0  0  # atno 27236 bound_to 18193
  187.0710    2.2525   45.5181 LP  0  0  0  0  0  0  0  0  0  0  0  0  # atno 27237 bound_to 18193
  187.8939   -0.4606   45.9617 LP  0  0  0  0  0  0  0  0  0  0  0  0  # atno 27238 bound_to 18265
  187.8945   -2.6534   49.1227 LP  0  0  0  0  0  0  0  0  0  0  0  0  # atno 27239 bound_to 18268
  187.5383   -2.5272   47.4324 LP  0  0  0  0  0  0  0  0  0  0  0  0  # atno 27240 bound_to 18268
  187.2799    0.5370   49.5364 LP  0  0  0  0  0  0  0  0  0  0  0  0  # atno 27241 bound_to 18307
  184.9316   -2.1340   52.2700 LP  0  0  0  0  0  0  0  0  0  0  0  0  # atno 27242 bound_to 18310
  184.7033   -0.9253   51.0506 LP  0  0  0  0  0  0  0  0  0  0  0  0  # atno 27243 bound_to 18310
  187.0132    0.2969   52.3275 LP  0  0  0  0  0  0  0  0  0  0  0  0  # atno 27244 bound_to 18345
  187.5283    2.4154   53.6703 LP  0  0  0  0  0  0  0  0  0  0  0  0  # atno 27245 bound_to 18348
  188.0634    1.7284   55.1675 LP  0  0  0  0  0  0  0  0  0  0  0  0  # atno 27246 bound_to 18348
  185.1643    1.2397   56.0782 LP  0  0  0  0  0  0  0  0  0  0  0  0  # atno 27247 bound_to 18439
  187.1213    5.0191   56.4325 LP  0  0  0  0  0  0  0  0  0  0  0  0  # atno 27248 bound_to 18519
  183.2339    4.4970   43.9825 LP  0  0  0  0  0  0  0  0  0  0  0  0  # atno 27253 bound_to 17171
  183.1579    5.5467   45.3581 LP  0  0  0  0  0  0  0  0  0  0  0  0  # atno 27254 bound_to 17171
  187.5260    3.6358   42.0331 LP  0  0  0  0  0  0  0  0  0  0  0  0  # atno 27255 bound_to 17213
  186.2529    2.8277   42.8853 LP  0  0  0  0  0  0  0  0  0  0  0  0  # atno 27256 bound_to 17213
  179.5305    2.9931   49.3230 LP  0  0  0  0  0  0  0  0  0  0  0  0  # atno 27257 bound_to 17042
  181.0579    3.6766   48.8761 LP  0  0  0  0  0  0  0  0  0  0  0  0  # atno 27258 bound_to 17042
  185.3721    5.0814   42.8580 LP  0  0  0  0  0  0  0  0  0  0  0  0  # atno 27259 bound_to 17273
  181.1071    7.5687   52.3646 LP  0  0  0  0  0  0  0  0  0  0  0  0  # atno 27260 bound_to 18450
  181.9955    6.7609   51.2580 LP  0  0  0  0  0  0  0  0  0  0  0  0  # atno 27261 bound_to 18450
  187.7507    1.1222   42.0243 LP  0  0  0  0  0  0  0  0  0  0  0  0  # atno 27262 bound_to 18190
  185.4718   -2.3706   46.8320 LP  0  0  0  0  0  0  0  0  0  0  0  0  # atno 27263 bound_to 18270
  183.8791   -2.1133   46.5800 LP  0  0  0  0  0  0  0  0  0  0  0  0  # atno 27264 bound_to 18270
  188.8352   -4.3798   51.5087 LP  0  0  0  0  0  0  0  0  0  0  0  0  # atno 27265 bound_to 10086
  189.7295   -3.3126   50.6556 LP  0  0  0  0  0  0  0  0  0  0  0  0  # atno 27266 bound_to 10086
  187.0059   -2.5382   44.3107 LP  0  0  0  0  0  0  0  0  0  0  0  0  # atno 27267 bound_to 10127
  187.9499   -2.7418   45.7485 LP  0  0  0  0  0  0  0  0  0  0  0  0  # atno 27268 bound_to 10127
  185.0606    8.3940   43.4386 LP  0  0  0  0  0  0  0  0  0  0  0  0  # atno 27269 bound_to 11404
  184.9083    7.5906   41.9117 LP  0  0  0  0  0  0  0  0  0  0  0  0  # atno 27270 bound_to 11404
  181.1179    8.2154   49.7000 LP  0  0  0  0  0  0  0  0  0  0  0  0  # atno 27271 bound_to 16942
  180.2957    9.3695   50.5116 LP  0  0  0  0  0  0  0  0  0  0  0  0  # atno 27272 bound_to 16942
  183.2283    8.9473   42.8412 LP  0  0  0  0  0  0  0  0  0  0  0  0  # atno 27273 bound_to 11448
  181.9518    4.7802   43.4087 LP  0  0  0  0  0  0  0  0  0  0  0  0  # atno 27274 bound_to 11515
  179.6376    7.3016   47.0062 LP  0  0  0  0  0  0  0  0  0  0  0  0  # atno 27275 bound_to 11594
  178.5069    6.9696   48.2756 LP  0  0  0  0  0  0  0  0  0  0  0  0  # atno 27276 bound_to 11594
  179.6946    5.4177   45.2316 LP  0  0  0  0  0  0  0  0  0  0  0  0  # atno 27277 bound_to 11591
  182.0487   10.8728   43.2589 LP  0  0  0  0  0  0  0  0  0  0  0  0  # atno 27282 bound_to 11406
  181.8217   12.2368   42.3902 LP  0  0  0  0  0  0  0  0  0  0  0  0  # atno 27283 bound_to 11406
  184.2893   11.6967   54.6872 LP  0  0  0  0  0  0  0  0  0  0  0  0  # atno 27284 bound_to 18675
  184.3313   12.7100   56.0913 LP  0  0  0  0  0  0  0  0  0  0  0  0  # atno 27285 bound_to 18675

> <Gold.Score>
     Fitness  S(hb_ext) S(vdw_ext)  S(hb_int)    S(int)      intcor
     34.66       7.85      21.90       0.00      -3.30      -0.76

> <Gold.Goldscore.Fitness>
34.6583

> <Gold.Goldscore.Internal.Vdw>
-3.3480

> <Gold.Goldscore.Internal.Torsion>
-0.7130

> <Gold.Goldscore.External.Vdw>
21.8951

> <Gold.Goldscore.Internal.HBond>
0.0000

> <Gold.Goldscore.External.HBond>
7.8486

> <Gold.Goldscore.Internal.Correction>
-0.7650

> <Gold.Goldscore.Hbonds>
donor molecule, donor type, donor heavy atom, donor atom, acceptor molecule, acceptor atom, score
      P1  H 19331 19364       L1    11  0.37
      L1  H     8    22       P1 27095  0.94

> <Gold.Goldscore.Internal.Vdw.Weighted>
-3.3480

> <Gold.Goldscore.Internal.Torsion.Weighted>
-0.7130

> <Gold.Goldscore.External.Vdw.Weighted>
30.1057

> <Gold.Goldscore.Internal.HBond.Weighted>
0.0000

> <Gold.Goldscore.External.HBond.Weighted>
7.8486

> <Gold.Goldscore.Internal.Correction.Weighted>
-0.7650

> <Gold.Rescore>
     Score     S(PLP)   S(hbond)     S(cho)   S(metal)  DE(clash)   DE(tors)     intcor
     23.51     -23.62       0.67       0.00       0.00       0.00       1.07       ----

> <Gold.PLP.Fitness>
23.5096

> <Gold.PLP.PLP>
-23.6246

> <Gold.PLP.part.hbond>
-1.2000

> <Gold.PLP.part.metal>
0.0000

> <Gold.PLP.part.buried>
-3.1334

> <Gold.PLP.part.nonpolar>
-23.2820

> <Gold.PLP.part.repulsive>
2.8159

> <Gold.PLP.ligand.clash>
0.0000

> <Gold.PLP.ligand.torsion>
1.0655

> <Gold.PLP.Chemscore.Hbond>
0.6720

> <Gold.PLP.Chemscore.CHOScore>
0.0000

> <Gold.PLP.Chemscore.Metal>
0.0000

> <Gold.Chemscore.Hbonds>
donor molecule, donor type, donor heavy atom, donor atom, acceptor molecule, acceptor atom, score
      L1  H     8    22       P1 27095  0.32
      P1  H 19331 19364       L1    11  0.53

> <Gold.PLP.Chemscore.Internal.Correction>
   9.000000E+99

