#       Name:                CT1002167954
#       Creating user name   hitesit
#       Creation time:       Sun Apr 16 20:21:56 2023


#       File generated by GOLD software.
#

@<TRIPOS>MOLECULE
CT1002167954|ligand_prepared|mol2|1|dock4
    29    30     1
SMALL
NO_CHARGES


@<TRIPOS>ATOM
      1 C1         187.0988  10.3860  46.5514 C.3            1 RES1               0.0000
      2 C2         186.7038   9.8374  47.9377 C.ar           1 RES1               0.0000
      3 C3         186.6952  11.8575  46.5420 C.2            1 RES1               0.0000
      4 C4         188.5987  10.1514  46.4113 C.2            1 RES1               0.0000
      5 C5         186.3920   9.6754  45.3737 C.3            1 RES1               0.0000
      6 C6         186.0270   8.6270  48.0542 C.ar           1 RES1               0.0000
      7 C7         187.0111  10.5279  49.1070 C.ar           1 RES1               0.0000
      8 N8         187.6898  12.7860  46.6347 N.am           1 RES1               0.0000
      9 O9         185.5194  12.1974  46.4940 O.2            1 RES1               0.0000
     10 N10        189.4170  11.2487  46.3466 N.am           1 RES1               0.0000
     11 O11        189.0810   9.0261  46.3730 O.2            1 RES1               0.0000
     12 C12        186.6249  10.3416  44.0268 C.3            1 RES1               0.0000
     13 C13        185.6729   8.1235  49.2950 C.ar           1 RES1               0.0000
     14 C14        186.6559  10.0227  50.3468 C.ar           1 RES1               0.0000
     15 C15        189.0334  12.5550  46.4828 C.2            1 RES1               0.0000
     16 C16        185.9874   8.8207  50.4420 C.ar           1 RES1               0.0000
     17 O17        189.8353  13.4844  46.4680 O.2            1 RES1               0.0000
     18 H18        186.7483   8.6392  45.3214 H              1 RES1               0.0000
     19 H19        185.3135   9.6495  45.5729 H              1 RES1               0.0000
     20 H20        185.7689   8.0655  47.1625 H              1 RES1               0.0000
     21 H21        187.5356  11.4760  49.0562 H              1 RES1               0.0000
     22 H22        187.4085  13.7404  46.8355 H              1 RES1               0.0000
     23 H23        190.4035  11.0756  46.1814 H              1 RES1               0.0000
     24 H24        186.1072   9.8033  43.2356 H              1 RES1               0.0000
     25 H25        186.2593  11.3663  44.0349 H              1 RES1               0.0000
     26 H26        187.6856  10.3620  43.7849 H              1 RES1               0.0000
     27 H27        185.1457   7.1778  49.3644 H              1 RES1               0.0000
     28 H28        186.9049  10.5751  51.2469 H              1 RES1               0.0000
     29 H29        185.7103   8.4259  51.4138 H              1 RES1               0.0000
@<TRIPOS>BOND
    1    1    2 1     
    2    1    3 1     
    3    1    4 1     
    4    1    5 1     
    5    2    6 ar    
    6    2    7 ar    
    7    3    8 1     
    8    3    9 2     
    9    4   10 1     
   10    4   11 2     
   11    5   12 1     
   12    5   18 1     
   13    5   19 1     
   14    6   13 ar    
   15    6   20 1     
   16    7   14 ar    
   17    7   21 1     
   18    8   15 1     
   19    8   22 1     
   20   10   15 1     
   21   10   23 1     
   22   12   24 1     
   23   12   25 1     
   24   12   26 1     
   25   13   16 ar    
   26   13   27 1     
   27   14   16 ar    
   28   14   28 1     
   29   15   17 2     
   30   16   29 1     
@<TRIPOS>SUBSTRUCTURE
      1 RES1           1
@<TRIPOS>SET
DONOR_HYDROGENS      STATIC     ATOMS    <user>   **** ""
2 22 23
ATOM$RED        STATIC     ATOMS    COLORGROUP SYSTEM
2 22 23
@<TRIPOS>COMMENT
> <Gold.Version>
2022.3.0

> <Gold.Id.Protein>
unknown|4v3u_clean|pdb

> <Gold.Protein.RotatedTorsions>
[  552  517  516  515 ] final   47.34 input   59.99 | X-H torsion
[ 2539 2515 2516 2517 ] final  -21.71 input  113.65 | X-H torsion
[ 2615 2585 2586 2587 ] final -174.98 input   46.31 | X-H torsion
[ 26073 26031 26030 26028 ] final  -95.99 input   59.98 | X-H torsion
[ 27148 27102 27101 27097 ] final  152.17 input   60.00 | X-H torsion
[ 7433 7405 7406 7407 ] final  -94.25 input   81.33 | X-H torsion
[ 7467 7446 7447 7448 ] final -103.43 input   92.53 | X-H torsion
[ 7519 7507 7508 7509 ] final  -38.33 input   89.47 | X-H torsion
[ 17188 17168 17169 17170 ] final  -69.03 input   55.70 | X-H torsion
[ 17240 17210 17211 17212 ] final  157.09 input  101.26 | X-H torsion
[ 18288 18265 18266 18267 ] final -167.10 input   32.88 | X-H torsion
[ 18322 18307 18308 18309 ] final  -25.28 input   53.35 | X-H torsion
[ 18397 18345 18346 18347 ] final  178.58 input   36.30 | X-H torsion
[ 18484 18439 18440 18441 ] final   36.20 input   98.15 | X-H torsion
[ 18560 18519 18520 18521 ] final  139.46 input   94.34 | X-H torsion
[ 17296 17273 17274 17275 ] final   63.73 input   50.38 | X-H torsion
[ 18492 18450 18449 18447 ] final   -5.70 input   59.99 | X-H torsion
[ 18232 18190 18191 18192 ] final   21.78 input   49.82 | X-H torsion
[ 18292 18270 18269 18266 ] final   26.18 input   60.01 | X-H torsion
[ 10113 10086 10085 10082 ] final  -27.18 input   60.00 | X-H torsion
[ 16984 16942 16941 16939 ] final  179.67 input   60.00 | X-H torsion
[ 11483 11448 11449 11450 ] final  131.14 input   47.08 | X-H torsion
[ 11550 11515 11516 11517 ] final   13.52 input  121.60 | X-H torsion
[ 11626 11591 11592 11593 ] final  107.92 input   57.19 | X-H torsion
[ 11428 11406 11405 11402 ] final  123.53 input   60.00 | X-H torsion
[ 27149 27104 27103 27101 ] final   44.51 input   60.02 | X-H torsion
[ 10149 10124 10125 10126 ] final -115.74 input   16.22 | X-H torsion
[ 17349 17319 17320 17321 ] final -163.13 input   65.41 | X-H torsion
[ 27203 2518 2517 2516 ] final  138.73 input    0.00 | X-H torsion
[ 27224 7317 7316 7315 ] final  -89.33 input    0.00 | X-H torsion
[ 27227 7408 7407 7406 ] final   44.49 input   -0.00 | X-H torsion
[ 27232 17117 17116 17115 ] final   26.06 input    0.00 | X-H torsion
[ 27236 18193 18192 18191 ] final  -39.69 input    0.00 | X-H torsion
[ 27239 18268 18267 18266 ] final   60.15 input    0.00 | X-H torsion
[ 27242 18310 18309 18308 ] final -138.49 input   -0.00 | X-H torsion
[ 27245 18348 18347 18346 ] final   90.73 input    0.00 | X-H torsion
[ 27253 17171 17170 17169 ] final   89.81 input   -0.00 | X-H torsion
[ 27255 17213 17212 17211 ] final -165.27 input    0.00 | X-H torsion
[ 27257 17042 17041 17040 ] final  117.16 input    0.00 | X-H torsion
[ 27267 10127 10126 10125 ] final   13.30 input   -0.00 | X-H torsion
[ 27269 11404 11403 11402 ] final   40.87 input    0.00 | X-H torsion
[ 27275 11594 11593 11592 ] final  111.87 input   -0.00 | X-H torsion
[ 27284 18675 18674 18673 ] final  -91.64 input    0.00 | X-H torsion

> <Gold.Protein.ActiveResidues>
 LYS309  TRP311  MET341  HIS342  TRP414  ALA417  ARG419  CYS420  VAL421  GLY422 
 ARG423  SER462  ALA463  SER482  GLN483  LEU484  ILE485  ARG486  ALA502  TRP566 
 TYR567  LEU569  PRO570  ALA571  VAL572  SER573  ASN574  MET575  PHE589  SER590 
 GLY591  TRP592  TYR593  MET594  GLU597  ILE598  ARG601  ASP602  ASP605  ARG608 
 TRP683  HIS697  GLU699  TYR711  HEM750  H4B760 

> <Gold.Protein.RotatedAtoms>
  189.5156   23.2951   43.1623 H   0  0  0  0  0  0  0  0  0  0  0  0  # atno 552  bound_to 517 
  188.3438   24.3771   42.7121 H   0  0  0  0  0  0  0  0  0  0  0  0  # atno 553  bound_to 517 
  189.7107   24.2047   41.7916 H   0  0  0  0  0  0  0  0  0  0  0  0  # atno 554  bound_to 517 
  198.1981   19.5814   45.6573 H   0  0  0  0  0  0  0  0  0  0  0  0  # atno 2539 bound_to 2515
  196.3701   17.9781   44.0672 H   0  0  0  0  0  0  0  0  0  0  0  0  # atno 2615 bound_to 2585
  196.7958    7.1957   50.8834 H   0  0  0  0  0  0  0  0  0  0  0  0  # atno 7433 bound_to 7405
  196.3727    4.9864   53.0404 H   0  0  0  0  0  0  0  0  0  0  0  0  # atno 7467 bound_to 7446
  195.8752    2.6361   54.5083 H   0  0  0  0  0  0  0  0  0  0  0  0  # atno 7519 bound_to 7507
  188.8968   -3.6059   50.9830 H   0  0  0  0  0  0  0  0  0  0  0  0  # atno 10113 bound_to 10086
  188.4033   -5.2245   47.5978 H   0  0  0  0  0  0  0  0  0  0  0  0  # atno 10149 bound_to 10124
  182.7712   11.8659   43.8709 H   0  0  0  0  0  0  0  0  0  0  0  0  # atno 11428 bound_to 11406
  182.5110    9.3643   43.4115 H   0  0  0  0  0  0  0  0  0  0  0  0  # atno 11483 bound_to 11448
  180.9672    5.7364   44.2225 H   0  0  0  0  0  0  0  0  0  0  0  0  # atno 11550 bound_to 11515
  179.4125    4.3369   45.3858 H   0  0  0  0  0  0  0  0  0  0  0  0  # atno 11626 bound_to 11591
  181.1137    8.2208   49.7105 H   0  0  0  0  0  0  0  0  0  0  0  0  # atno 16984 bound_to 16942
  183.9763    3.9500   48.2951 H   0  0  0  0  0  0  0  0  0  0  0  0  # atno 17188 bound_to 17168
  185.9953    4.2498   46.2643 H   0  0  0  0  0  0  0  0  0  0  0  0  # atno 17240 bound_to 17210
  185.3140    6.4847   42.3977 H   0  0  0  0  0  0  0  0  0  0  0  0  # atno 17296 bound_to 17273
  185.6089    6.8000   39.9838 H   0  0  0  0  0  0  0  0  0  0  0  0  # atno 17349 bound_to 17319
  186.6924    1.6797   42.9449 H   0  0  0  0  0  0  0  0  0  0  0  0  # atno 18232 bound_to 18190
  186.6835    0.0094   45.3079 H   0  0  0  0  0  0  0  0  0  0  0  0  # atno 18288 bound_to 18265
  185.4392   -2.4639   47.5313 H   0  0  0  0  0  0  0  0  0  0  0  0  # atno 18292 bound_to 18270
  186.0409   -0.3234   49.5639 H   0  0  0  0  0  0  0  0  0  0  0  0  # atno 18322 bound_to 18307
  186.6405   -1.1948   52.5866 H   0  0  0  0  0  0  0  0  0  0  0  0  # atno 18397 bound_to 18345
  185.2042    1.2381   56.1064 H   0  0  0  0  0  0  0  0  0  0  0  0  # atno 18484 bound_to 18439
  182.6728    8.0028   51.9328 H   0  0  0  0  0  0  0  0  0  0  0  0  # atno 18492 bound_to 18450
  187.8973    4.2139   56.4870 H   0  0  0  0  0  0  0  0  0  0  0  0  # atno 18560 bound_to 18519
  193.8287   13.4969   45.4568 H   0  0  0  0  0  0  0  0  0  0  0  0  # atno 26073 bound_to 26031
  193.2585   20.8995   52.0248 H   0  0  0  0  0  0  0  0  0  0  0  0  # atno 27148 bound_to 27102
  196.2344   19.1778   49.8239 H   0  0  0  0  0  0  0  0  0  0  0  0  # atno 27149 bound_to 27104
  196.9764   20.1622   46.7610 LP  0  0  0  0  0  0  0  0  0  0  0  0  # atno 27202 bound_to 2515
  196.5147   15.9056   43.6590 LP  0  0  0  0  0  0  0  0  0  0  0  0  # atno 27203 bound_to 2518
  197.3016   15.8310   45.2002 LP  0  0  0  0  0  0  0  0  0  0  0  0  # atno 27204 bound_to 2518
  197.6107   19.1877   43.8514 LP  0  0  0  0  0  0  0  0  0  0  0  0  # atno 27205 bound_to 2585
  195.0138   12.3821   45.4538 LP  0  0  0  0  0  0  0  0  0  0  0  0  # atno 27209 bound_to 26031
  193.4492   11.9149   45.4797 LP  0  0  0  0  0  0  0  0  0  0  0  0  # atno 27210 bound_to 26031
  193.0436   19.5404   52.8929 LP  0  0  0  0  0  0  0  0  0  0  0  0  # atno 27213 bound_to 27102
  192.2330   19.7544   51.4915 LP  0  0  0  0  0  0  0  0  0  0  0  0  # atno 27214 bound_to 27102
  195.9775    8.2190   52.5106 LP  0  0  0  0  0  0  0  0  0  0  0  0  # atno 27224 bound_to 7317
  194.9359    8.2220   51.1268 LP  0  0  0  0  0  0  0  0  0  0  0  0  # atno 27225 bound_to 7317
  197.5525    5.8185   50.1258 LP  0  0  0  0  0  0  0  0  0  0  0  0  # atno 27226 bound_to 7405
  198.3241    4.5465   52.2435 LP  0  0  0  0  0  0  0  0  0  0  0  0  # atno 27227 bound_to 7408
  197.6371    3.3092   53.2420 LP  0  0  0  0  0  0  0  0  0  0  0  0  # atno 27228 bound_to 7408
  194.7145    5.1264   53.5827 LP  0  0  0  0  0  0  0  0  0  0  0  0  # atno 27229 bound_to 7446
  194.2188    3.1526   54.3107 LP  0  0  0  0  0  0  0  0  0  0  0  0  # atno 27230 bound_to 7507
  185.0597    1.8346   49.6893 LP  0  0  0  0  0  0  0  0  0  0  0  0  # atno 27232 bound_to 17117
  185.5982    2.4235   48.1520 LP  0  0  0  0  0  0  0  0  0  0  0  0  # atno 27233 bound_to 17117
  182.4170    3.3444   47.7998 LP  0  0  0  0  0  0  0  0  0  0  0  0  # atno 27234 bound_to 17168
  185.0558    3.5524   44.9601 LP  0  0  0  0  0  0  0  0  0  0  0  0  # atno 27235 bound_to 17210
  186.9562    2.2777   44.9465 LP  0  0  0  0  0  0  0  0  0  0  0  0  # atno 27236 bound_to 18193
  185.6064    1.5859   45.7827 LP  0  0  0  0  0  0  0  0  0  0  0  0  # atno 27237 bound_to 18193
  187.5330   -1.3472   46.0058 LP  0  0  0  0  0  0  0  0  0  0  0  0  # atno 27238 bound_to 18265
  188.2506   -2.2488   47.6876 LP  0  0  0  0  0  0  0  0  0  0  0  0  # atno 27239 bound_to 18268
  187.1822   -2.9318   48.8675 LP  0  0  0  0  0  0  0  0  0  0  0  0  # atno 27240 bound_to 18268
  187.6904   -0.0570   49.0472 LP  0  0  0  0  0  0  0  0  0  0  0  0  # atno 27241 bound_to 18307
  184.4844   -0.8154   52.0194 LP  0  0  0  0  0  0  0  0  0  0  0  0  # atno 27242 bound_to 18310
  185.1505   -2.2438   51.3012 LP  0  0  0  0  0  0  0  0  0  0  0  0  # atno 27243 bound_to 18310
  187.5580    0.2634   52.8855 LP  0  0  0  0  0  0  0  0  0  0  0  0  # atno 27244 bound_to 18345
  187.5028    2.5003   53.7257 LP  0  0  0  0  0  0  0  0  0  0  0  0  # atno 27245 bound_to 18348
  188.0890    1.6435   55.1121 LP  0  0  0  0  0  0  0  0  0  0  0  0  # atno 27246 bound_to 18348
  185.2498    1.8423   54.4657 LP  0  0  0  0  0  0  0  0  0  0  0  0  # atno 27247 bound_to 18439
  186.2681    4.2734   57.1196 LP  0  0  0  0  0  0  0  0  0  0  0  0  # atno 27248 bound_to 18519
  183.1930    5.5739   45.3375 LP  0  0  0  0  0  0  0  0  0  0  0  0  # atno 27253 bound_to 17171
  183.1988    4.4698   44.0030 LP  0  0  0  0  0  0  0  0  0  0  0  0  # atno 27254 bound_to 17171
  186.8586    3.4720   41.6277 LP  0  0  0  0  0  0  0  0  0  0  0  0  # atno 27255 bound_to 17213
  186.9203    2.9916   43.2907 LP  0  0  0  0  0  0  0  0  0  0  0  0  # atno 27256 bound_to 17213
  180.3708    3.9989   49.6501 LP  0  0  0  0  0  0  0  0  0  0  0  0  # atno 27257 bound_to 17042
  180.2176    2.6707   48.5490 LP  0  0  0  0  0  0  0  0  0  0  0  0  # atno 27258 bound_to 17042
  186.2653    5.0413   42.6385 LP  0  0  0  0  0  0  0  0  0  0  0  0  # atno 27259 bound_to 17273
  181.1566    7.6593   52.4135 LP  0  0  0  0  0  0  0  0  0  0  0  0  # atno 27260 bound_to 18450
  181.8892    6.7311   51.2873 LP  0  0  0  0  0  0  0  0  0  0  0  0  # atno 27261 bound_to 18450
  187.2186    0.4725   41.7935 LP  0  0  0  0  0  0  0  0  0  0  0  0  # atno 27262 bound_to 18190
  184.5002   -2.1506   46.2403 LP  0  0  0  0  0  0  0  0  0  0  0  0  # atno 27263 bound_to 18270
  183.8355   -2.2722   47.7269 LP  0  0  0  0  0  0  0  0  0  0  0  0  # atno 27264 bound_to 18270
  190.5072   -3.8033   50.8548 LP  0  0  0  0  0  0  0  0  0  0  0  0  # atno 27265 bound_to 10086
  189.6161   -4.8726   51.7087 LP  0  0  0  0  0  0  0  0  0  0  0  0  # atno 27266 bound_to 10086
  187.4527   -2.8421   45.8714 LP  0  0  0  0  0  0  0  0  0  0  0  0  # atno 27267 bound_to 10127
  187.5030   -2.4380   44.1879 LP  0  0  0  0  0  0  0  0  0  0  0  0  # atno 27268 bound_to 10127
  185.4118    8.7453   42.6937 LP  0  0  0  0  0  0  0  0  0  0  0  0  # atno 27269 bound_to 11404
  184.5571    7.2393   42.6565 LP  0  0  0  0  0  0  0  0  0  0  0  0  # atno 27270 bound_to 11404
  180.2883    9.3749   50.5067 LP  0  0  0  0  0  0  0  0  0  0  0  0  # atno 27271 bound_to 16942
  179.9588    9.0666   48.9373 LP  0  0  0  0  0  0  0  0  0  0  0  0  # atno 27272 bound_to 16942
  182.2593    8.4670   41.9339 LP  0  0  0  0  0  0  0  0  0  0  0  0  # atno 27273 bound_to 11448
  181.8626    5.1741   42.8301 LP  0  0  0  0  0  0  0  0  0  0  0  0  # atno 27274 bound_to 11515
  179.4980    7.6317   47.0728 LP  0  0  0  0  0  0  0  0  0  0  0  0  # atno 27275 bound_to 11594
  178.6466    6.6396   48.2090 LP  0  0  0  0  0  0  0  0  0  0  0  0  # atno 27276 bound_to 11594
  178.9389    5.4797   44.1514 LP  0  0  0  0  0  0  0  0  0  0  0  0  # atno 27277 bound_to 11591
  181.8233   10.9604   42.9068 LP  0  0  0  0  0  0  0  0  0  0  0  0  # atno 27282 bound_to 11406
  182.0466   12.5451   42.5820 LP  0  0  0  0  0  0  0  0  0  0  0  0  # atno 27283 bound_to 11406
  184.4861   12.7301   56.0538 LP  0  0  0  0  0  0  0  0  0  0  0  0  # atno 27284 bound_to 18675
  184.1345   11.6765   54.7247 LP  0  0  0  0  0  0  0  0  0  0  0  0  # atno 27285 bound_to 18675

> <Gold.Score>
     Fitness  S(hb_ext) S(vdw_ext)  S(hb_int)    S(int)      intcor
     30.02       3.97      19.43       0.00      -0.66      -0.76

> <Gold.Goldscore.Fitness>
30.0209

> <Gold.Goldscore.Internal.Vdw>
-0.9482

> <Gold.Goldscore.Internal.Torsion>
-0.4812

> <Gold.Goldscore.External.Vdw>
19.4263

> <Gold.Goldscore.Internal.HBond>
0.0000

> <Gold.Goldscore.External.HBond>
3.9741

> <Gold.Goldscore.Internal.Correction>
-0.7650

> <Gold.Goldscore.Hbonds>
donor molecule, donor type, donor heavy atom, donor atom, acceptor molecule, acceptor atom, score
      P1  H 11455 11490       L1     9  0.13
      L1  H    10    23       P1 26833  0.62

> <Gold.Goldscore.Internal.Vdw.Weighted>
-0.9482

> <Gold.Goldscore.Internal.Torsion.Weighted>
-0.4812

> <Gold.Goldscore.External.Vdw.Weighted>
26.7112

> <Gold.Goldscore.Internal.HBond.Weighted>
0.0000

> <Gold.Goldscore.External.HBond.Weighted>
3.9741

> <Gold.Goldscore.Internal.Correction.Weighted>
-0.7650

> <Gold.Rescore>
     Score     S(PLP)   S(hbond)     S(cho)   S(metal)  DE(clash)   DE(tors)     intcor
     26.79     -23.76       1.81       0.00       0.00       0.00       1.20       ----

> <Gold.PLP.Fitness>
26.7923

> <Gold.PLP.PLP>
-23.7648

> <Gold.PLP.part.hbond>
-2.0000

> <Gold.PLP.part.metal>
0.0000

> <Gold.PLP.part.buried>
-1.0124

> <Gold.PLP.part.nonpolar>
-23.1768

> <Gold.PLP.part.repulsive>
1.2749

> <Gold.PLP.ligand.clash>
0.0000

> <Gold.PLP.ligand.torsion>
1.1982

> <Gold.PLP.Chemscore.Hbond>
1.8080

> <Gold.PLP.Chemscore.CHOScore>
0.0000

> <Gold.PLP.Chemscore.Metal>
0.0000

> <Gold.Chemscore.Hbonds>
donor molecule, donor type, donor heavy atom, donor atom, acceptor molecule, acceptor atom, score
      L1  H    10    23       P1 26833  0.36
      P1  H 11455 11490       L1     9  0.45

> <Gold.PLP.Chemscore.Internal.Correction>
   9.000000E+99

