#       Name:                CT1002167954
#       Creating user name   hitesit
#       Creation time:       Sun Apr 16 20:21:59 2023


#       File generated by GOLD software.
#

@<TRIPOS>MOLECULE
CT1002167954|ligand_prepared|mol2|1|dock8
    29    30     1
SMALL
NO_CHARGES


@<TRIPOS>ATOM
      1 C1         185.5234  11.3780  50.4855 C.3            1 RES1               0.0000
      2 C2         185.6014  12.1166  49.1338 C.ar           1 RES1               0.0000
      3 C3         184.0641  10.9716  50.6681 C.2            1 RES1               0.0000
      4 C4         186.4888  10.2021  50.3855 C.2            1 RES1               0.0000
      5 C5         185.9476  12.2427  51.6954 C.3            1 RES1               0.0000
      6 C6         185.3900  13.4903  49.0637 C.ar           1 RES1               0.0000
      7 C7         185.8858  11.4394  47.9510 C.ar           1 RES1               0.0000
      8 N8         183.7494   9.6549  50.5030 N.am           1 RES1               0.0000
      9 O9         183.1961  11.7999  50.9143 O.2            1 RES1               0.0000
     10 N10        185.9644   8.9365  50.4144 N.am           1 RES1               0.0000
     11 O11        187.6974  10.3604  50.2651 O.2            1 RES1               0.0000
     12 C12        186.2126  11.4405  52.9596 C.3            1 RES1               0.0000
     13 C13        185.4633  14.1633  47.8554 C.ar           1 RES1               0.0000
     14 C14        185.9584  12.1143  46.7436 C.ar           1 RES1               0.0000
     15 C15        184.6358   8.6100  50.4377 C.2            1 RES1               0.0000
     16 C16        185.7479  13.4759  46.6947 C.ar           1 RES1               0.0000
     17 O17        184.2400   7.4483  50.4069 O.2            1 RES1               0.0000
     18 H18        186.8568  12.7970  51.4318 H              1 RES1               0.0000
     19 H19        185.1566  12.9745  51.9010 H              1 RES1               0.0000
     20 H20        185.1625  14.0476  49.9663 H              1 RES1               0.0000
     21 H21        186.0540  10.3679  47.9653 H              1 RES1               0.0000
     22 H22        182.7640   9.4260  50.4202 H              1 RES1               0.0000
     23 H23        186.6256   8.1664  50.4192 H              1 RES1               0.0000
     24 H24        186.5066  12.0951  53.7774 H              1 RES1               0.0000
     25 H25        185.3214  10.8961  53.2650 H              1 RES1               0.0000
     26 H26        187.0115  10.7196  52.7986 H              1 RES1               0.0000
     27 H27        185.2955  15.2347  47.8221 H              1 RES1               0.0000
     28 H28        186.1821  11.5692  45.8325 H              1 RES1               0.0000
     29 H29        185.8057  14.0034  45.7483 H              1 RES1               0.0000
@<TRIPOS>BOND
    1    1    2 1     
    2    1    3 1     
    3    1    4 1     
    4    1    5 1     
    5    2    6 ar    
    6    2    7 ar    
    7    3    8 1     
    8    3    9 2     
    9    4   10 1     
   10    4   11 2     
   11    5   12 1     
   12    5   18 1     
   13    5   19 1     
   14    6   13 ar    
   15    6   20 1     
   16    7   14 ar    
   17    7   21 1     
   18    8   15 1     
   19    8   22 1     
   20   10   15 1     
   21   10   23 1     
   22   12   24 1     
   23   12   25 1     
   24   12   26 1     
   25   13   16 ar    
   26   13   27 1     
   27   14   16 ar    
   28   14   28 1     
   29   15   17 2     
   30   16   29 1     
@<TRIPOS>SUBSTRUCTURE
      1 RES1           1
@<TRIPOS>SET
DONOR_HYDROGENS      STATIC     ATOMS    <user>   **** ""
2 22 23
ATOM$RED        STATIC     ATOMS    COLORGROUP SYSTEM
2 22 23
@<TRIPOS>COMMENT
> <Gold.Version>
2022.3.0

> <Gold.Id.Protein>
unknown|4v3u_clean|pdb

> <Gold.Protein.RotatedTorsions>
[  552  517  516  515 ] final   -0.17 input   59.99 | X-H torsion
[ 2539 2515 2516 2517 ] final  147.26 input  113.65 | X-H torsion
[ 2615 2585 2586 2587 ] final   63.08 input   46.31 | X-H torsion
[ 26073 26031 26030 26028 ] final  150.98 input   59.98 | X-H torsion
[ 27148 27102 27101 27097 ] final   79.90 input   60.00 | X-H torsion
[ 7433 7405 7406 7407 ] final   -6.72 input   81.33 | X-H torsion
[ 7467 7446 7447 7448 ] final  -98.96 input   92.53 | X-H torsion
[ 7519 7507 7508 7509 ] final   -5.97 input   89.47 | X-H torsion
[ 17188 17168 17169 17170 ] final   52.82 input   55.70 | X-H torsion
[ 17240 17210 17211 17212 ] final -126.47 input  101.26 | X-H torsion
[ 18288 18265 18266 18267 ] final -171.91 input   32.88 | X-H torsion
[ 18322 18307 18308 18309 ] final  -13.91 input   53.35 | X-H torsion
[ 18397 18345 18346 18347 ] final -154.78 input   36.30 | X-H torsion
[ 18484 18439 18440 18441 ] final  101.97 input   98.15 | X-H torsion
[ 18560 18519 18520 18521 ] final  -26.47 input   94.34 | X-H torsion
[ 17296 17273 17274 17275 ] final -148.96 input   50.38 | X-H torsion
[ 18492 18450 18449 18447 ] final -150.45 input   59.99 | X-H torsion
[ 18232 18190 18191 18192 ] final -134.79 input   49.82 | X-H torsion
[ 18292 18270 18269 18266 ] final -159.77 input   60.01 | X-H torsion
[ 10113 10086 10085 10082 ] final  142.89 input   60.00 | X-H torsion
[ 16984 16942 16941 16939 ] final  -74.89 input   60.00 | X-H torsion
[ 11483 11448 11449 11450 ] final  -36.32 input   47.08 | X-H torsion
[ 11550 11515 11516 11517 ] final  -62.75 input  121.60 | X-H torsion
[ 11626 11591 11592 11593 ] final  166.26 input   57.19 | X-H torsion
[ 11428 11406 11405 11402 ] final -179.83 input   60.00 | X-H torsion
[ 27149 27104 27103 27101 ] final   74.98 input   60.02 | X-H torsion
[ 10149 10124 10125 10126 ] final   87.44 input   16.22 | X-H torsion
[ 17349 17319 17320 17321 ] final   45.11 input   65.41 | X-H torsion
[ 27203 2518 2517 2516 ] final  -15.42 input    0.00 | X-H torsion
[ 27224 7317 7316 7315 ] final  -82.19 input    0.00 | X-H torsion
[ 27227 7408 7407 7406 ] final -156.87 input   -0.00 | X-H torsion
[ 27232 17117 17116 17115 ] final   68.29 input    0.00 | X-H torsion
[ 27236 18193 18192 18191 ] final  142.81 input    0.00 | X-H torsion
[ 27239 18268 18267 18266 ] final   92.16 input    0.00 | X-H torsion
[ 27242 18310 18309 18308 ] final -127.44 input   -0.00 | X-H torsion
[ 27245 18348 18347 18346 ] final  -62.27 input    0.00 | X-H torsion
[ 27253 17171 17170 17169 ] final  120.14 input   -0.00 | X-H torsion
[ 27255 17213 17212 17211 ] final -144.35 input    0.00 | X-H torsion
[ 27257 17042 17041 17040 ] final  -51.96 input    0.00 | X-H torsion
[ 27267 10127 10126 10125 ] final  -70.16 input   -0.00 | X-H torsion
[ 27269 11404 11403 11402 ] final    8.30 input    0.00 | X-H torsion
[ 27275 11594 11593 11592 ] final   15.53 input   -0.00 | X-H torsion
[ 27284 18675 18674 18673 ] final  167.47 input    0.00 | X-H torsion

> <Gold.Protein.ActiveResidues>
 LYS309  TRP311  MET341  HIS342  TRP414  ALA417  ARG419  CYS420  VAL421  GLY422 
 ARG423  SER462  ALA463  SER482  GLN483  LEU484  ILE485  ARG486  ALA502  TRP566 
 TYR567  LEU569  PRO570  ALA571  VAL572  SER573  ASN574  MET575  PHE589  SER590 
 GLY591  TRP592  TYR593  MET594  GLU597  ILE598  ARG601  ASP602  ASP605  ARG608 
 TRP683  HIS697  GLU699  TYR711  HEM750  H4B760 

> <Gold.Protein.RotatedAtoms>
  189.9918   23.4373   42.5731 H   0  0  0  0  0  0  0  0  0  0  0  0  # atno 552  bound_to 517 
  188.5353   23.8538   43.2451 H   0  0  0  0  0  0  0  0  0  0  0  0  # atno 553  bound_to 517 
  189.0432   24.5855   41.8479 H   0  0  0  0  0  0  0  0  0  0  0  0  # atno 554  bound_to 517 
  196.9016   20.2440   46.6340 H   0  0  0  0  0  0  0  0  0  0  0  0  # atno 2539 bound_to 2515
  196.8276   19.3676   43.5822 H   0  0  0  0  0  0  0  0  0  0  0  0  # atno 2615 bound_to 2585
  197.7068    6.4577   51.2004 H   0  0  0  0  0  0  0  0  0  0  0  0  # atno 7433 bound_to 7405
  196.3587    4.9207   53.0232 H   0  0  0  0  0  0  0  0  0  0  0  0  # atno 7467 bound_to 7446
  195.7763    2.5983   54.0287 H   0  0  0  0  0  0  0  0  0  0  0  0  # atno 7519 bound_to 7507
  190.3463   -4.6796   51.4598 H   0  0  0  0  0  0  0  0  0  0  0  0  # atno 10113 bound_to 10086
  186.8619   -4.4630   47.4889 H   0  0  0  0  0  0  0  0  0  0  0  0  # atno 10149 bound_to 10124
  182.6282   12.5905   43.3779 H   0  0  0  0  0  0  0  0  0  0  0  0  # atno 11428 bound_to 11406
  182.0699    8.4905   41.9536 H   0  0  0  0  0  0  0  0  0  0  0  0  # atno 11483 bound_to 11448
  180.9956    6.1684   43.2188 H   0  0  0  0  0  0  0  0  0  0  0  0  # atno 11550 bound_to 11515
  178.8733    4.0833   44.7633 H   0  0  0  0  0  0  0  0  0  0  0  0  # atno 11626 bound_to 11591
  180.0967    8.8913   48.8537 H   0  0  0  0  0  0  0  0  0  0  0  0  # atno 16984 bound_to 16942
  182.6304    4.1349   47.5793 H   0  0  0  0  0  0  0  0  0  0  0  0  # atno 17188 bound_to 17168
  184.9799    4.5277   45.9290 H   0  0  0  0  0  0  0  0  0  0  0  0  # atno 17240 bound_to 17210
  185.8165    4.9234   42.8002 H   0  0  0  0  0  0  0  0  0  0  0  0  # atno 17296 bound_to 17273
  187.0752    7.0154   40.8360 H   0  0  0  0  0  0  0  0  0  0  0  0  # atno 17349 bound_to 17319
  186.8972    0.3345   41.8629 H   0  0  0  0  0  0  0  0  0  0  0  0  # atno 18232 bound_to 18190
  186.6276   -0.0369   45.2936 H   0  0  0  0  0  0  0  0  0  0  0  0  # atno 18288 bound_to 18265
  183.7139   -2.1326   46.8935 H   0  0  0  0  0  0  0  0  0  0  0  0  # atno 18292 bound_to 18270
  186.0589   -0.1675   49.6429 H   0  0  0  0  0  0  0  0  0  0  0  0  # atno 18322 bound_to 18307
  186.4833   -0.9284   52.3200 H   0  0  0  0  0  0  0  0  0  0  0  0  # atno 18397 bound_to 18345
  184.4166    1.5281   55.6339 H   0  0  0  0  0  0  0  0  0  0  0  0  # atno 18484 bound_to 18439
  181.0422    7.3318   52.2086 H   0  0  0  0  0  0  0  0  0  0  0  0  # atno 18492 bound_to 18450
  186.2510    4.4765   57.0487 H   0  0  0  0  0  0  0  0  0  0  0  0  # atno 18560 bound_to 18519
  195.0266   12.4957   45.4498 H   0  0  0  0  0  0  0  0  0  0  0  0  # atno 26073 bound_to 26031
  193.4150   20.2030   52.8666 H   0  0  0  0  0  0  0  0  0  0  0  0  # atno 27148 bound_to 27102
  196.4487   19.6151   49.7539 H   0  0  0  0  0  0  0  0  0  0  0  0  # atno 27149 bound_to 27104
  198.2500   19.5113   45.8015 LP  0  0  0  0  0  0  0  0  0  0  0  0  # atno 27202 bound_to 2515
  196.9262   15.8128   45.2937 LP  0  0  0  0  0  0  0  0  0  0  0  0  # atno 27203 bound_to 2518
  196.8902   15.9238   43.5656 LP  0  0  0  0  0  0  0  0  0  0  0  0  # atno 27204 bound_to 2518
  197.1618   17.8243   44.3273 LP  0  0  0  0  0  0  0  0  0  0  0  0  # atno 27205 bound_to 2585
  193.5372   11.8414   45.4792 LP  0  0  0  0  0  0  0  0  0  0  0  0  # atno 27209 bound_to 26031
  193.7192   13.4641   45.4614 LP  0  0  0  0  0  0  0  0  0  0  0  0  # atno 27210 bound_to 26031
  192.3412   19.2731   52.0734 LP  0  0  0  0  0  0  0  0  0  0  0  0  # atno 27213 bound_to 27102
  192.7777   20.7234   51.4630 LP  0  0  0  0  0  0  0  0  0  0  0  0  # atno 27214 bound_to 27102
  196.0087    8.3174   52.4788 LP  0  0  0  0  0  0  0  0  0  0  0  0  # atno 27224 bound_to 7317
  194.9046    8.1236   51.1585 LP  0  0  0  0  0  0  0  0  0  0  0  0  # atno 27225 bound_to 7317
  196.6532    6.5470   49.8129 LP  0  0  0  0  0  0  0  0  0  0  0  0  # atno 27226 bound_to 7405
  197.7396    3.5157   53.4653 LP  0  0  0  0  0  0  0  0  0  0  0  0  # atno 27227 bound_to 7408
  198.2215    4.3400   52.0202 LP  0  0  0  0  0  0  0  0  0  0  0  0  # atno 27228 bound_to 7408
  194.7281    5.1901   53.5994 LP  0  0  0  0  0  0  0  0  0  0  0  0  # atno 27229 bound_to 7446
  194.3158    3.1897   54.7813 LP  0  0  0  0  0  0  0  0  0  0  0  0  # atno 27230 bound_to 7507
  184.8538    1.4721   49.2251 LP  0  0  0  0  0  0  0  0  0  0  0  0  # atno 27232 bound_to 17117
  185.8041    2.7860   48.6162 LP  0  0  0  0  0  0  0  0  0  0  0  0  # atno 27233 bound_to 17117
  183.7438    3.1621   48.5054 LP  0  0  0  0  0  0  0  0  0  0  0  0  # atno 27234 bound_to 17168
  186.0325    3.2851   45.2826 LP  0  0  0  0  0  0  0  0  0  0  0  0  # atno 27235 bound_to 17210
  185.6255    1.5899   45.8152 LP  0  0  0  0  0  0  0  0  0  0  0  0  # atno 27236 bound_to 18193
  186.9371    2.2737   44.9140 LP  0  0  0  0  0  0  0  0  0  0  0  0  # atno 27237 bound_to 18193
  187.5878   -1.3018   46.0198 LP  0  0  0  0  0  0  0  0  0  0  0  0  # atno 27238 bound_to 18265
  188.4787   -2.2169   48.1059 LP  0  0  0  0  0  0  0  0  0  0  0  0  # atno 27239 bound_to 18268
  186.9541   -2.9638   48.4491 LP  0  0  0  0  0  0  0  0  0  0  0  0  # atno 27240 bound_to 18268
  187.6729   -0.2085   48.9704 LP  0  0  0  0  0  0  0  0  0  0  0  0  # atno 27241 bound_to 18307
  184.4900   -0.7543   51.8644 LP  0  0  0  0  0  0  0  0  0  0  0  0  # atno 27242 bound_to 18310
  185.1449   -2.3049   51.4562 LP  0  0  0  0  0  0  0  0  0  0  0  0  # atno 27243 bound_to 18310
  187.7110    0.0043   53.1448 LP  0  0  0  0  0  0  0  0  0  0  0  0  # atno 27244 bound_to 18345
  188.1454    1.3821   54.8089 LP  0  0  0  0  0  0  0  0  0  0  0  0  # atno 27245 bound_to 18348
  187.4464    2.7617   54.0290 LP  0  0  0  0  0  0  0  0  0  0  0  0  # atno 27246 bound_to 18348
  186.0151    1.5605   54.9249 LP  0  0  0  0  0  0  0  0  0  0  0  0  # atno 27247 bound_to 18439
  187.8701    4.0179   56.5731 LP  0  0  0  0  0  0  0  0  0  0  0  0  # atno 27248 bound_to 18519
  183.5074    5.7336   45.0530 LP  0  0  0  0  0  0  0  0  0  0  0  0  # atno 27253 bound_to 17171
  182.8845    4.3101   44.2876 LP  0  0  0  0  0  0  0  0  0  0  0  0  # atno 27254 bound_to 17171
  187.1463    3.5722   41.7054 LP  0  0  0  0  0  0  0  0  0  0  0  0  # atno 27255 bound_to 17213
  186.6326    2.8914   43.2129 LP  0  0  0  0  0  0  0  0  0  0  0  0  # atno 27256 bound_to 17213
  180.0745    2.6444   48.6251 LP  0  0  0  0  0  0  0  0  0  0  0  0  # atno 27257 bound_to 17042
  180.5139    4.0252   49.5739 LP  0  0  0  0  0  0  0  0  0  0  0  0  # atno 27258 bound_to 17042
  185.7711    6.5767   42.2427 LP  0  0  0  0  0  0  0  0  0  0  0  0  # atno 27259 bound_to 17273
  182.2583    6.8830   51.2249 LP  0  0  0  0  0  0  0  0  0  0  0  0  # atno 27260 bound_to 18450
  182.4291    8.1829   52.1983 LP  0  0  0  0  0  0  0  0  0  0  0  0  # atno 27261 bound_to 18450
  187.0198    1.7778   42.8435 LP  0  0  0  0  0  0  0  0  0  0  0  0  # atno 27262 bound_to 18190
  184.7828   -2.4541   48.0771 LP  0  0  0  0  0  0  0  0  0  0  0  0  # atno 27263 bound_to 18270
  185.2911   -2.3025   46.5327 LP  0  0  0  0  0  0  0  0  0  0  0  0  # atno 27264 bound_to 18270
  188.7766   -4.2507   51.4325 LP  0  0  0  0  0  0  0  0  0  0  0  0  # atno 27265 bound_to 10086
  189.8873   -3.3441   50.6509 LP  0  0  0  0  0  0  0  0  0  0  0  0  # atno 27266 bound_to 10086
  186.6232   -2.7730   45.0737 LP  0  0  0  0  0  0  0  0  0  0  0  0  # atno 27267 bound_to 10127
  188.3325   -2.5070   44.9856 LP  0  0  0  0  0  0  0  0  0  0  0  0  # atno 27268 bound_to 10127
  185.4193    8.5959   42.2318 LP  0  0  0  0  0  0  0  0  0  0  0  0  # atno 27269 bound_to 11404
  184.5495    7.3887   43.1185 LP  0  0  0  0  0  0  0  0  0  0  0  0  # atno 27270 bound_to 11404
  181.1465    8.2835   49.9380 LP  0  0  0  0  0  0  0  0  0  0  0  0  # atno 27271 bound_to 16942
  180.1252    9.4825   50.3693 LP  0  0  0  0  0  0  0  0  0  0  0  0  # atno 27272 bound_to 16942
  182.6906    9.3214   43.3593 LP  0  0  0  0  0  0  0  0  0  0  0  0  # atno 27273 bound_to 11448
  181.8348    4.7528   43.8090 LP  0  0  0  0  0  0  0  0  0  0  0  0  # atno 27274 bound_to 11515
  179.4537    6.3898   47.4213 LP  0  0  0  0  0  0  0  0  0  0  0  0  # atno 27275 bound_to 11594
  178.6909    7.8815   47.8605 LP  0  0  0  0  0  0  0  0  0  0  0  0  # atno 27276 bound_to 11594
  179.4657    5.7275   44.7596 LP  0  0  0  0  0  0  0  0  0  0  0  0  # atno 27277 bound_to 11591
  182.3501   11.0070   43.6284 LP  0  0  0  0  0  0  0  0  0  0  0  0  # atno 27282 bound_to 11406
  181.6639   11.7685   42.3571 LP  0  0  0  0  0  0  0  0  0  0  0  0  # atno 27283 bound_to 11406
  183.4696   12.0449   55.5240 LP  0  0  0  0  0  0  0  0  0  0  0  0  # atno 27284 bound_to 18675
  185.1510   12.3618   55.2545 LP  0  0  0  0  0  0  0  0  0  0  0  0  # atno 27285 bound_to 18675

> <Gold.Score>
     Fitness  S(hb_ext) S(vdw_ext)  S(hb_int)    S(int)      intcor
     31.92       4.59      20.37       0.00      -0.68      -0.76

> <Gold.Goldscore.Fitness>
31.9220

> <Gold.Goldscore.Internal.Vdw>
-0.7488

> <Gold.Goldscore.Internal.Torsion>
-0.6933

> <Gold.Goldscore.External.Vdw>
20.3695

> <Gold.Goldscore.Internal.HBond>
0.0000

> <Gold.Goldscore.External.HBond>
4.5911

> <Gold.Goldscore.Internal.Correction>
-0.7650

> <Gold.Goldscore.Hbonds>
donor molecule, donor type, donor heavy atom, donor atom, acceptor molecule, acceptor atom, score
      P1  H 19331 19364       L1     9  0.14
      P1  H 11455 11489       L1     9  0.09
      P1  H 19332 19366       L1     9  0.42
      L1  H     8    22       P1 16942  0.52

> <Gold.Goldscore.Internal.Vdw.Weighted>
-0.7488

> <Gold.Goldscore.Internal.Torsion.Weighted>
-0.6933

> <Gold.Goldscore.External.Vdw.Weighted>
28.0080

> <Gold.Goldscore.Internal.HBond.Weighted>
0.0000

> <Gold.Goldscore.External.HBond.Weighted>
4.5911

> <Gold.Goldscore.Internal.Correction.Weighted>
-0.7650

> <Gold.Rescore>
     Score     S(PLP)   S(hbond)     S(cho)   S(metal)  DE(clash)   DE(tors)     intcor
      3.17      -1.27       1.44       0.00       0.00       0.00       1.21       ----

> <Gold.PLP.Fitness>
3.1705

> <Gold.PLP.PLP>
-1.2742

> <Gold.PLP.part.hbond>
-3.2749

> <Gold.PLP.part.metal>
0.0000

> <Gold.PLP.part.buried>
2.2000

> <Gold.PLP.part.nonpolar>
-14.8057

> <Gold.PLP.part.repulsive>
13.8702

> <Gold.PLP.ligand.clash>
0.0000

> <Gold.PLP.ligand.torsion>
1.2105

> <Gold.PLP.Chemscore.Hbond>
1.4391

> <Gold.PLP.Chemscore.CHOScore>
0.0000

> <Gold.PLP.Chemscore.Metal>
0.0000

> <Gold.Chemscore.Hbonds>
donor molecule, donor type, donor heavy atom, donor atom, acceptor molecule, acceptor atom, score
      P1  H 19332 19366       L1     9  0.42

> <Gold.PLP.Chemscore.Internal.Correction>
   9.000000E+99

