#       Name:                CT1002167954
#       Creating user name   hitesit
#       Creation time:       Sun Apr 16 02:23:51 2023


#       File generated by GOLD software.
#

@<TRIPOS>MOLECULE
CT1002167954|ligand_prepared|mol2|1|dock9
    29    30     1
SMALL
NO_CHARGES


@<TRIPOS>ATOM
      1 C1          -2.7458  30.5791 -28.5125 C.3            1 RES1               0.0000
      2 C2          -3.0038  32.0989 -28.4629 C.ar           1 RES1               0.0000
      3 C3          -4.0517  29.9090 -28.0954 C.2            1 RES1               0.0000
      4 C4          -2.3144  30.2660 -29.9410 C.2            1 RES1               0.0000
      5 C5          -1.6240  30.1043 -27.5598 C.3            1 RES1               0.0000
      6 C6          -4.1960  32.6313 -28.9443 C.ar           1 RES1               0.0000
      7 C7          -2.0618  32.9791 -27.9371 C.ar           1 RES1               0.0000
      8 N8          -4.7917  29.3061 -29.0695 N.am           1 RES1               0.0000
      9 O9          -4.4457  29.9433 -26.9362 O.2            1 RES1               0.0000
     10 N10         -3.1404  29.4830 -30.7041 N.am           1 RES1               0.0000
     11 O11         -1.2748  30.7040 -30.4180 O.2            1 RES1               0.0000
     12 C12         -1.5109  28.5918 -27.4514 C.3            1 RES1               0.0000
     13 C13         -4.4392  33.9941 -28.8991 C.ar           1 RES1               0.0000
     14 C14         -2.3069  34.3417 -27.8931 C.ar           1 RES1               0.0000
     15 C15         -4.3742  29.0142 -30.3432 C.2            1 RES1               0.0000
     16 C16         -3.4951  34.8501 -28.3731 C.ar           1 RES1               0.0000
     17 O17         -5.0820  28.3615 -31.1048 O.2            1 RES1               0.0000
     18 H18         -0.6665  30.5055 -27.9142 H              1 RES1               0.0000
     19 H19         -1.8111  30.5168 -26.5607 H              1 RES1               0.0000
     20 H20         -4.9498  31.9735 -29.3640 H              1 RES1               0.0000
     21 H21         -1.1195  32.6017 -27.5547 H              1 RES1               0.0000
     22 H22         -5.7435  29.0484 -28.8287 H              1 RES1               0.0000
     23 H23         -2.8043  29.2256 -31.6267 H              1 RES1               0.0000
     24 H24         -0.7092  28.3127 -26.7709 H              1 RES1               0.0000
     25 H25         -2.4377  28.1615 -27.0776 H              1 RES1               0.0000
     26 H26         -1.2998  28.1502 -28.4231 H              1 RES1               0.0000
     27 H27         -5.3753  34.3893 -29.2794 H              1 RES1               0.0000
     28 H28         -1.5608  35.0117 -27.4788 H              1 RES1               0.0000
     29 H29         -3.6859  35.9175 -28.3374 H              1 RES1               0.0000
@<TRIPOS>BOND
    1    1    2 1     
    2    1    3 1     
    3    1    4 1     
    4    1    5 1     
    5    2    6 ar    
    6    2    7 ar    
    7    3    8 1     
    8    3    9 2     
    9    4   10 1     
   10    4   11 2     
   11    5   12 1     
   12    5   18 1     
   13    5   19 1     
   14    6   13 ar    
   15    6   20 1     
   16    7   14 ar    
   17    7   21 1     
   18    8   15 1     
   19    8   22 1     
   20   10   15 1     
   21   10   23 1     
   22   12   24 1     
   23   12   25 1     
   24   12   26 1     
   25   13   16 ar    
   26   13   27 1     
   27   14   16 ar    
   28   14   28 1     
   29   15   17 2     
   30   16   29 1     
@<TRIPOS>SUBSTRUCTURE
      1 RES1           1
@<TRIPOS>SET
DONOR_HYDROGENS      STATIC     ATOMS    <user>   **** ""
2 22 23
ATOM$RED        STATIC     ATOMS    COLORGROUP SYSTEM
2 22 23
@<TRIPOS>COMMENT
> <Gold.Version>
2022.3.0

> <Gold.Id.Protein>
unknown|7ta6_clean|pdb

> <Gold.Protein.RotatedTorsions>
[ 1479 1443 1444 1445 ] final  -62.48 input   95.13 | X-H torsion
[ 1715 1671 1672 1673 ] final   22.98 input  105.58 | X-H torsion
[ 1815 1791 1792 1793 ] final -179.22 input  118.53 | X-H torsion
[ 1925 1887 1888 1889 ] final   15.51 input   64.46 | X-H torsion
[ 2001 1982 1983 1984 ] final -116.50 input -106.71 | X-H torsion
[ 2100 2058 2059 2060 ] final -106.39 input   13.45 | X-H torsion
[ 2231 2190 2191 2192 ] final  -73.13 input   70.14 | X-H torsion
[ 2399 2355 2356 2357 ] final  121.84 input   76.48 | X-H torsion
[ 15022 14946 14947 14948 ] final  -80.98 input  119.61 | X-H torsion
[ 15146 15098 15099 15100 ] final  -19.66 input   10.36 | X-H torsion
[ 15286 15206 15207 15208 ] final    2.06 input -115.44 | X-H torsion
[ 15382 15342 15343 15344 ] final   88.06 input  111.11 | X-H torsion
[ 14730 14682 14683 14684 ] final  120.55 input  117.17 | X-H torsion
[ 1374 1351 1352 1353 ] final -154.42 input  113.38 | X-H torsion
[ 15498 15438 15439 15440 ] final  -25.14 input  116.04 | X-H torsion
[ 15590 15546 15547 15548 ] final -122.53 input  104.39 | X-H torsion
[ 20694 1354 1353 1352 ] final   47.13 input    0.00 | X-H torsion
[ 20697 1446 1445 1444 ] final  -46.96 input    0.00 | X-H torsion
[ 20700 1554 1553 1552 ] final   97.06 input    0.00 | X-H torsion
[ 20703 1674 1673 1672 ] final -156.44 input   -0.00 | X-H torsion
[ 20706 1794 1793 1792 ] final   95.72 input    0.00 | X-H torsion
[ 20709 1890 1889 1888 ] final   46.70 input    0.00 | X-H torsion
[ 20716 1985 1984 1983 ] final  -12.49 input    0.00 | X-H torsion
[ 20719 2061 2060 2059 ] final  -47.67 input    0.00 | X-H torsion
[ 20723 2358 2357 2356 ] final  157.43 input    0.00 | X-H torsion
[ 20725 14569 14568 14567 ] final   43.92 input   -0.00 | X-H torsion
[ 20728 14949 14948 14947 ] final   42.96 input    0.00 | X-H torsion
[ 20731 15101 15100 15099 ] final    8.98 input   -0.00 | X-H torsion
[ 20742 14685 14684 14683 ] final   67.01 input   -0.00 | X-H torsion
[ 20745 6649 6648 6647 ] final   -5.06 input    0.00 | X-H torsion
[ 20747 14797 14796 14795 ] final   19.11 input    0.00 | X-H torsion
[ 20749 15209 15208 15207 ] final   13.22 input    0.00 | X-H torsion
[ 20751 15345 15344 15343 ] final -121.61 input    0.00 | X-H torsion

> <Gold.Protein.ActiveResidues>
 ALA18   ASN19   PRO20   GLN21   ALA22   GLU23   GLY24   GLN25   LEU26   GLN27  
 LEU63   ILE136  PRO139  ASP140  TYR141  LEU142  ASP143  PHE144  ALA145  GLU146 
 SER147  VAL150 

> <Gold.Protein.RotatedAtoms>
   -9.9583   38.8820  -30.8267 H   0  0  0  0  0  0  0  0  0  0  0  0  # atno 1374 bound_to 1351
   -6.7869   37.0224  -31.6621 H   0  0  0  0  0  0  0  0  0  0  0  0  # atno 1479 bound_to 1443
   -2.7275   34.3112  -33.0468 H   0  0  0  0  0  0  0  0  0  0  0  0  # atno 1715 bound_to 1671
   -1.0455   35.5099  -32.8289 H   0  0  0  0  0  0  0  0  0  0  0  0  # atno 1815 bound_to 1791
    1.4888   35.8608  -29.0349 H   0  0  0  0  0  0  0  0  0  0  0  0  # atno 1925 bound_to 1887
    0.5136   33.5819  -26.5177 H   0  0  0  0  0  0  0  0  0  0  0  0  # atno 2001 bound_to 1982
   -0.4167   36.1045  -24.6408 H   0  0  0  0  0  0  0  0  0  0  0  0  # atno 2100 bound_to 2058
   -2.2800   38.7305  -26.4446 H   0  0  0  0  0  0  0  0  0  0  0  0  # atno 2231 bound_to 2190
   -3.0970   39.5343  -28.5275 H   0  0  0  0  0  0  0  0  0  0  0  0  # atno 2399 bound_to 2355
   -1.0481   34.4556  -19.7123 H   0  0  0  0  0  0  0  0  0  0  0  0  # atno 14730 bound_to 14682
   -5.5806   31.8984  -21.1375 H   0  0  0  0  0  0  0  0  0  0  0  0  # atno 15022 bound_to 14946
   -7.7423   32.2379  -24.8266 H   0  0  0  0  0  0  0  0  0  0  0  0  # atno 15146 bound_to 15098
   -8.1543   30.4487  -27.5147 H   0  0  0  0  0  0  0  0  0  0  0  0  # atno 15286 bound_to 15206
   -8.1707   30.9255  -29.5010 H   0  0  0  0  0  0  0  0  0  0  0  0  # atno 15382 bound_to 15342
   -9.8568   31.6672  -31.6725 H   0  0  0  0  0  0  0  0  0  0  0  0  # atno 15498 bound_to 15438
  -11.1463   29.9370  -33.3606 H   0  0  0  0  0  0  0  0  0  0  0  0  # atno 15590 bound_to 15546
   -8.5599   36.7653  -33.1583 LP  0  0  0  0  0  0  0  0  0  0  0  0  # atno 20694 bound_to 1354
   -7.3206   35.5907  -32.8673 LP  0  0  0  0  0  0  0  0  0  0  0  0  # atno 20695 bound_to 1354
   -5.6917   38.3531  -31.3494 LP  0  0  0  0  0  0  0  0  0  0  0  0  # atno 20696 bound_to 1443
   -2.9718   36.0447  -31.1824 LP  0  0  0  0  0  0  0  0  0  0  0  0  # atno 20697 bound_to 1446
   -4.0014   34.8239  -30.5120 LP  0  0  0  0  0  0  0  0  0  0  0  0  # atno 20698 bound_to 1446
   -2.3149   31.0920  -32.2438 LP  0  0  0  0  0  0  0  0  0  0  0  0  # atno 20700 bound_to 1554
   -2.0905   32.3017  -31.0247 LP  0  0  0  0  0  0  0  0  0  0  0  0  # atno 20701 bound_to 1554
   -3.0849   32.8816  -33.9848 LP  0  0  0  0  0  0  0  0  0  0  0  0  # atno 20702 bound_to 1671
    1.5379   33.8451  -31.8393 LP  0  0  0  0  0  0  0  0  0  0  0  0  # atno 20703 bound_to 1674
    1.5362   33.2782  -33.4760 LP  0  0  0  0  0  0  0  0  0  0  0  0  # atno 20704 bound_to 1674
   -0.8552   33.9762  -32.0161 LP  0  0  0  0  0  0  0  0  0  0  0  0  # atno 20705 bound_to 1791
    0.1558   32.7061  -30.2265 LP  0  0  0  0  0  0  0  0  0  0  0  0  # atno 20706 bound_to 1794
   -0.8960   33.5587  -29.1463 LP  0  0  0  0  0  0  0  0  0  0  0  0  # atno 20707 bound_to 1794
    1.3701   34.5655  -30.2070 LP  0  0  0  0  0  0  0  0  0  0  0  0  # atno 20708 bound_to 1887
    3.3127   36.1947  -27.2273 LP  0  0  0  0  0  0  0  0  0  0  0  0  # atno 20709 bound_to 1890
    3.4462   35.3934  -25.6976 LP  0  0  0  0  0  0  0  0  0  0  0  0  # atno 20710 bound_to 1890
    1.8398   34.6865  -26.7987 LP  0  0  0  0  0  0  0  0  0  0  0  0  # atno 20715 bound_to 1982
    1.8841   36.6619  -23.3291 LP  0  0  0  0  0  0  0  0  0  0  0  0  # atno 20716 bound_to 1985
    1.1149   38.0172  -24.0852 LP  0  0  0  0  0  0  0  0  0  0  0  0  # atno 20717 bound_to 1985
   -0.0693   36.2760  -26.3456 LP  0  0  0  0  0  0  0  0  0  0  0  0  # atno 20718 bound_to 2058
   -2.0270   36.8325  -27.5760 LP  0  0  0  0  0  0  0  0  0  0  0  0  # atno 20719 bound_to 2061
   -3.5559   36.8124  -26.7624 LP  0  0  0  0  0  0  0  0  0  0  0  0  # atno 20720 bound_to 2061
   -2.7509   39.4561  -24.9203 LP  0  0  0  0  0  0  0  0  0  0  0  0  # atno 20721 bound_to 2190
   -4.6237   40.2384  -28.0357 LP  0  0  0  0  0  0  0  0  0  0  0  0  # atno 20722 bound_to 2355
   -6.2929   39.8570  -31.3049 LP  0  0  0  0  0  0  0  0  0  0  0  0  # atno 20723 bound_to 2358
   -4.7374   39.1649  -30.9863 LP  0  0  0  0  0  0  0  0  0  0  0  0  # atno 20724 bound_to 2358
   -2.2417   34.3439  -23.4059 LP  0  0  0  0  0  0  0  0  0  0  0  0  # atno 20725 bound_to 14569
   -2.6228   32.9080  -22.5154 LP  0  0  0  0  0  0  0  0  0  0  0  0  # atno 20726 bound_to 14569
   -4.3513   32.9314  -21.8252 LP  0  0  0  0  0  0  0  0  0  0  0  0  # atno 20727 bound_to 14946
   -4.4916   30.6980  -23.3833 LP  0  0  0  0  0  0  0  0  0  0  0  0  # atno 20728 bound_to 14949
   -4.7110   30.7582  -25.1004 LP  0  0  0  0  0  0  0  0  0  0  0  0  # atno 20729 bound_to 14949
   -6.5561   31.3231  -23.9242 LP  0  0  0  0  0  0  0  0  0  0  0  0  # atno 20730 bound_to 15098
   -9.0555   32.1578  -25.6100 LP  0  0  0  0  0  0  0  0  0  0  0  0  # atno 20731 bound_to 15101
  -10.2268   31.4381  -26.6636 LP  0  0  0  0  0  0  0  0  0  0  0  0  # atno 20732 bound_to 15101
   -8.4812   28.8495  -26.8779 LP  0  0  0  0  0  0  0  0  0  0  0  0  # atno 20737 bound_to 15206
   -9.8004   31.1845  -28.9333 LP  0  0  0  0  0  0  0  0  0  0  0  0  # atno 20738 bound_to 15342
   -1.9364   34.2945  -21.2060 LP  0  0  0  0  0  0  0  0  0  0  0  0  # atno 20741 bound_to 14682
   -1.4585   29.7528  -20.8103 LP  0  0  0  0  0  0  0  0  0  0  0  0  # atno 20742 bound_to 14685
   -2.5835   30.2796  -22.0173 LP  0  0  0  0  0  0  0  0  0  0  0  0  # atno 20743 bound_to 14685
   -9.8012   37.5216  -31.9119 LP  0  0  0  0  0  0  0  0  0  0  0  0  # atno 20744 bound_to 1351
   -9.6165   32.7802  -23.8010 LP  0  0  0  0  0  0  0  0  0  0  0  0  # atno 20745 bound_to 6649
   -8.6893   32.1704  -22.4712 LP  0  0  0  0  0  0  0  0  0  0  0  0  # atno 20746 bound_to 6649
   -6.6717   30.0353  -20.5694 LP  0  0  0  0  0  0  0  0  0  0  0  0  # atno 20747 bound_to 14797
   -6.8782   30.6581  -22.1724 LP  0  0  0  0  0  0  0  0  0  0  0  0  # atno 20748 bound_to 14797
  -12.0665   30.8339  -29.0100 LP  0  0  0  0  0  0  0  0  0  0  0  0  # atno 20749 bound_to 15209
  -11.3541   31.9091  -30.1661 LP  0  0  0  0  0  0  0  0  0  0  0  0  # atno 20750 bound_to 15209
  -11.2839   32.7936  -32.6037 LP  0  0  0  0  0  0  0  0  0  0  0  0  # atno 20751 bound_to 15345
  -10.1419   34.0860  -32.4440 LP  0  0  0  0  0  0  0  0  0  0  0  0  # atno 20752 bound_to 15345
   -8.2421   31.0601  -31.9502 LP  0  0  0  0  0  0  0  0  0  0  0  0  # atno 20753 bound_to 15438

> <Gold.Score>
     Fitness  S(hb_ext) S(vdw_ext)  S(hb_int)    S(int)      intcor
     29.15       0.20      21.18       0.00      -0.16      -0.76

> <Gold.Goldscore.Fitness>
29.1497

> <Gold.Goldscore.Internal.Vdw>
-0.4318

> <Gold.Goldscore.Internal.Torsion>
-0.4911

> <Gold.Goldscore.External.Vdw>
21.1767

> <Gold.Goldscore.Internal.HBond>
0.0000

> <Gold.Goldscore.External.HBond>
0.1961

> <Gold.Goldscore.Internal.Correction>
-0.7585

> <Gold.Goldscore.Hbonds>
donor molecule, donor type, donor heavy atom, donor atom, acceptor molecule, acceptor atom, score
      L1  H     8    22       P1 15104  0.03

> <Gold.Goldscore.Internal.Vdw.Weighted>
-0.4318

> <Gold.Goldscore.Internal.Torsion.Weighted>
-0.4911

> <Gold.Goldscore.External.Vdw.Weighted>
29.1180

> <Gold.Goldscore.Internal.HBond.Weighted>
0.0000

> <Gold.Goldscore.External.HBond.Weighted>
0.1961

> <Gold.Goldscore.Internal.Correction.Weighted>
-0.7585

> <Gold.Rescore>
     Score     S(PLP)   S(hbond)     S(cho)   S(metal)  DE(clash)   DE(tors)     intcor
     14.50     -15.76       0.00       0.00       0.00       0.00       0.63       ----

> <Gold.PLP.Fitness>
14.4979

> <Gold.PLP.PLP>
-15.7621

> <Gold.PLP.part.hbond>
-0.8481

> <Gold.PLP.part.metal>
0.0000

> <Gold.PLP.part.buried>
8.0652

> <Gold.PLP.part.nonpolar>
-24.9084

> <Gold.PLP.part.repulsive>
3.1390

> <Gold.PLP.ligand.clash>
0.0000

> <Gold.PLP.ligand.torsion>
0.6321

> <Gold.PLP.Chemscore.Hbond>
0.0000

> <Gold.PLP.Chemscore.CHOScore>
0.0000

> <Gold.PLP.Chemscore.Metal>
0.0000

> <Gold.PLP.Chemscore.Internal.Correction>
   9.000000E+99

