#       Name:                CT1002167954
#       Creating user name   hitesit
#       Creation time:       Sun Apr 16 02:23:51 2023


#       File generated by GOLD software.
#

@<TRIPOS>MOLECULE
CT1002167954|ligand_prepared|mol2|1|dock8
    29    30     1
SMALL
NO_CHARGES


@<TRIPOS>ATOM
      1 C1          -3.6973  32.0185 -27.8814 C.3            1 RES1               0.0000
      2 C2          -3.2985  31.2005 -26.6362 C.ar           1 RES1               0.0000
      3 C3          -2.9973  31.3618 -29.0676 C.2            1 RES1               0.0000
      4 C4          -5.2196  31.9713 -27.9533 C.2            1 RES1               0.0000
      5 C5          -3.2679  33.5028 -27.8179 C.3            1 RES1               0.0000
      6 C6          -2.9917  31.8382 -25.4379 C.ar           1 RES1               0.0000
      7 C7          -3.2357  29.8100 -26.6695 C.ar           1 RES1               0.0000
      8 N8          -3.7625  30.6283 -29.9258 N.am           1 RES1               0.0000
      9 O9          -1.7862  31.4534 -29.2256 O.2            1 RES1               0.0000
     10 N10         -5.7924  31.3187 -29.0134 N.am           1 RES1               0.0000
     11 O11         -5.9281  32.4789 -27.0927 O.2            1 RES1               0.0000
     12 C12         -3.5332  34.2733 -29.1016 C.3            1 RES1               0.0000
     13 C13         -2.6378  31.1121 -24.3128 C.ar           1 RES1               0.0000
     14 C14         -2.8813  29.0858 -25.5433 C.ar           1 RES1               0.0000
     15 C15         -5.1328  30.6187 -29.9866 C.2            1 RES1               0.0000
     16 C16         -2.5828  29.7356 -24.3646 C.ar           1 RES1               0.0000
     17 O17         -5.7203  30.0118 -30.8775 O.2            1 RES1               0.0000
     18 H18         -3.8053  33.9909 -26.9955 H              1 RES1               0.0000
     19 H19         -2.1953  33.5507 -27.5926 H              1 RES1               0.0000
     20 H20         -3.0272  32.9210 -25.3788 H              1 RES1               0.0000
     21 H21         -3.4654  29.2776 -27.5863 H              1 RES1               0.0000
     22 H22         -3.2702  30.0316 -30.5830 H              1 RES1               0.0000
     23 H23         -6.8042  31.3587 -29.0837 H              1 RES1               0.0000
     24 H24         -3.2135  35.3086 -29.0031 H              1 RES1               0.0000
     25 H25         -2.9938  33.8301 -29.9361 H              1 RES1               0.0000
     26 H26         -4.5942  34.2677 -29.3425 H              1 RES1               0.0000
     27 H27         -2.4024  31.6283 -23.3879 H              1 RES1               0.0000
     28 H28         -2.8387  28.0026 -25.5888 H              1 RES1               0.0000
     29 H29         -2.3059  29.1670 -23.4830 H              1 RES1               0.0000
@<TRIPOS>BOND
    1    1    2 1     
    2    1    3 1     
    3    1    4 1     
    4    1    5 1     
    5    2    6 ar    
    6    2    7 ar    
    7    3    8 1     
    8    3    9 2     
    9    4   10 1     
   10    4   11 2     
   11    5   12 1     
   12    5   18 1     
   13    5   19 1     
   14    6   13 ar    
   15    6   20 1     
   16    7   14 ar    
   17    7   21 1     
   18    8   15 1     
   19    8   22 1     
   20   10   15 1     
   21   10   23 1     
   22   12   24 1     
   23   12   25 1     
   24   12   26 1     
   25   13   16 ar    
   26   13   27 1     
   27   14   16 ar    
   28   14   28 1     
   29   15   17 2     
   30   16   29 1     
@<TRIPOS>SUBSTRUCTURE
      1 RES1           1
@<TRIPOS>SET
DONOR_HYDROGENS      STATIC     ATOMS    <user>   **** ""
2 22 23
ATOM$RED        STATIC     ATOMS    COLORGROUP SYSTEM
2 22 23
@<TRIPOS>COMMENT
> <Gold.Version>
2022.3.0

> <Gold.Id.Protein>
unknown|7ta6_clean|pdb

> <Gold.Protein.RotatedTorsions>
[ 1479 1443 1444 1445 ] final  -58.09 input   95.13 | X-H torsion
[ 1715 1671 1672 1673 ] final  151.89 input  105.58 | X-H torsion
[ 1815 1791 1792 1793 ] final  114.52 input  118.53 | X-H torsion
[ 1925 1887 1888 1889 ] final  -61.60 input   64.46 | X-H torsion
[ 2001 1982 1983 1984 ] final   87.62 input -106.71 | X-H torsion
[ 2100 2058 2059 2060 ] final   19.13 input   13.45 | X-H torsion
[ 2231 2190 2191 2192 ] final   64.62 input   70.14 | X-H torsion
[ 2399 2355 2356 2357 ] final   19.62 input   76.48 | X-H torsion
[ 15022 14946 14947 14948 ] final  142.02 input  119.61 | X-H torsion
[ 15146 15098 15099 15100 ] final  108.60 input   10.36 | X-H torsion
[ 15286 15206 15207 15208 ] final  -82.27 input -115.44 | X-H torsion
[ 15382 15342 15343 15344 ] final  -92.45 input  111.11 | X-H torsion
[ 14730 14682 14683 14684 ] final -115.71 input  117.17 | X-H torsion
[ 1374 1351 1352 1353 ] final -136.36 input  113.38 | X-H torsion
[ 15498 15438 15439 15440 ] final   44.54 input  116.04 | X-H torsion
[ 15590 15546 15547 15548 ] final  155.77 input  104.39 | X-H torsion
[ 20694 1354 1353 1352 ] final  -48.74 input    0.00 | X-H torsion
[ 20697 1446 1445 1444 ] final   18.90 input    0.00 | X-H torsion
[ 20700 1554 1553 1552 ] final -133.84 input    0.00 | X-H torsion
[ 20703 1674 1673 1672 ] final  -45.51 input   -0.00 | X-H torsion
[ 20706 1794 1793 1792 ] final  -61.19 input    0.00 | X-H torsion
[ 20709 1890 1889 1888 ] final  -83.13 input    0.00 | X-H torsion
[ 20716 1985 1984 1983 ] final  -24.69 input    0.00 | X-H torsion
[ 20719 2061 2060 2059 ] final    5.37 input    0.00 | X-H torsion
[ 20723 2358 2357 2356 ] final   71.16 input    0.00 | X-H torsion
[ 20725 14569 14568 14567 ] final   70.76 input   -0.00 | X-H torsion
[ 20728 14949 14948 14947 ] final   49.14 input    0.00 | X-H torsion
[ 20731 15101 15100 15099 ] final  146.14 input   -0.00 | X-H torsion
[ 20742 14685 14684 14683 ] final  163.18 input   -0.00 | X-H torsion
[ 20745 6649 6648 6647 ] final  -58.93 input    0.00 | X-H torsion
[ 20747 14797 14796 14795 ] final    9.04 input    0.00 | X-H torsion
[ 20749 15209 15208 15207 ] final    1.70 input    0.00 | X-H torsion
[ 20751 15345 15344 15343 ] final   66.63 input    0.00 | X-H torsion

> <Gold.Protein.ActiveResidues>
 ALA18   ASN19   PRO20   GLN21   ALA22   GLU23   GLY24   GLN25   LEU26   GLN27  
 LEU63   ILE136  PRO139  ASP140  TYR141  LEU142  ASP143  PHE144  ALA145  GLU146 
 SER147  VAL150 

> <Gold.Protein.RotatedAtoms>
   -9.8659   39.0159  -31.0514 H   0  0  0  0  0  0  0  0  0  0  0  0  # atno 1374 bound_to 1351
   -6.7570   36.9891  -31.6105 H   0  0  0  0  0  0  0  0  0  0  0  0  # atno 1479 bound_to 1443
   -3.0715   33.5196  -34.3854 H   0  0  0  0  0  0  0  0  0  0  0  0  # atno 1715 bound_to 1671
   -1.6696   35.1806  -32.1725 H   0  0  0  0  0  0  0  0  0  0  0  0  # atno 1815 bound_to 1791
    0.6582   35.1406  -29.1883 H   0  0  0  0  0  0  0  0  0  0  0  0  # atno 1925 bound_to 1887
    2.0320   34.4039  -26.6668 H   0  0  0  0  0  0  0  0  0  0  0  0  # atno 2001 bound_to 1982
   -0.8058   36.0198  -26.1646 H   0  0  0  0  0  0  0  0  0  0  0  0  # atno 2100 bound_to 2058
   -2.5435   39.9165  -25.3023 H   0  0  0  0  0  0  0  0  0  0  0  0  # atno 2231 bound_to 2190
   -4.4610   39.4320  -28.7662 H   0  0  0  0  0  0  0  0  0  0  0  0  # atno 2399 bound_to 2355
   -1.1517   34.5368  -21.2583 H   0  0  0  0  0  0  0  0  0  0  0  0  # atno 14730 bound_to 14682
   -4.7389   33.2736  -21.4475 H   0  0  0  0  0  0  0  0  0  0  0  0  # atno 15022 bound_to 14946
   -7.2799   31.1709  -23.7350 H   0  0  0  0  0  0  0  0  0  0  0  0  # atno 15146 bound_to 15098
   -7.8614   29.3529  -27.9025 H   0  0  0  0  0  0  0  0  0  0  0  0  # atno 15286 bound_to 15206
   -9.8100   31.1858  -28.9196 H   0  0  0  0  0  0  0  0  0  0  0  0  # atno 15382 bound_to 15342
   -9.5633   30.7149  -31.5122 H   0  0  0  0  0  0  0  0  0  0  0  0  # atno 15498 bound_to 15438
  -11.1918   29.7512  -32.2226 H   0  0  0  0  0  0  0  0  0  0  0  0  # atno 15590 bound_to 15546
   -8.3575   35.7648  -32.3763 LP  0  0  0  0  0  0  0  0  0  0  0  0  # atno 20694 bound_to 1354
   -7.5230   36.5912  -33.6493 LP  0  0  0  0  0  0  0  0  0  0  0  0  # atno 20695 bound_to 1354
   -5.7205   38.3852  -31.3991 LP  0  0  0  0  0  0  0  0  0  0  0  0  # atno 20696 bound_to 1443
   -3.7038   36.2424  -30.6242 LP  0  0  0  0  0  0  0  0  0  0  0  0  # atno 20697 bound_to 1446
   -3.2695   34.6261  -31.0702 LP  0  0  0  0  0  0  0  0  0  0  0  0  # atno 20698 bound_to 1446
   -1.5476   32.2538  -31.5315 LP  0  0  0  0  0  0  0  0  0  0  0  0  # atno 20700 bound_to 1554
   -2.8579   31.1399  -31.7370 LP  0  0  0  0  0  0  0  0  0  0  0  0  # atno 20701 bound_to 1554
   -2.7481   33.6565  -32.6743 LP  0  0  0  0  0  0  0  0  0  0  0  0  # atno 20702 bound_to 1671
    1.3104   32.7267  -32.6957 LP  0  0  0  0  0  0  0  0  0  0  0  0  # atno 20703 bound_to 1674
    1.7637   34.3966  -32.6197 LP  0  0  0  0  0  0  0  0  0  0  0  0  # atno 20704 bound_to 1674
   -0.2432   34.2991  -32.6598 LP  0  0  0  0  0  0  0  0  0  0  0  0  # atno 20705 bound_to 1791
   -1.0590   33.6006  -29.4493 LP  0  0  0  0  0  0  0  0  0  0  0  0  # atno 20706 bound_to 1794
    0.3188   32.6642  -29.9234 LP  0  0  0  0  0  0  0  0  0  0  0  0  # atno 20707 bound_to 1794
    2.1726   35.2612  -30.0588 LP  0  0  0  0  0  0  0  0  0  0  0  0  # atno 20708 bound_to 1887
    3.8976   35.1439  -26.2201 LP  0  0  0  0  0  0  0  0  0  0  0  0  # atno 20709 bound_to 1890
    2.8613   36.4443  -26.7048 LP  0  0  0  0  0  0  0  0  0  0  0  0  # atno 20710 bound_to 1890
    0.3617   33.8863  -26.6535 LP  0  0  0  0  0  0  0  0  0  0  0  0  # atno 20715 bound_to 1982
    1.7402   36.6692  -23.2146 LP  0  0  0  0  0  0  0  0  0  0  0  0  # atno 20716 bound_to 1985
    1.2588   38.0100  -24.1997 LP  0  0  0  0  0  0  0  0  0  0  0  0  # atno 20717 bound_to 1985
    0.3096   36.3585  -24.8616 LP  0  0  0  0  0  0  0  0  0  0  0  0  # atno 20718 bound_to 2058
   -2.0880   36.3594  -26.9671 LP  0  0  0  0  0  0  0  0  0  0  0  0  # atno 20719 bound_to 2061
   -3.4949   37.2854  -27.3712 LP  0  0  0  0  0  0  0  0  0  0  0  0  # atno 20720 bound_to 2061
   -2.4978   38.3170  -26.0174 LP  0  0  0  0  0  0  0  0  0  0  0  0  # atno 20721 bound_to 2190
   -3.3091   40.3370  -27.8057 LP  0  0  0  0  0  0  0  0  0  0  0  0  # atno 20722 bound_to 2355
   -5.8067   39.3663  -30.3431 LP  0  0  0  0  0  0  0  0  0  0  0  0  # atno 20723 bound_to 2358
   -5.2236   39.6557  -31.9481 LP  0  0  0  0  0  0  0  0  0  0  0  0  # atno 20724 bound_to 2358
   -1.8893   34.1518  -23.3832 LP  0  0  0  0  0  0  0  0  0  0  0  0  # atno 20725 bound_to 14569
   -2.9752   33.1000  -22.5380 LP  0  0  0  0  0  0  0  0  0  0  0  0  # atno 20726 bound_to 14569
   -5.1759   31.5840  -21.5215 LP  0  0  0  0  0  0  0  0  0  0  0  0  # atno 20727 bound_to 14946
   -4.5418   30.6192  -23.3847 LP  0  0  0  0  0  0  0  0  0  0  0  0  # atno 20728 bound_to 14949
   -4.6608   30.8369  -25.0989 LP  0  0  0  0  0  0  0  0  0  0  0  0  # atno 20729 bound_to 14949
   -7.0060   32.3613  -24.9864 LP  0  0  0  0  0  0  0  0  0  0  0  0  # atno 20730 bound_to 15098
   -9.8560   31.8457  -26.9744 LP  0  0  0  0  0  0  0  0  0  0  0  0  # atno 20731 bound_to 15101
   -9.4263   31.7502  -25.2992 LP  0  0  0  0  0  0  0  0  0  0  0  0  # atno 20732 bound_to 15101
   -8.7630   29.9037  -26.5047 LP  0  0  0  0  0  0  0  0  0  0  0  0  # atno 20737 bound_to 15206
   -8.1865   30.9282  -29.5056 LP  0  0  0  0  0  0  0  0  0  0  0  0  # atno 20738 bound_to 15342
   -1.8346   34.2146  -19.6847 LP  0  0  0  0  0  0  0  0  0  0  0  0  # atno 20741 bound_to 14682
   -2.7335   29.7511  -20.9990 LP  0  0  0  0  0  0  0  0  0  0  0  0  # atno 20742 bound_to 14685
   -1.3085   30.2813  -21.8287 LP  0  0  0  0  0  0  0  0  0  0  0  0  # atno 20743 bound_to 14685
   -9.8916   37.3906  -31.6922 LP  0  0  0  0  0  0  0  0  0  0  0  0  # atno 20744 bound_to 1351
   -9.4459   32.0144  -23.8082 LP  0  0  0  0  0  0  0  0  0  0  0  0  # atno 20745 bound_to 6649
   -8.8598   32.9362  -22.4640 LP  0  0  0  0  0  0  0  0  0  0  0  0  # atno 20746 bound_to 6649
   -6.5772   29.9356  -20.6347 LP  0  0  0  0  0  0  0  0  0  0  0  0  # atno 20747 bound_to 14797
   -6.9727   30.7577  -22.1071 LP  0  0  0  0  0  0  0  0  0  0  0  0  # atno 20748 bound_to 14797
  -12.0664   30.7204  -29.1417 LP  0  0  0  0  0  0  0  0  0  0  0  0  # atno 20749 bound_to 15209
  -11.3541   32.0226  -30.0343 LP  0  0  0  0  0  0  0  0  0  0  0  0  # atno 20750 bound_to 15209
  -10.0976   34.0485  -32.5540 LP  0  0  0  0  0  0  0  0  0  0  0  0  # atno 20751 bound_to 15345
  -11.3282   32.8311  -32.4937 LP  0  0  0  0  0  0  0  0  0  0  0  0  # atno 20752 bound_to 15345
   -8.5291   31.9915  -32.1070 LP  0  0  0  0  0  0  0  0  0  0  0  0  # atno 20753 bound_to 15438

> <Gold.Score>
     Fitness  S(hb_ext) S(vdw_ext)  S(hb_int)    S(int)      intcor
     40.31       4.70      26.65       0.00      -1.03      -0.76

> <Gold.Goldscore.Fitness>
40.3147

> <Gold.Goldscore.Internal.Vdw>
-1.3565

> <Gold.Goldscore.Internal.Torsion>
-0.4273

> <Gold.Goldscore.External.Vdw>
26.6491

> <Gold.Goldscore.Internal.HBond>
0.0000

> <Gold.Goldscore.External.HBond>
4.6975

> <Gold.Goldscore.Internal.Correction>
-0.7585

> <Gold.Goldscore.Hbonds>
donor molecule, donor type, donor heavy atom, donor atom, acceptor molecule, acceptor atom, score
      L1  H    10    23       P1 15342  0.78

> <Gold.Goldscore.Internal.Vdw.Weighted>
-1.3565

> <Gold.Goldscore.Internal.Torsion.Weighted>
-0.4273

> <Gold.Goldscore.External.Vdw.Weighted>
36.6425

> <Gold.Goldscore.Internal.HBond.Weighted>
0.0000

> <Gold.Goldscore.External.HBond.Weighted>
4.6975

> <Gold.Goldscore.Internal.Correction.Weighted>
-0.7585

> <Gold.Rescore>
     Score     S(PLP)   S(hbond)     S(cho)   S(metal)  DE(clash)   DE(tors)     intcor
     13.34     -13.60       0.00       0.00       0.00       0.00       0.13       ----

> <Gold.PLP.Fitness>
13.3429

> <Gold.PLP.PLP>
-13.5960

> <Gold.PLP.part.hbond>
-1.5463

> <Gold.PLP.part.metal>
0.0000

> <Gold.PLP.part.buried>
7.5557

> <Gold.PLP.part.nonpolar>
-24.6990

> <Gold.PLP.part.repulsive>
5.5895

> <Gold.PLP.ligand.clash>
0.0000

> <Gold.PLP.ligand.torsion>
0.1265

> <Gold.PLP.Chemscore.Hbond>
0.0000

> <Gold.PLP.Chemscore.CHOScore>
0.0000

> <Gold.PLP.Chemscore.Metal>
0.0000

> <Gold.Chemscore.Hbonds>
donor molecule, donor type, donor heavy atom, donor atom, acceptor molecule, acceptor atom, score
      L1  H    10    23       P1 15342  0.60

> <Gold.PLP.Chemscore.Internal.Correction>
   9.000000E+99

