@<TRIPOS>MOLECULE
A:EDD355
    54    56     1     0     1
SMALL
NO_CHARGES
****
Generated from the CSD

@<TRIPOS>ATOM
     1 CL61    14.6980  11.5900  30.6560   Cl        1 EDD355   0.0000
     2 CL63    16.2740   9.6390  32.4030   Cl        1 EDD355   0.0000
     3 C1      15.1840  17.2740  26.2830   C.ar      1 EDD355   0.0000
     4 C2      15.8840  17.4720  27.4650   C.ar      1 EDD355   0.0000
     5 C3      15.6390  18.5200  28.3480   C.ar      1 EDD355   0.0000
     6 C4      14.6670  19.4500  28.0490   C.ar      1 EDD355   0.0000
     7 C5      13.9510  19.3070  26.8740   C.ar      1 EDD355   0.0000
     8 C6      14.2190  18.2510  26.0160   C.ar      1 EDD355   0.0000
     9 C13     12.9050  20.3290  26.5260   C.3       1 EDD355   0.0000
    10 C14     13.5330  21.6070  25.9780   C.2       1 EDD355   0.0000
    11 N15     14.4480  21.4820  25.0170   N.am      1 EDD355   0.0000
    12 O19     13.1700  22.6880  26.3990   O.2       1 EDD355   0.0000
    13 N21     15.4070  16.2570  25.4140   N.pl3     1 EDD355   0.0000
    14 N23     15.4240  16.5250  24.0330   N.2       1 EDD355   0.0000
    15 C24     15.6800  15.3330  23.4980   C.2       1 EDD355   0.0000
    16 C25     15.8200  14.3360  24.4360   C.2       1 EDD355   0.0000
    17 C26     15.6600  14.9550  25.6590   C.2       1 EDD355   0.0000
    18 C32     15.7620  15.1040  21.9950   C.3       1 EDD355   0.0000
    19 C34     15.8070  16.4900  21.3210   C.3       1 EDD355   0.0000
    20 C36     14.5240  14.3360  21.5320   C.3       1 EDD355   0.0000
    21 C38     16.9720  14.2380  21.6450   C.3       1 EDD355   0.0000
    22 N40     15.6730  14.4550  26.9340   N.am      1 EDD355   0.0000
    23 C42     16.4850  13.4900  27.3720   C.2       1 EDD355   0.0000
    24 N43     16.3100  13.1580  28.6880   N.am      1 EDD355   0.0000
    25 C44     17.0730  12.2890  29.4200   C.ar      1 EDD355   0.0000
    26 O48     17.2960  12.9290  26.6230   O.2       1 EDD355   0.0000
    27 C50     18.4630  12.1430  29.2640   C.ar      1 EDD355   0.0000
    28 C51     19.1920  11.2480  30.0630   C.ar      1 EDD355   0.0000
    29 C52     18.5560  10.4590  31.0160   C.ar      1 EDD355   0.0000
    30 C53     17.1910  10.5950  31.1790   C.ar      1 EDD355   0.0000
    31 C54     16.4680  11.4980  30.4030   C.ar      1 EDD355   0.0000
    32 H1      18.9824  12.7339  28.5110   H         1 EDD355   0.0000
    33 H2      16.6727  16.7647  27.7170   H         1 EDD355   0.0000
    34 H3      14.4666  20.2807  28.7240   H         1 EDD355   0.0000
    35 H4      14.8894  22.3081  24.6259   H         1 EDD355   0.0000
    36 H5      14.7034  20.5607  24.6762   H         1 EDD355   0.0000
    37 H6      15.0138  14.8489  27.5977   H         1 EDD355   0.0000
    38 H7      15.5351  13.6016  29.1706   H         1 EDD355   0.0000
    39 H8      13.6305  14.9137  21.7643   H         1 EDD355   0.0000
    40 H9      14.5802  14.1709  20.4571   H         1 EDD355   0.0000
    41 H10     14.4793  13.3763  22.0448   H         1 EDD355   0.0000
    42 H11     16.6811  17.0363  21.6723   H         1 EDD355   0.0000
    43 H12     15.8662  16.3665  20.2406   H         1 EDD355   0.0000
    44 H13     14.9055  17.0461  21.5740   H         1 EDD355   0.0000
    45 H14     13.6509  18.1788  25.0897   H         1 EDD355   0.0000
    46 H15     19.1212   9.7504  31.6197   H         1 EDD355   0.0000
    47 H16     12.3346  20.5708  27.4216   H         1 EDD355   0.0000
    48 H17     12.2385  19.9111  25.7730   H         1 EDD355   0.0000
    49 H18     16.8846  13.2737  22.1434   H         1 EDD355   0.0000
    50 H19     17.0110  14.0873  20.5672   H         1 EDD355   0.0000
    51 H20     17.8825  14.7360  21.9751   H         1 EDD355   0.0000
    52 H21     16.0158  13.2807  24.2520   H         1 EDD355   0.0000
    53 H22     20.2706  11.1703  29.9350   H         1 EDD355   0.0000
    54 H23     16.2123  18.6044  29.2700   H         1 EDD355   0.0000
@<TRIPOS>BOND
     1     3     4   ar
     2     4     5   ar
     3     5     6   ar
     4     6     7   ar
     5     3     8   ar
     6     7     8   ar
     7     7     9    1
     8     9    10    1
     9    10    11   am
    10    10    12    2
    11     3    13    1
    12    13    14    1
    13    14    15    2
    14    15    16    1
    15    13    17    1
    16    16    17    2
    17    15    18    1
    18    18    19    1
    19    18    20    1
    20    18    21    1
    21    17    22    1
    22    22    23   am
    23    23    24   am
    24    24    25    1
    25    23    26    2
    26    25    27   ar
    27    27    28   ar
    28    28    29   ar
    29     2    30    1
    30    29    30   ar
    31     1    31    1
    32    25    31   ar
    33    30    31   ar
    34    27    32    1
    35     4    33    1
    36     6    34    1
    37    11    35    1
    38    11    36    1
    39    22    37    1
    40    24    38    1
    41    20    39    1
    42    20    40    1
    43    20    41    1
    44    19    42    1
    45    19    43    1
    46    19    44    1
    47     8    45    1
    48    29    46    1
    49     9    47    1
    50     9    48    1
    51    21    49    1
    52    21    50    1
    53    21    51    1
    54    16    52    1
    55    28    53    1
    56     5    54    1
@<TRIPOS>SUBSTRUCTURE
     1 EDD355      1 GROUP             0 A     EDD     0  
@<TRIPOS>SET
CCDC_LIGAND STATIC ATOMS
54 1 2 3 4 5 6 7 8 9 \
10 11 12 13 14 15 16 17 18 19 \
20 21 22 23 24 25 26 27 28 29 \
30 31 32 33 34 35 36 37 38 39 \
40 41 42 43 44 45 46 47 48 49 \
50 51 52 53 54 
