#       Name:                CT1002167954
#       Creating user name   hitesit
#       Creation time:       Sun Apr 16 02:21:43 2023


#       File generated by GOLD software.
#

@<TRIPOS>MOLECULE
CT1002167954|ligand_prepared|mol2|1|dock10
    29    30     1
SMALL
NO_CHARGES


@<TRIPOS>ATOM
      1 C1          24.5877  15.6677 -10.3989 C.3            1 RES1               0.0000
      2 C2          24.4668  16.7337 -11.5070 C.ar           1 RES1               0.0000
      3 C3          25.7539  16.0994  -9.5146 C.2            1 RES1               0.0000
      4 C4          23.2414  15.6410  -9.6839 C.2            1 RES1               0.0000
      5 C5          24.8749  14.2440 -10.9302 C.3            1 RES1               0.0000
      6 C6          24.0782  16.3763 -12.7947 C.ar           1 RES1               0.0000
      7 C7          24.7373  18.0763 -11.2566 C.ar           1 RES1               0.0000
      8 N8          25.4588  16.6158  -8.2874 N.am           1 RES1               0.0000
      9 O9          26.9128  16.0246  -9.9038 O.2            1 RES1               0.0000
     10 N10         23.2013  16.0449  -8.3751 N.am           1 RES1               0.0000
     11 O11         22.2120  15.2895 -10.2470 O.2            1 RES1               0.0000
     12 C12         25.2035  13.2372  -9.8391 C.3            1 RES1               0.0000
     13 C13         23.9615  17.3270 -13.7951 C.ar           1 RES1               0.0000
     14 C14         24.6202  19.0255 -12.2585 C.ar           1 RES1               0.0000
     15 C15         24.2434  16.5603  -7.6536 C.2            1 RES1               0.0000
     16 C16         24.2319  18.6522 -13.5276 C.ar           1 RES1               0.0000
     17 O17         24.1166  16.9530  -6.4974 O.2            1 RES1               0.0000
     18 H18         23.9969  13.8901 -11.4844 H              1 RES1               0.0000
     19 H19         25.7171  14.2920 -11.6315 H              1 RES1               0.0000
     20 H20         23.8637  15.3379 -13.0246 H              1 RES1               0.0000
     21 H21         25.0454  18.3928 -10.2659 H              1 RES1               0.0000
     22 H22         26.2113  17.0869  -7.7953 H              1 RES1               0.0000
     23 H23         22.3122  15.9528  -7.8941 H              1 RES1               0.0000
     24 H24         25.3965  12.2552 -10.2659 H              1 RES1               0.0000
     25 H25         26.0871  13.5448  -9.2837 H              1 RES1               0.0000
     26 H26         24.3770  13.1453  -9.1374 H              1 RES1               0.0000
     27 H27         23.6569  17.0279 -14.7926 H              1 RES1               0.0000
     28 H28         24.8346  20.0671 -12.0437 H              1 RES1               0.0000
     29 H29         24.1400  19.3968 -14.3114 H              1 RES1               0.0000
@<TRIPOS>BOND
    1    1    2 1     
    2    1    3 1     
    3    1    4 1     
    4    1    5 1     
    5    2    6 ar    
    6    2    7 ar    
    7    3    8 1     
    8    3    9 2     
    9    4   10 1     
   10    4   11 2     
   11    5   12 1     
   12    5   18 1     
   13    5   19 1     
   14    6   13 ar    
   15    6   20 1     
   16    7   14 ar    
   17    7   21 1     
   18    8   15 1     
   19    8   22 1     
   20   10   15 1     
   21   10   23 1     
   22   12   24 1     
   23   12   25 1     
   24   12   26 1     
   25   13   16 ar    
   26   13   27 1     
   27   14   16 ar    
   28   14   28 1     
   29   15   17 2     
   30   16   29 1     
@<TRIPOS>SUBSTRUCTURE
      1 RES1           1
@<TRIPOS>SET
DONOR_HYDROGENS      STATIC     ATOMS    <user>   **** ""
2 22 23
ATOM$RED        STATIC     ATOMS    COLORGROUP SYSTEM
2 22 23
@<TRIPOS>COMMENT
> <Gold.Version>
2022.3.0

> <Gold.Id.Protein>
unknown|2h24_cavity_clean|pdb

> <Gold.Protein.RotatedTorsions>
[ 2130 2129 2128 2126 ] final  -31.82 input   60.00 | X-H torsion
[ 2203 2194 2193 2191 ] final   86.36 input   59.99 | X-H torsion

> <Gold.Protein.ActiveResidues>
 PHE146  TYR149  ILE150  TYR153 

> <Gold.Protein.RotatedAtoms>
   23.0402   22.6231  -21.9457 H   0  0  0  0  0  0  0  0  0  0  0  0  # atno 2130 bound_to 2129
   25.5297   18.7565   -5.6439 H   0  0  0  0  0  0  0  0  0  0  0  0  # atno 2203 bound_to 2194
   21.6268   22.0526  -21.3764 LP  0  0  0  0  0  0  0  0  0  0  0  0  # atno 2324 bound_to 2129
   22.5360   21.1378  -22.3779 LP  0  0  0  0  0  0  0  0  0  0  0  0  # atno 2325 bound_to 2129
   26.0140   20.2633   -5.2663 LP  0  0  0  0  0  0  0  0  0  0  0  0  # atno 2328 bound_to 2194
   27.0787   19.0258   -5.2250 LP  0  0  0  0  0  0  0  0  0  0  0  0  # atno 2329 bound_to 2194

> <Gold.Score>
     Fitness  S(hb_ext) S(vdw_ext)  S(hb_int)    S(int)      intcor
     22.87       0.55      16.84       0.00      -0.84      -0.77

> <Gold.Goldscore.Fitness>
22.8684

> <Gold.Goldscore.Internal.Vdw>
-1.1085

> <Gold.Goldscore.Internal.Torsion>
-0.4956

> <Gold.Goldscore.External.Vdw>
16.8436

> <Gold.Goldscore.Internal.HBond>
0.0000

> <Gold.Goldscore.External.HBond>
0.5473

> <Gold.Goldscore.Internal.Correction>
-0.7653

> <Gold.Goldscore.Hbonds>
donor molecule, donor type, donor heavy atom, donor atom, acceptor molecule, acceptor atom, score
      P1  H  2194  2203       L1    17  0.27

> <Gold.Goldscore.Internal.Vdw.Weighted>
-1.1085

> <Gold.Goldscore.Internal.Torsion.Weighted>
-0.4956

> <Gold.Goldscore.External.Vdw.Weighted>
23.1599

> <Gold.Goldscore.Internal.HBond.Weighted>
0.0000

> <Gold.Goldscore.External.HBond.Weighted>
0.5473

> <Gold.Goldscore.Internal.Correction.Weighted>
-0.7653

> <Gold.Rescore>
     Score     S(PLP)   S(hbond)     S(cho)   S(metal)  DE(clash)   DE(tors)     intcor
     31.61     -33.26       0.00       0.00       0.00       0.28       0.69       ----

> <Gold.PLP.Fitness>
31.6113

> <Gold.PLP.PLP>
-33.2638

> <Gold.PLP.part.hbond>
0.0000

> <Gold.PLP.part.metal>
0.0000

> <Gold.PLP.part.buried>
-3.6411

> <Gold.PLP.part.nonpolar>
-30.3364

> <Gold.PLP.part.repulsive>
0.0249

> <Gold.PLP.ligand.clash>
0.2816

> <Gold.PLP.ligand.torsion>
0.6855

> <Gold.PLP.Chemscore.Hbond>
0.0000

> <Gold.PLP.Chemscore.CHOScore>
0.0000

> <Gold.PLP.Chemscore.Metal>
0.0000

> <Gold.Chemscore.Hbonds>
donor molecule, donor type, donor heavy atom, donor atom, acceptor molecule, acceptor atom, score
      P1  H  2194  2203       L1    17  0.13

> <Gold.PLP.Chemscore.Internal.Correction>
   9.000000E+99

