#       Name:                CT1002167954
#       Creating user name   hitesit
#       Creation time:       Sun Apr 16 02:21:42 2023


#       File generated by GOLD software.
#

@<TRIPOS>MOLECULE
CT1002167954|ligand_prepared|mol2|1|dock8
    29    30     1
SMALL
NO_CHARGES


@<TRIPOS>ATOM
      1 C1          23.4902  21.6943 -14.2145 C.3            1 RES1               0.0000
      2 C2          23.7379  20.2054 -13.8970 C.ar           1 RES1               0.0000
      3 C3          24.7920  22.2289 -14.8041 C.2            1 RES1               0.0000
      4 C4          22.3085  21.7343 -15.1771 C.2            1 RES1               0.0000
      5 C5          23.1261  22.5452 -12.9755 C.3            1 RES1               0.0000
      6 C6          23.2055  19.2094 -14.7101 C.ar           1 RES1               0.0000
      7 C7          24.4974  19.8133 -12.7980 C.ar           1 RES1               0.0000
      8 N8          24.8264  22.4681 -16.1463 N.am           1 RES1               0.0000
      9 O9          25.7855  22.4006 -14.1086 O.2            1 RES1               0.0000
     10 N10         22.5342  22.1815 -16.4526 N.am           1 RES1               0.0000
     11 O11         21.1875  21.3670 -14.8475 O.2            1 RES1               0.0000
     12 C12         22.7463  23.9797 -13.3071 C.3            1 RES1               0.0000
     13 C13         23.4269  17.8699 -14.4364 C.ar           1 RES1               0.0000
     14 C14         24.7175  18.4731 -12.5258 C.ar           1 RES1               0.0000
     15 C15         23.7459  22.5212 -16.9898 C.2            1 RES1               0.0000
     16 C16         24.1833  17.5008 -13.3444 C.ar           1 RES1               0.0000
     17 O17         23.8771  22.8621 -18.1619 O.2            1 RES1               0.0000
     18 H18         22.2865  22.0690 -12.4544 H              1 RES1               0.0000
     19 H19         23.9830  22.5562 -12.2906 H              1 RES1               0.0000
     20 H20         22.6057  19.4806 -15.5725 H              1 RES1               0.0000
     21 H21         24.9266  20.5609 -12.1395 H              1 RES1               0.0000
     22 H22         25.7399  22.6217 -16.5613 H              1 RES1               0.0000
     23 H23         21.7239  22.2694 -17.0576 H              1 RES1               0.0000
     24 H24         22.5002  24.5324 -12.4028 H              1 RES1               0.0000
     25 H25         23.5680  24.4914 -13.8039 H              1 RES1               0.0000
     26 H26         21.8815  24.0071 -13.9668 H              1 RES1               0.0000
     27 H27         23.0032  17.1085 -15.0829 H              1 RES1               0.0000
     28 H28         25.3129  18.1872 -11.6650 H              1 RES1               0.0000
     29 H29         24.3570  16.4514 -13.1304 H              1 RES1               0.0000
@<TRIPOS>BOND
    1    1    2 1     
    2    1    3 1     
    3    1    4 1     
    4    1    5 1     
    5    2    6 ar    
    6    2    7 ar    
    7    3    8 1     
    8    3    9 2     
    9    4   10 1     
   10    4   11 2     
   11    5   12 1     
   12    5   18 1     
   13    5   19 1     
   14    6   13 ar    
   15    6   20 1     
   16    7   14 ar    
   17    7   21 1     
   18    8   15 1     
   19    8   22 1     
   20   10   15 1     
   21   10   23 1     
   22   12   24 1     
   23   12   25 1     
   24   12   26 1     
   25   13   16 ar    
   26   13   27 1     
   27   14   16 ar    
   28   14   28 1     
   29   15   17 2     
   30   16   29 1     
@<TRIPOS>SUBSTRUCTURE
      1 RES1           1
@<TRIPOS>SET
DONOR_HYDROGENS      STATIC     ATOMS    <user>   **** ""
2 22 23
ATOM$RED        STATIC     ATOMS    COLORGROUP SYSTEM
2 22 23
@<TRIPOS>COMMENT
> <Gold.Version>
2022.3.0

> <Gold.Id.Protein>
unknown|2h24_cavity_clean|pdb

> <Gold.Protein.RotatedTorsions>
[ 2130 2129 2128 2126 ] final -115.19 input   60.00 | X-H torsion
[ 2203 2194 2193 2191 ] final -157.01 input   59.99 | X-H torsion

> <Gold.Protein.ActiveResidues>
 PHE146  TYR149  ILE150  TYR153 

> <Gold.Protein.RotatedAtoms>
   21.9592   22.5386  -21.3340 H   0  0  0  0  0  0  0  0  0  0  0  0  # atno 2130 bound_to 2129
   27.0552   18.9782   -5.2417 H   0  0  0  0  0  0  0  0  0  0  0  0  # atno 2203 bound_to 2194
   22.0216   21.0976  -22.0868 LP  0  0  0  0  0  0  0  0  0  0  0  0  # atno 2324 bound_to 2129
   23.2302   22.1779  -22.2836 LP  0  0  0  0  0  0  0  0  0  0  0  0  # atno 2325 bound_to 2129
   25.4892   18.7949   -5.6441 LP  0  0  0  0  0  0  0  0  0  0  0  0  # atno 2328 bound_to 2194
   26.0672   20.2710   -5.2523 LP  0  0  0  0  0  0  0  0  0  0  0  0  # atno 2329 bound_to 2194

> <Gold.Score>
     Fitness  S(hb_ext) S(vdw_ext)  S(hb_int)    S(int)      intcor
     24.36       0.00      18.89       0.00      -1.62      -0.77

> <Gold.Goldscore.Fitness>
24.3597

> <Gold.Goldscore.Internal.Vdw>
-1.9614

> <Gold.Goldscore.Internal.Torsion>
-0.4197

> <Gold.Goldscore.External.Vdw>
18.8912

> <Gold.Goldscore.Internal.HBond>
0.0000

> <Gold.Goldscore.External.HBond>
0.0000

> <Gold.Goldscore.Internal.Correction>
-0.7653

> <Gold.Goldscore.Internal.Vdw.Weighted>
-1.9614

> <Gold.Goldscore.Internal.Torsion.Weighted>
-0.4197

> <Gold.Goldscore.External.Vdw.Weighted>
25.9755

> <Gold.Goldscore.Internal.HBond.Weighted>
0.0000

> <Gold.Goldscore.External.HBond.Weighted>
0.0000

> <Gold.Goldscore.Internal.Correction.Weighted>
-0.7653

> <Gold.Rescore>
     Score     S(PLP)   S(hbond)     S(cho)   S(metal)  DE(clash)   DE(tors)     intcor
     31.00     -33.50       0.00       0.00       0.00       1.98       0.27       ----

> <Gold.PLP.Fitness>
30.9957

> <Gold.PLP.PLP>
-33.5027

> <Gold.PLP.part.hbond>
0.0000

> <Gold.PLP.part.metal>
0.0000

> <Gold.PLP.part.buried>
-4.9395

> <Gold.PLP.part.nonpolar>
-28.9564

> <Gold.PLP.part.repulsive>
0.1028

> <Gold.PLP.ligand.clash>
1.9769

> <Gold.PLP.ligand.torsion>
0.2651

> <Gold.PLP.Chemscore.Hbond>
0.0000

> <Gold.PLP.Chemscore.CHOScore>
0.0000

> <Gold.PLP.Chemscore.Metal>
0.0000

> <Gold.PLP.Chemscore.Internal.Correction>
   9.000000E+99

