#       Name:                CT1002167954
#       Creating user name   hitesit
#       Creation time:       Sun Apr 16 02:21:43 2023


#       File generated by GOLD software.
#

@<TRIPOS>MOLECULE
CT1002167954|ligand_prepared|mol2|1|dock9
    29    30     1
SMALL
NO_CHARGES


@<TRIPOS>ATOM
      1 C1          24.2529  23.0122 -15.6774 C.3            1 RES1               0.0000
      2 C2          23.9661  21.6177 -15.0841 C.ar           1 RES1               0.0000
      3 C3          23.2959  23.1825 -16.8536 C.2            1 RES1               0.0000
      4 C4          24.0323  24.0106 -14.5464 C.2            1 RES1               0.0000
      5 C5          25.7005  23.1863 -16.1928 C.3            1 RES1               0.0000
      6 C6          24.8709  21.0186 -14.2128 C.ar           1 RES1               0.0000
      7 C7          22.8020  20.9205 -15.3962 C.ar           1 RES1               0.0000
      8 N8          22.2363  24.0252 -16.6892 N.am           1 RES1               0.0000
      9 O9          23.4464  22.5566 -17.8957 O.2            1 RES1               0.0000
     10 N10         22.9967  24.8997 -14.6676 N.am           1 RES1               0.0000
     11 O11         24.7357  24.0244 -13.5437 O.2            1 RES1               0.0000
     12 C12         25.9094  24.4446 -17.0207 C.3            1 RES1               0.0000
     13 C13         24.6197  19.7691 -13.6707 C.ar           1 RES1               0.0000
     14 C14         22.5529  19.6709 -14.8531 C.ar           1 RES1               0.0000
     15 C15         22.0698  24.9321 -15.6736 C.2            1 RES1               0.0000
     16 C16         23.4605  19.0947 -13.9900 C.ar           1 RES1               0.0000
     17 O17         21.1344  25.7271 -15.6851 O.2            1 RES1               0.0000
     18 H18         26.3808  23.2126 -15.3327 H              1 RES1               0.0000
     19 H19         25.9653  22.3141 -16.8032 H              1 RES1               0.0000
     20 H20         25.7897  21.5332 -13.9519 H              1 RES1               0.0000
     21 H21         22.0742  21.3540 -16.0737 H              1 RES1               0.0000
     22 H22         21.4995  23.9765 -17.3857 H              1 RES1               0.0000
     23 H23         22.9087  25.6026 -13.9406 H              1 RES1               0.0000
     24 H24         26.9414  24.5179 -17.3572 H              1 RES1               0.0000
     25 H25         25.2663  24.4401 -17.8983 H              1 RES1               0.0000
     26 H26         25.6794  25.3332 -16.4365 H              1 RES1               0.0000
     27 H27         25.3379  19.3193 -12.9931 H              1 RES1               0.0000
     28 H28         21.6395  19.1435 -15.1077 H              1 RES1               0.0000
     29 H29         23.2638  18.1160 -13.5649 H              1 RES1               0.0000
@<TRIPOS>BOND
    1    1    2 1     
    2    1    3 1     
    3    1    4 1     
    4    1    5 1     
    5    2    6 ar    
    6    2    7 ar    
    7    3    8 1     
    8    3    9 2     
    9    4   10 1     
   10    4   11 2     
   11    5   12 1     
   12    5   18 1     
   13    5   19 1     
   14    6   13 ar    
   15    6   20 1     
   16    7   14 ar    
   17    7   21 1     
   18    8   15 1     
   19    8   22 1     
   20   10   15 1     
   21   10   23 1     
   22   12   24 1     
   23   12   25 1     
   24   12   26 1     
   25   13   16 ar    
   26   13   27 1     
   27   14   16 ar    
   28   14   28 1     
   29   15   17 2     
   30   16   29 1     
@<TRIPOS>SUBSTRUCTURE
      1 RES1           1
@<TRIPOS>SET
DONOR_HYDROGENS      STATIC     ATOMS    <user>   **** ""
2 22 23
ATOM$RED        STATIC     ATOMS    COLORGROUP SYSTEM
2 22 23
@<TRIPOS>COMMENT
> <Gold.Version>
2022.3.0

> <Gold.Id.Protein>
unknown|2h24_cavity_clean|pdb

> <Gold.Protein.RotatedTorsions>
[ 2130 2129 2128 2126 ] final  -99.96 input   60.00 | X-H torsion
[ 2203 2194 2193 2191 ] final  109.34 input   59.99 | X-H torsion

> <Gold.Protein.ActiveResidues>
 PHE146  TYR149  ILE150  TYR153 

> <Gold.Protein.RotatedAtoms>
   22.1568   22.6802  -21.3835 H   0  0  0  0  0  0  0  0  0  0  0  0  # atno 2130 bound_to 2129
   25.8216   18.5265   -5.6138 H   0  0  0  0  0  0  0  0  0  0  0  0  # atno 2203 bound_to 2194
   21.8415   21.1827  -21.9359 LP  0  0  0  0  0  0  0  0  0  0  0  0  # atno 2324 bound_to 2129
   23.2112   21.9502  -22.3847 LP  0  0  0  0  0  0  0  0  0  0  0  0  # atno 2325 bound_to 2129
   25.6789   20.1288   -5.3694 LP  0  0  0  0  0  0  0  0  0  0  0  0  # atno 2328 bound_to 2194
   27.1199   19.3920   -5.1523 LP  0  0  0  0  0  0  0  0  0  0  0  0  # atno 2329 bound_to 2194

> <Gold.Score>
     Fitness  S(hb_ext) S(vdw_ext)  S(hb_int)    S(int)      intcor
     20.34       0.00      15.74       0.00      -1.29      -0.77

> <Gold.Goldscore.Fitness>
20.3441

> <Gold.Goldscore.Internal.Vdw>
-1.4762

> <Gold.Goldscore.Internal.Torsion>
-0.5810

> <Gold.Goldscore.External.Vdw>
15.7353

> <Gold.Goldscore.Internal.HBond>
0.0000

> <Gold.Goldscore.External.HBond>
0.0000

> <Gold.Goldscore.Internal.Correction>
-0.7653

> <Gold.Goldscore.Internal.Vdw.Weighted>
-1.4762

> <Gold.Goldscore.Internal.Torsion.Weighted>
-0.5810

> <Gold.Goldscore.External.Vdw.Weighted>
21.6360

> <Gold.Goldscore.Internal.HBond.Weighted>
0.0000

> <Gold.Goldscore.External.HBond.Weighted>
0.0000

> <Gold.Goldscore.Internal.Correction.Weighted>
-0.7653

> <Gold.Rescore>
     Score     S(PLP)   S(hbond)     S(cho)   S(metal)  DE(clash)   DE(tors)     intcor
     28.13     -29.79       0.00       0.00       0.00       0.56       0.55       ----

> <Gold.PLP.Fitness>
28.1293

> <Gold.PLP.PLP>
-29.7875

> <Gold.PLP.part.hbond>
0.0000

> <Gold.PLP.part.metal>
0.0000

> <Gold.PLP.part.buried>
-3.2010

> <Gold.PLP.part.nonpolar>
-26.4191

> <Gold.PLP.part.repulsive>
0.0302

> <Gold.PLP.ligand.clash>
0.5561

> <Gold.PLP.ligand.torsion>
0.5511

> <Gold.PLP.Chemscore.Hbond>
0.0000

> <Gold.PLP.Chemscore.CHOScore>
0.0000

> <Gold.PLP.Chemscore.Metal>
0.0000

> <Gold.PLP.Chemscore.Internal.Correction>
   9.000000E+99

