#       Name:                CT1002167954
#       Creating user name   hitesit
#       Creation time:       Sun Apr 16 02:21:36 2023


#       File generated by GOLD software.
#

@<TRIPOS>MOLECULE
CT1002167954|ligand_prepared|mol2|1|dock1
    29    30     1
SMALL
NO_CHARGES


@<TRIPOS>ATOM
      1 C1          24.6869  16.5473 -10.4320 C.3            1 RES1               0.0000
      2 C2          24.3947  17.4268 -11.6648 C.ar           1 RES1               0.0000
      3 C3          23.7183  15.3706 -10.5059 C.2            1 RES1               0.0000
      4 C4          26.1559  16.1510 -10.5292 C.2            1 RES1               0.0000
      5 C5          24.4761  17.2730  -9.0827 C.3            1 RES1               0.0000
      6 C6          24.2764  16.8577 -12.9292 C.ar           1 RES1               0.0000
      7 C7          24.2386  18.8059 -11.5532 C.ar           1 RES1               0.0000
      8 N8          24.2254  14.1565 -10.8646 N.am           1 RES1               0.0000
      9 O9          22.5210  15.5140 -10.2912 O.2            1 RES1               0.0000
     10 N10         26.4524  14.8269 -10.7209 N.am           1 RES1               0.0000
     11 O11         27.0589  16.9756 -10.4582 O.2            1 RES1               0.0000
     12 C12         24.5987  16.3624  -7.8711 C.3            1 RES1               0.0000
     13 C13         24.0087  17.6385 -14.0415 C.ar           1 RES1               0.0000
     14 C14         23.9711  19.5849 -12.6668 C.ar           1 RES1               0.0000
     15 C15         25.5529  13.8160 -10.9237 C.2            1 RES1               0.0000
     16 C16         23.8555  19.0023 -13.9110 C.ar           1 RES1               0.0000
     17 O17         25.8979  12.6586 -11.1440 O.2            1 RES1               0.0000
     18 H18         25.2160  18.0782  -8.9955 H              1 RES1               0.0000
     19 H19         23.4796  17.7316  -9.0803 H              1 RES1               0.0000
     20 H20         24.3962  15.7864 -13.0518 H              1 RES1               0.0000
     21 H21         24.3264  19.2860 -10.5845 H              1 RES1               0.0000
     22 H22         23.5556  13.4350 -11.1118 H              1 RES1               0.0000
     23 H23         27.4347  14.5712 -10.7114 H              1 RES1               0.0000
     24 H24         24.4421  16.9215  -6.9510 H              1 RES1               0.0000
     25 H25         23.8606  15.5641  -7.9123 H              1 RES1               0.0000
     26 H26         25.5867  15.9086  -7.8280 H              1 RES1               0.0000
     27 H27         23.9200  17.1754 -15.0187 H              1 RES1               0.0000
     28 H28         23.8519  20.6580 -12.5596 H              1 RES1               0.0000
     29 H29         23.6454  19.6137 -14.7824 H              1 RES1               0.0000
@<TRIPOS>BOND
    1    1    2 1     
    2    1    3 1     
    3    1    4 1     
    4    1    5 1     
    5    2    6 ar    
    6    2    7 ar    
    7    3    8 1     
    8    3    9 2     
    9    4   10 1     
   10    4   11 2     
   11    5   12 1     
   12    5   18 1     
   13    5   19 1     
   14    6   13 ar    
   15    6   20 1     
   16    7   14 ar    
   17    7   21 1     
   18    8   15 1     
   19    8   22 1     
   20   10   15 1     
   21   10   23 1     
   22   12   24 1     
   23   12   25 1     
   24   12   26 1     
   25   13   16 ar    
   26   13   27 1     
   27   14   16 ar    
   28   14   28 1     
   29   15   17 2     
   30   16   29 1     
@<TRIPOS>SUBSTRUCTURE
      1 RES1           1
@<TRIPOS>SET
DONOR_HYDROGENS      STATIC     ATOMS    <user>   **** ""
2 22 23
ATOM$RED        STATIC     ATOMS    COLORGROUP SYSTEM
2 22 23
@<TRIPOS>COMMENT
> <Gold.Version>
2022.3.0

> <Gold.Id.Protein>
unknown|2h24_cavity_clean|pdb

> <Gold.Protein.RotatedTorsions>
[ 2130 2129 2128 2126 ] final   75.23 input   60.00 | X-H torsion
[ 2203 2194 2193 2191 ] final  -30.29 input   59.99 | X-H torsion

> <Gold.Protein.ActiveResidues>
 PHE146  TYR149  ILE150  TYR153 

> <Gold.Protein.RotatedAtoms>
   22.7149   21.2369  -22.4338 H   0  0  0  0  0  0  0  0  0  0  0  0  # atno 2130 bound_to 2129
   25.9642   20.2465   -5.2839 H   0  0  0  0  0  0  0  0  0  0  0  0  # atno 2203 bound_to 2194
   22.9097   22.7300  -21.8172 LP  0  0  0  0  0  0  0  0  0  0  0  0  # atno 2324 bound_to 2129
   21.5808   21.8567  -21.4454 LP  0  0  0  0  0  0  0  0  0  0  0  0  # atno 2325 bound_to 2129
   27.0938   19.0775   -5.2125 LP  0  0  0  0  0  0  0  0  0  0  0  0  # atno 2328 bound_to 2194
   25.5613   18.7111   -5.6413 LP  0  0  0  0  0  0  0  0  0  0  0  0  # atno 2329 bound_to 2194

> <Gold.Score>
     Fitness  S(hb_ext) S(vdw_ext)  S(hb_int)    S(int)      intcor
     27.61       0.00      20.11       0.00      -0.04      -0.79

> <Gold.Goldscore.Fitness>
27.6058

> <Gold.Goldscore.Internal.Vdw>
-0.3820

> <Gold.Goldscore.Internal.Torsion>
-0.4489

> <Gold.Goldscore.External.Vdw>
20.1088

> <Gold.Goldscore.Internal.HBond>
0.0000

> <Gold.Goldscore.External.HBond>
0.0000

> <Gold.Goldscore.Internal.Correction>
-0.7872

> <Gold.Goldscore.Internal.Vdw.Weighted>
-0.3820

> <Gold.Goldscore.Internal.Torsion.Weighted>
-0.4489

> <Gold.Goldscore.External.Vdw.Weighted>
27.6496

> <Gold.Goldscore.Internal.HBond.Weighted>
0.0000

> <Gold.Goldscore.External.HBond.Weighted>
0.0000

> <Gold.Goldscore.Internal.Correction.Weighted>
-0.7872

> <Gold.Rescore>
     Score     S(PLP)   S(hbond)     S(cho)   S(metal)  DE(clash)   DE(tors)     intcor
     34.66     -34.71       0.00       0.00       0.00       0.00       0.02       ----

> <Gold.PLP.Fitness>
34.6629

> <Gold.PLP.PLP>
-34.7069

> <Gold.PLP.part.hbond>
0.0000

> <Gold.PLP.part.metal>
0.0000

> <Gold.PLP.part.buried>
-2.2554

> <Gold.PLP.part.nonpolar>
-33.2902

> <Gold.PLP.part.repulsive>
0.0515

> <Gold.PLP.ligand.clash>
0.0000

> <Gold.PLP.ligand.torsion>
0.0220

> <Gold.PLP.Chemscore.Hbond>
0.0000

> <Gold.PLP.Chemscore.CHOScore>
0.0000

> <Gold.PLP.Chemscore.Metal>
0.0000

> <Gold.PLP.Chemscore.Internal.Correction>
   9.000000E+99

