#       Name:                CT1002167954
#       Creating user name   hitesit
#       Creation time:       Sun Apr 16 02:21:38 2023


#       File generated by GOLD software.
#

@<TRIPOS>MOLECULE
CT1002167954|ligand_prepared|mol2|1|dock3
    29    30     1
SMALL
NO_CHARGES


@<TRIPOS>ATOM
      1 C1          23.7882  21.2236 -13.2623 C.3            1 RES1               0.0000
      2 C2          24.0677  19.7569 -12.8757 C.ar           1 RES1               0.0000
      3 C3          23.0633  21.8491 -12.0742 C.2            1 RES1               0.0000
      4 C4          25.1446  21.8512 -13.5640 C.2            1 RES1               0.0000
      5 C5          22.8994  21.3803 -14.5180 C.3            1 RES1               0.0000
      6 C6          24.4315  19.4240 -11.5744 C.ar           1 RES1               0.0000
      7 C7          23.9634  18.7273 -13.8072 C.ar           1 RES1               0.0000
      8 N8          23.7657  22.7169 -11.2910 N.am           1 RES1               0.0000
      9 O9          21.9050  21.5551 -11.8055 O.2            1 RES1               0.0000
     10 N10         25.5904  22.8466 -12.7344 N.am           1 RES1               0.0000
     11 O11         25.8389  21.4811 -14.5028 O.2            1 RES1               0.0000
     12 C12         22.3797  22.7937 -14.7288 C.3            1 RES1               0.0000
     13 C13         24.6792  18.1092 -11.2163 C.ar           1 RES1               0.0000
     14 C14         24.2118  17.4131 -13.4471 C.ar           1 RES1               0.0000
     15 C15         24.9762  23.2867 -11.5936 C.2            1 RES1               0.0000
     16 C16         24.5691  17.1029 -12.1522 C.ar           1 RES1               0.0000
     17 O17         25.4662  24.1485 -10.8695 O.2            1 RES1               0.0000
     18 H18         23.4789  21.0819 -15.4003 H              1 RES1               0.0000
     19 H19         22.0440  20.6988 -14.4325 H              1 RES1               0.0000
     20 H20         24.5256  20.2028 -10.8248 H              1 RES1               0.0000
     21 H21         23.6848  18.9480 -14.8320 H              1 RES1               0.0000
     22 H22         23.3528  22.9650 -10.3975 H              1 RES1               0.0000
     23 H23         26.4606  23.3018 -12.9911 H              1 RES1               0.0000
     24 H24         21.7621  22.8482 -15.6228 H              1 RES1               0.0000
     25 H25         21.7776  23.1138 -13.8810 H              1 RES1               0.0000
     26 H26         23.2040  23.4947 -14.8431 H              1 RES1               0.0000
     27 H27         24.9615  17.8705 -10.1962 H              1 RES1               0.0000
     28 H28         24.1245  16.6244 -14.1871 H              1 RES1               0.0000
     29 H29         24.7628  16.0729 -11.8714 H              1 RES1               0.0000
@<TRIPOS>BOND
    1    1    2 1     
    2    1    3 1     
    3    1    4 1     
    4    1    5 1     
    5    2    6 ar    
    6    2    7 ar    
    7    3    8 1     
    8    3    9 2     
    9    4   10 1     
   10    4   11 2     
   11    5   12 1     
   12    5   18 1     
   13    5   19 1     
   14    6   13 ar    
   15    6   20 1     
   16    7   14 ar    
   17    7   21 1     
   18    8   15 1     
   19    8   22 1     
   20   10   15 1     
   21   10   23 1     
   22   12   24 1     
   23   12   25 1     
   24   12   26 1     
   25   13   16 ar    
   26   13   27 1     
   27   14   16 ar    
   28   14   28 1     
   29   15   17 2     
   30   16   29 1     
@<TRIPOS>SUBSTRUCTURE
      1 RES1           1
@<TRIPOS>SET
DONOR_HYDROGENS      STATIC     ATOMS    <user>   **** ""
2 22 23
ATOM$RED        STATIC     ATOMS    COLORGROUP SYSTEM
2 22 23
@<TRIPOS>COMMENT
> <Gold.Version>
2022.3.0

> <Gold.Id.Protein>
unknown|2h24_cavity_clean|pdb

> <Gold.Protein.RotatedTorsions>
[ 2130 2129 2128 2126 ] final  -46.07 input   60.00 | X-H torsion
[ 2203 2194 2193 2191 ] final -171.38 input   59.99 | X-H torsion

> <Gold.Protein.ActiveResidues>
 PHE146  TYR149  ILE150  TYR153 

> <Gold.Protein.RotatedAtoms>
   22.8923   22.7311  -21.8029 H   0  0  0  0  0  0  0  0  0  0  0  0  # atno 2130 bound_to 2129
   26.9464   18.7797   -5.3018 H   0  0  0  0  0  0  0  0  0  0  0  0  # atno 2203 bound_to 2194
   21.5785   21.8372  -21.4537 LP  0  0  0  0  0  0  0  0  0  0  0  0  # atno 2324 bound_to 2129
   22.7333   21.2444  -22.4445 LP  0  0  0  0  0  0  0  0  0  0  0  0  # atno 2325 bound_to 2129
   25.3693   18.9978   -5.6378 LP  0  0  0  0  0  0  0  0  0  0  0  0  # atno 2328 bound_to 2194
   26.2967   20.2679   -5.1980 LP  0  0  0  0  0  0  0  0  0  0  0  0  # atno 2329 bound_to 2194

> <Gold.Score>
     Fitness  S(hb_ext) S(vdw_ext)  S(hb_int)    S(int)      intcor
     25.26       0.00      18.58       0.00      -0.28      -0.77

> <Gold.Goldscore.Fitness>
25.2641

> <Gold.Goldscore.Internal.Vdw>
-0.4442

> <Gold.Goldscore.Internal.Torsion>
-0.6093

> <Gold.Goldscore.External.Vdw>
18.5811

> <Gold.Goldscore.Internal.HBond>
0.0000

> <Gold.Goldscore.External.HBond>
0.0000

> <Gold.Goldscore.Internal.Correction>
-0.7686

> <Gold.Goldscore.Internal.Vdw.Weighted>
-0.4442

> <Gold.Goldscore.Internal.Torsion.Weighted>
-0.6093

> <Gold.Goldscore.External.Vdw.Weighted>
25.5489

> <Gold.Goldscore.Internal.HBond.Weighted>
0.0000

> <Gold.Goldscore.External.HBond.Weighted>
0.0000

> <Gold.Goldscore.Internal.Correction.Weighted>
-0.7686

> <Gold.Rescore>
     Score     S(PLP)   S(hbond)     S(cho)   S(metal)  DE(clash)   DE(tors)     intcor
     29.31     -31.31       0.00       0.00       0.00       0.00       1.00       ----

> <Gold.PLP.Fitness>
29.3121

> <Gold.PLP.PLP>
-31.3145

> <Gold.PLP.part.hbond>
0.0000

> <Gold.PLP.part.metal>
0.0000

> <Gold.PLP.part.buried>
-4.7897

> <Gold.PLP.part.nonpolar>
-26.1962

> <Gold.PLP.part.repulsive>
0.1721

> <Gold.PLP.ligand.clash>
0.0000

> <Gold.PLP.ligand.torsion>
1.0012

> <Gold.PLP.Chemscore.Hbond>
0.0000

> <Gold.PLP.Chemscore.CHOScore>
0.0000

> <Gold.PLP.Chemscore.Metal>
0.0000

> <Gold.PLP.Chemscore.Internal.Correction>
   9.000000E+99

