#       Name:                CT1002167954
#       Creating user name   hitesit
#       Creation time:       Sun Apr 16 02:23:08 2023


#       File generated by GOLD software.
#

@<TRIPOS>MOLECULE
CT1002167954|ligand_prepared|mol2|1|dock6
    29    30     1
SMALL
NO_CHARGES


@<TRIPOS>ATOM
      1 C1         -38.0352  22.0307 -20.6269 C.3            1 RES1               0.0000
      2 C2         -36.8806  23.0453 -20.4997 C.ar           1 RES1               0.0000
      3 C3         -37.4279  20.6556 -20.3651 C.2            1 RES1               0.0000
      4 C4         -39.0868  22.4509 -19.6060 C.2            1 RES1               0.0000
      5 C5         -38.7028  22.0154 -22.0217 C.3            1 RES1               0.0000
      6 C6         -35.8873  23.1140 -21.4720 C.ar           1 RES1               0.0000
      7 C7         -36.7969  23.9194 -19.4192 C.ar           1 RES1               0.0000
      8 N8         -37.7055  20.0592 -19.1705 N.am           1 RES1               0.0000
      9 O9         -36.6846  20.1200 -21.1782 O.2            1 RES1               0.0000
     10 N10        -39.3379  21.6050 -18.5575 N.am           1 RES1               0.0000
     11 O11        -39.6883  23.5144 -19.6910 O.2            1 RES1               0.0000
     12 C12        -39.5679  20.7906 -22.2740 C.3            1 RES1               0.0000
     13 C13        -34.8495  24.0255 -21.3694 C.ar           1 RES1               0.0000
     14 C14        -35.7581  24.8300 -19.3184 C.ar           1 RES1               0.0000
     15 C15        -38.6730  20.4425 -18.2768 C.2            1 RES1               0.0000
     16 C16        -34.7844  24.8843 -20.2930 C.ar           1 RES1               0.0000
     17 O17        -38.9193  19.7634 -17.2841 O.2            1 RES1               0.0000
     18 H18        -39.3236  22.9138 -22.1259 H              1 RES1               0.0000
     19 H19        -37.9195  22.0583 -22.7886 H              1 RES1               0.0000
     20 H20        -35.9205  22.4445 -22.3251 H              1 RES1               0.0000
     21 H21        -37.5512  23.8939 -18.6400 H              1 RES1               0.0000
     22 H22        -37.1416  19.2538 -18.9182 H              1 RES1               0.0000
     23 H23        -40.0902  21.8661 -17.9281 H              1 RES1               0.0000
     24 H24        -40.0122  20.8300 -23.2664 H              1 RES1               0.0000
     25 H25        -38.9771  19.8797 -22.2032 H              1 RES1               0.0000
     26 H26        -40.3729  20.7301 -21.5444 H              1 RES1               0.0000
     27 H27        -34.0850  24.0632 -22.1384 H              1 RES1               0.0000
     28 H28        -35.7105  25.5036 -18.4692 H              1 RES1               0.0000
     29 H29        -33.9715  25.5985 -20.2130 H              1 RES1               0.0000
@<TRIPOS>BOND
    1    1    2 1     
    2    1    3 1     
    3    1    4 1     
    4    1    5 1     
    5    2    6 ar    
    6    2    7 ar    
    7    3    8 1     
    8    3    9 2     
    9    4   10 1     
   10    4   11 2     
   11    5   12 1     
   12    5   18 1     
   13    5   19 1     
   14    6   13 ar    
   15    6   20 1     
   16    7   14 ar    
   17    7   21 1     
   18    8   15 1     
   19    8   22 1     
   20   10   15 1     
   21   10   23 1     
   22   12   24 1     
   23   12   25 1     
   24   12   26 1     
   25   13   16 ar    
   26   13   27 1     
   27   14   16 ar    
   28   14   28 1     
   29   15   17 2     
   30   16   29 1     
@<TRIPOS>SUBSTRUCTURE
      1 RES1           1
@<TRIPOS>SET
DONOR_HYDROGENS      STATIC     ATOMS    <user>   **** ""
2 22 23
ATOM$RED        STATIC     ATOMS    COLORGROUP SYSTEM
2 22 23
@<TRIPOS>COMMENT
> <Gold.Version>
2022.3.0

> <Gold.Id.Protein>
unknown|7ta6_clean|pdb

> <Gold.Protein.RotatedTorsions>
[ 10564 10443 10442 10441 ] final -105.00 input   60.01 | X-H torsion
[ 11622 11535 11534 11532 ] final  113.01 input   60.01 | X-H torsion
[ 11975 11916 11917 11918 ] final -115.63 input   43.11 | X-H torsion
[ 12166 12076 12077 12078 ] final  142.49 input   60.03 | X-H torsion
[ 12306 12236 12237 12238 ] final   66.88 input   49.55 | X-H torsion
[ 16043 15965 15964 15962 ] final -164.79 input   60.00 | X-H torsion
[ 17235 17166 17170 17167 ] final   34.00 input   60.00 | X-H torsion
[ 17240 17169 17168 17167 ] final  130.32 input   59.99 | X-H torsion
[ 17396 17326 17327 17328 ] final  118.01 input   75.34 | X-H torsion
[ 17505 17474 17475 17476 ] final   99.14 input  132.66 | X-H torsion
[ 17658 17540 17541 17542 ] final   73.10 input  113.35 | X-H torsion
[ 6542 6500 6501 6502 ] final -167.21 input   50.41 | X-H torsion
[ 17776 17724 17725 17726 ] final   17.08 input  117.84 | X-H torsion
[ 17892 17814 17815 17816 ] final  103.19 input  119.80 | X-H torsion
[ 12567 12491 12492 12493 ] final  159.53 input   85.07 | X-H torsion
[ 17998 17962 17963 17964 ] final   22.67 input  125.49 | X-H torsion
[ 20694 6503 6502 6501 ] final   43.33 input    0.00 | X-H torsion
[ 20698 11689 11688 11687 ] final  -58.31 input    0.00 | X-H torsion
[ 20701 11805 11804 11803 ] final   99.59 input    0.00 | X-H torsion
[ 20704 11919 11918 11917 ] final  -58.15 input    0.00 | X-H torsion
[ 20707 12079 12078 12077 ] final -107.54 input    0.00 | X-H torsion
[ 20716 17329 17328 17327 ] final -120.95 input    0.00 | X-H torsion
[ 20719 17477 17476 17475 ] final  102.48 input    0.00 | X-H torsion
[ 20724 6277 6276 6275 ] final   79.68 input    0.00 | X-H torsion
[ 20727 15687 15686 15685 ] final  -93.82 input    0.00 | X-H torsion
[ 20730 17543 17542 17541 ] final -137.32 input    0.00 | X-H torsion

> <Gold.Protein.ActiveResidues>
 TRP28   LEU55   SER60   GLN61   VAL62   LEU63   LYS98   TYR115  GLU116  PRO117 
 ILE118  TYR119  LEU120  VAL123  GLN149  TYR151  LEU157  XCP1    LEU2    GLY3   
 TRP4    CYS5    ILE6    GLY7   

> <Gold.Protein.RotatedAtoms>
  -34.4666   14.7319  -24.0889 H   0  0  0  0  0  0  0  0  0  0  0  0  # atno 6542 bound_to 6500
  -36.6688   18.5330  -15.2994 H   0  0  0  0  0  0  0  0  0  0  0  0  # atno 10564 bound_to 10443
  -38.1993   18.5160  -14.6616 H   0  0  0  0  0  0  0  0  0  0  0  0  # atno 10565 bound_to 10443
  -37.2218   19.8360  -14.4351 H   0  0  0  0  0  0  0  0  0  0  0  0  # atno 10566 bound_to 10443
  -44.5617   19.9008  -20.0571 H   0  0  0  0  0  0  0  0  0  0  0  0  # atno 11622 bound_to 11535
  -38.2556   17.0595  -19.4736 H   0  0  0  0  0  0  0  0  0  0  0  0  # atno 11975 bound_to 11916
  -35.6879   18.8082  -20.1998 H   0  0  0  0  0  0  0  0  0  0  0  0  # atno 12166 bound_to 12076
  -31.4241   18.6105  -21.8221 H   0  0  0  0  0  0  0  0  0  0  0  0  # atno 12306 bound_to 12236
  -47.3987   24.3014  -21.9068 H   0  0  0  0  0  0  0  0  0  0  0  0  # atno 12567 bound_to 12491
  -35.1030   20.7226  -26.5747 H   0  0  0  0  0  0  0  0  0  0  0  0  # atno 16043 bound_to 15965
  -37.9731   27.8005  -21.0900 H   0  0  0  0  0  0  0  0  0  0  0  0  # atno 17235 bound_to 17166
  -38.2800   26.4688  -20.1522 H   0  0  0  0  0  0  0  0  0  0  0  0  # atno 17236 bound_to 17166
  -37.7191   26.7308  -26.1110 H   0  0  0  0  0  0  0  0  0  0  0  0  # atno 17240 bound_to 17169
  -36.2958   27.0325  -22.9730 H   0  0  0  0  0  0  0  0  0  0  0  0  # atno 17396 bound_to 17326
  -36.6941   24.4977  -23.7706 H   0  0  0  0  0  0  0  0  0  0  0  0  # atno 17505 bound_to 17474
  -38.3125   23.9896  -25.6657 H   0  0  0  0  0  0  0  0  0  0  0  0  # atno 17658 bound_to 17540
  -37.4739   24.1416  -27.9594 H   0  0  0  0  0  0  0  0  0  0  0  0  # atno 17776 bound_to 17724
  -35.5741   24.2843  -28.3970 H   0  0  0  0  0  0  0  0  0  0  0  0  # atno 17892 bound_to 17814
  -36.1593   22.7335  -30.4741 H   0  0  0  0  0  0  0  0  0  0  0  0  # atno 17998 bound_to 17962
  -37.1949   15.5046  -22.2839 LP  0  0  0  0  0  0  0  0  0  0  0  0  # atno 20694 bound_to 6503
  -38.1484   14.4527  -21.2918 LP  0  0  0  0  0  0  0  0  0  0  0  0  # atno 20695 bound_to 6503
  -46.1631   20.1126  -20.2524 LP  0  0  0  0  0  0  0  0  0  0  0  0  # atno 20696 bound_to 11535
  -45.2041   19.8705  -21.5517 LP  0  0  0  0  0  0  0  0  0  0  0  0  # atno 20697 bound_to 11535
  -40.1676   13.5530  -18.4865 LP  0  0  0  0  0  0  0  0  0  0  0  0  # atno 20698 bound_to 11689
  -40.6282   13.9589  -20.1061 LP  0  0  0  0  0  0  0  0  0  0  0  0  # atno 20699 bound_to 11689
  -38.5414   16.6828  -17.2518 LP  0  0  0  0  0  0  0  0  0  0  0  0  # atno 20701 bound_to 11805
  -38.7418   18.2822  -17.8856 LP  0  0  0  0  0  0  0  0  0  0  0  0  # atno 20702 bound_to 11805
  -37.5649   15.8215  -20.5003 LP  0  0  0  0  0  0  0  0  0  0  0  0  # atno 20703 bound_to 11916
  -34.6644   15.7592  -21.2841 LP  0  0  0  0  0  0  0  0  0  0  0  0  # atno 20704 bound_to 11919
  -35.2906   17.0574  -22.2445 LP  0  0  0  0  0  0  0  0  0  0  0  0  # atno 20705 bound_to 11919
  -34.4128   17.8765  -19.4398 LP  0  0  0  0  0  0  0  0  0  0  0  0  # atno 20706 bound_to 12076
  -32.2015   20.7437  -18.9201 LP  0  0  0  0  0  0  0  0  0  0  0  0  # atno 20707 bound_to 12079
  -32.6985   19.1686  -18.3986 LP  0  0  0  0  0  0  0  0  0  0  0  0  # atno 20708 bound_to 12079
  -32.1523   19.6005  -20.5748 LP  0  0  0  0  0  0  0  0  0  0  0  0  # atno 20709 bound_to 12236
  -33.8368   21.5052  -27.2313 LP  0  0  0  0  0  0  0  0  0  0  0  0  # atno 20710 bound_to 15965
  -33.6172   20.5291  -25.9407 LP  0  0  0  0  0  0  0  0  0  0  0  0  # atno 20711 bound_to 15965
  -37.0892   26.4267  -21.2863 LP  0  0  0  0  0  0  0  0  0  0  0  0  # atno 20712 bound_to 17166
  -39.2212   26.4421  -25.5554 LP  0  0  0  0  0  0  0  0  0  0  0  0  # atno 20713 bound_to 17169
  -38.0548   25.3114  -25.3890 LP  0  0  0  0  0  0  0  0  0  0  0  0  # atno 20714 bound_to 17169
  -37.6104   27.0415  -24.2073 LP  0  0  0  0  0  0  0  0  0  0  0  0  # atno 20715 bound_to 17326
  -36.2593   24.5710  -27.1227 LP  0  0  0  0  0  0  0  0  0  0  0  0  # atno 20716 bound_to 17329
  -34.6260   25.1173  -26.9386 LP  0  0  0  0  0  0  0  0  0  0  0  0  # atno 20717 bound_to 17329
  -35.3927   24.7224  -24.9174 LP  0  0  0  0  0  0  0  0  0  0  0  0  # atno 20718 bound_to 17474
  -36.8447   21.1508  -27.4539 LP  0  0  0  0  0  0  0  0  0  0  0  0  # atno 20719 bound_to 17477
  -35.9361   22.5846  -27.7980 LP  0  0  0  0  0  0  0  0  0  0  0  0  # atno 20720 bound_to 17477
  -37.7306   22.3675  -25.9429 LP  0  0  0  0  0  0  0  0  0  0  0  0  # atno 20721 bound_to 17540
  -31.7484   18.6294  -23.4069 LP  0  0  0  0  0  0  0  0  0  0  0  0  # atno 20724 bound_to 6277
  -31.7340   17.1081  -22.5790 LP  0  0  0  0  0  0  0  0  0  0  0  0  # atno 20725 bound_to 6277
  -35.6364   15.4600  -23.0076 LP  0  0  0  0  0  0  0  0  0  0  0  0  # atno 20726 bound_to 6500
  -36.6236   16.5788  -27.2458 LP  0  0  0  0  0  0  0  0  0  0  0  0  # atno 20727 bound_to 15687
  -38.1535   15.9813  -26.6956 LP  0  0  0  0  0  0  0  0  0  0  0  0  # atno 20728 bound_to 15687
  -38.8319   25.2308  -27.8157 LP  0  0  0  0  0  0  0  0  0  0  0  0  # atno 20729 bound_to 17724
  -38.0530   23.5521  -30.3790 LP  0  0  0  0  0  0  0  0  0  0  0  0  # atno 20730 bound_to 17543
  -39.6882   23.1285  -29.9963 LP  0  0  0  0  0  0  0  0  0  0  0  0  # atno 20731 bound_to 17543
  -35.9479   25.0946  -29.8992 LP  0  0  0  0  0  0  0  0  0  0  0  0  # atno 20732 bound_to 17814

> <Gold.Score>
     Fitness  S(hb_ext) S(vdw_ext)  S(hb_int)    S(int)      intcor
     31.26       0.18      25.81       0.00      -4.42      -0.78

> <Gold.Goldscore.Fitness>
31.2607

> <Gold.Goldscore.Internal.Vdw>
-4.4533

> <Gold.Goldscore.Internal.Torsion>
-0.7405

> <Gold.Goldscore.External.Vdw>
25.8149

> <Gold.Goldscore.Internal.HBond>
0.0000

> <Gold.Goldscore.External.HBond>
0.1839

> <Gold.Goldscore.Internal.Correction>
-0.7752

> <Gold.Goldscore.Hbonds>
donor molecule, donor type, donor heavy atom, donor atom, acceptor molecule, acceptor atom, score
      P1  H 12076 12166       L1     9  0.09

> <Gold.Goldscore.Internal.Vdw.Weighted>
-4.4533

> <Gold.Goldscore.Internal.Torsion.Weighted>
-0.7405

> <Gold.Goldscore.External.Vdw.Weighted>
35.4955

> <Gold.Goldscore.Internal.HBond.Weighted>
0.0000

> <Gold.Goldscore.External.HBond.Weighted>
0.1839

> <Gold.Goldscore.Internal.Correction.Weighted>
-0.7752

> <Gold.Rescore>
     Score     S(PLP)   S(hbond)     S(cho)   S(metal)  DE(clash)   DE(tors)     intcor
     33.66     -33.73       1.00       0.00       0.00       0.00       1.53       ----

> <Gold.PLP.Fitness>
33.6648

> <Gold.PLP.PLP>
-33.7309

> <Gold.PLP.part.hbond>
-2.4259

> <Gold.PLP.part.metal>
0.0000

> <Gold.PLP.part.buried>
-2.8284

> <Gold.PLP.part.nonpolar>
-29.3504

> <Gold.PLP.part.repulsive>
0.2707

> <Gold.PLP.ligand.clash>
0.0000

> <Gold.PLP.ligand.torsion>
1.5331

> <Gold.PLP.Chemscore.Hbond>
1.0000

> <Gold.PLP.Chemscore.CHOScore>
0.0000

> <Gold.PLP.Chemscore.Metal>
0.0000

> <Gold.Chemscore.Hbonds>
donor molecule, donor type, donor heavy atom, donor atom, acceptor molecule, acceptor atom, score
      P1  H 12076 12166       L1     9  0.72

> <Gold.PLP.Chemscore.Internal.Correction>
   9.000000E+99

