#       Name:                CT1002167954
#       Creating user name   hitesit
#       Creation time:       Sun Apr 16 02:23:09 2023


#       File generated by GOLD software.
#

@<TRIPOS>MOLECULE
CT1002167954|ligand_prepared|mol2|1|dock8
    29    30     1
SMALL
NO_CHARGES


@<TRIPOS>ATOM
      1 C1         -37.0795  22.7370 -18.9729 C.3            1 RES1               0.0000
      2 C2         -37.7269  22.2377 -20.2807 C.ar           1 RES1               0.0000
      3 C3         -36.8775  21.5042 -18.0969 C.2            1 RES1               0.0000
      4 C4         -35.7840  23.4324 -19.3766 C.2            1 RES1               0.0000
      5 C5         -37.9460  23.7552 -18.1958 C.3            1 RES1               0.0000
      6 C6         -37.4111  20.9832 -20.7937 C.ar           1 RES1               0.0000
      7 C7         -38.6420  23.0177 -20.9826 C.ar           1 RES1               0.0000
      8 N8         -35.6061  21.0318 -17.9543 N.am           1 RES1               0.0000
      9 O9         -37.8242  20.9317 -17.5712 O.2            1 RES1               0.0000
     10 N10        -34.6011  22.8713 -18.9721 N.am           1 RES1               0.0000
     11 O11        -35.7765  24.4519 -20.0555 O.2            1 RES1               0.0000
     12 C12        -37.4632  24.0148 -16.7774 C.3            1 RES1               0.0000
     13 C13        -37.9914  20.5238 -21.9644 C.ar           1 RES1               0.0000
     14 C14        -39.2210  22.5565 -22.1533 C.ar           1 RES1               0.0000
     15 C15        -34.4525  21.6858 -18.3053 C.2            1 RES1               0.0000
     16 C16        -38.8969  21.3098 -22.6447 C.ar           1 RES1               0.0000
     17 O17        -33.3524  21.2191 -18.0239 O.2            1 RES1               0.0000
     18 H18        -37.9538  24.7045 -18.7455 H              1 RES1               0.0000
     19 H19        -38.9771  23.3829 -18.1551 H              1 RES1               0.0000
     20 H20        -36.6988  20.3515 -20.2734 H              1 RES1               0.0000
     21 H21        -38.9111  24.0022 -20.6153 H              1 RES1               0.0000
     22 H22        -35.5035  20.1067 -17.5493 H              1 RES1               0.0000
     23 H23        -33.7527  23.3852 -19.1878 H              1 RES1               0.0000
     24 H24        -38.1061  24.7360 -16.2771 H              1 RES1               0.0000
     25 H25        -37.4667  23.0961 -16.1945 H              1 RES1               0.0000
     26 H26        -36.4495  24.4099 -16.7814 H              1 RES1               0.0000
     27 H27        -37.7320  19.5424 -22.3477 H              1 RES1               0.0000
     28 H28        -39.9327  23.1787 -22.6858 H              1 RES1               0.0000
     29 H29        -39.3516  20.9495 -23.5616 H              1 RES1               0.0000
@<TRIPOS>BOND
    1    1    2 1     
    2    1    3 1     
    3    1    4 1     
    4    1    5 1     
    5    2    6 ar    
    6    2    7 ar    
    7    3    8 1     
    8    3    9 2     
    9    4   10 1     
   10    4   11 2     
   11    5   12 1     
   12    5   18 1     
   13    5   19 1     
   14    6   13 ar    
   15    6   20 1     
   16    7   14 ar    
   17    7   21 1     
   18    8   15 1     
   19    8   22 1     
   20   10   15 1     
   21   10   23 1     
   22   12   24 1     
   23   12   25 1     
   24   12   26 1     
   25   13   16 ar    
   26   13   27 1     
   27   14   16 ar    
   28   14   28 1     
   29   15   17 2     
   30   16   29 1     
@<TRIPOS>SUBSTRUCTURE
      1 RES1           1
@<TRIPOS>SET
DONOR_HYDROGENS      STATIC     ATOMS    <user>   **** ""
2 22 23
ATOM$RED        STATIC     ATOMS    COLORGROUP SYSTEM
2 22 23
@<TRIPOS>COMMENT
> <Gold.Version>
2022.3.0

> <Gold.Id.Protein>
unknown|7ta6_clean|pdb

> <Gold.Protein.RotatedTorsions>
[ 10564 10443 10442 10441 ] final -134.44 input   60.01 | X-H torsion
[ 11622 11535 11534 11532 ] final   66.55 input   60.01 | X-H torsion
[ 11975 11916 11917 11918 ] final   84.12 input   43.11 | X-H torsion
[ 12166 12076 12077 12078 ] final  -67.75 input   60.03 | X-H torsion
[ 12306 12236 12237 12238 ] final  -31.83 input   49.55 | X-H torsion
[ 16043 15965 15964 15962 ] final   -5.28 input   60.00 | X-H torsion
[ 17235 17166 17170 17167 ] final -129.51 input   60.00 | X-H torsion
[ 17240 17169 17168 17167 ] final   89.09 input   59.99 | X-H torsion
[ 17396 17326 17327 17328 ] final -126.71 input   75.34 | X-H torsion
[ 17505 17474 17475 17476 ] final  106.20 input  132.66 | X-H torsion
[ 17658 17540 17541 17542 ] final  -70.80 input  113.35 | X-H torsion
[ 6542 6500 6501 6502 ] final   69.26 input   50.41 | X-H torsion
[ 17776 17724 17725 17726 ] final  128.09 input  117.84 | X-H torsion
[ 17892 17814 17815 17816 ] final   14.26 input  119.80 | X-H torsion
[ 12567 12491 12492 12493 ] final   24.69 input   85.07 | X-H torsion
[ 17998 17962 17963 17964 ] final  176.70 input  125.49 | X-H torsion
[ 20694 6503 6502 6501 ] final  171.20 input    0.00 | X-H torsion
[ 20698 11689 11688 11687 ] final  -79.78 input    0.00 | X-H torsion
[ 20701 11805 11804 11803 ] final   -5.11 input    0.00 | X-H torsion
[ 20704 11919 11918 11917 ] final -123.01 input    0.00 | X-H torsion
[ 20707 12079 12078 12077 ] final  -24.60 input    0.00 | X-H torsion
[ 20716 17329 17328 17327 ] final   -3.63 input    0.00 | X-H torsion
[ 20719 17477 17476 17475 ] final  -26.24 input    0.00 | X-H torsion
[ 20724 6277 6276 6275 ] final  -43.48 input    0.00 | X-H torsion
[ 20727 15687 15686 15685 ] final  -17.03 input    0.00 | X-H torsion
[ 20730 17543 17542 17541 ] final  165.34 input    0.00 | X-H torsion

> <Gold.Protein.ActiveResidues>
 TRP28   LEU55   SER60   GLN61   VAL62   LEU63   LYS98   TYR115  GLU116  PRO117 
 ILE118  TYR119  LEU120  VAL123  GLN149  TYR151  LEU157  XCP1    LEU2    GLY3   
 TRP4    CYS5    ILE6    GLY7   

> <Gold.Protein.RotatedAtoms>
  -35.0083   15.0536  -22.6494 H   0  0  0  0  0  0  0  0  0  0  0  0  # atno 6542 bound_to 6500
  -36.4809   18.9630  -15.1705 H   0  0  0  0  0  0  0  0  0  0  0  0  # atno 10564 bound_to 10443
  -37.9343   18.2038  -14.9246 H   0  0  0  0  0  0  0  0  0  0  0  0  # atno 10565 bound_to 10443
  -37.6745   19.7180  -14.3012 H   0  0  0  0  0  0  0  0  0  0  0  0  # atno 10566 bound_to 10443
  -45.1924   20.0197  -19.6920 H   0  0  0  0  0  0  0  0  0  0  0  0  # atno 11622 bound_to 11535
  -37.6066   15.6365  -20.2650 H   0  0  0  0  0  0  0  0  0  0  0  0  # atno 11975 bound_to 11916
  -34.5264   17.6006  -19.7891 H   0  0  0  0  0  0  0  0  0  0  0  0  # atno 12166 bound_to 12076
  -31.7762   19.8989  -21.6098 H   0  0  0  0  0  0  0  0  0  0  0  0  # atno 12306 bound_to 12236
  -48.2824   23.4845  -20.7852 H   0  0  0  0  0  0  0  0  0  0  0  0  # atno 12567 bound_to 12491
  -33.2864   20.9044  -26.3319 H   0  0  0  0  0  0  0  0  0  0  0  0  # atno 16043 bound_to 15965
  -37.3906   26.0222  -20.7952 H   0  0  0  0  0  0  0  0  0  0  0  0  # atno 17235 bound_to 17166
  -37.4402   27.5331  -21.4746 H   0  0  0  0  0  0  0  0  0  0  0  0  # atno 17236 bound_to 17166
  -38.3113   27.0175  -26.0682 H   0  0  0  0  0  0  0  0  0  0  0  0  # atno 17240 bound_to 17169
  -36.9547   27.8128  -24.2669 H   0  0  0  0  0  0  0  0  0  0  0  0  # atno 17396 bound_to 17326
  -36.6172   24.4652  -23.7001 H   0  0  0  0  0  0  0  0  0  0  0  0  # atno 17505 bound_to 17474
  -37.3955   22.6994  -26.2079 H   0  0  0  0  0  0  0  0  0  0  0  0  # atno 17658 bound_to 17540
  -37.9963   25.3248  -27.2942 H   0  0  0  0  0  0  0  0  0  0  0  0  # atno 17776 bound_to 17724
  -36.3389   24.0502  -29.3411 H   0  0  0  0  0  0  0  0  0  0  0  0  # atno 17892 bound_to 17814
  -35.4506   21.6250  -29.3775 H   0  0  0  0  0  0  0  0  0  0  0  0  # atno 17998 bound_to 17962
  -38.5270   14.8475  -21.8209 LP  0  0  0  0  0  0  0  0  0  0  0  0  # atno 20694 bound_to 6503
  -36.8162   15.1099  -21.7548 LP  0  0  0  0  0  0  0  0  0  0  0  0  # atno 20695 bound_to 6503
  -46.1682   20.0522  -20.9936 LP  0  0  0  0  0  0  0  0  0  0  0  0  # atno 20696 bound_to 11535
  -44.5637   19.8113  -21.1782 LP  0  0  0  0  0  0  0  0  0  0  0  0  # atno 20697 bound_to 11535
  -39.9238   13.7466  -18.5716 LP  0  0  0  0  0  0  0  0  0  0  0  0  # atno 20698 bound_to 11689
  -40.8720   13.7652  -20.0210 LP  0  0  0  0  0  0  0  0  0  0  0  0  # atno 20699 bound_to 11689
  -39.4987   17.5863  -17.6364 LP  0  0  0  0  0  0  0  0  0  0  0  0  # atno 20701 bound_to 11805
  -37.7845   17.3788  -17.5011 LP  0  0  0  0  0  0  0  0  0  0  0  0  # atno 20702 bound_to 11805
  -38.1928   17.1982  -19.7346 LP  0  0  0  0  0  0  0  0  0  0  0  0  # atno 20703 bound_to 11916
  -34.1240   16.4357  -21.6204 LP  0  0  0  0  0  0  0  0  0  0  0  0  # atno 20704 bound_to 11919
  -35.8310   16.3810  -21.9083 LP  0  0  0  0  0  0  0  0  0  0  0  0  # atno 20705 bound_to 11919
  -35.5292   19.0372  -19.8347 LP  0  0  0  0  0  0  0  0  0  0  0  0  # atno 20706 bound_to 12076
  -33.2427   20.2871  -18.7689 LP  0  0  0  0  0  0  0  0  0  0  0  0  # atno 20707 bound_to 12079
  -31.6573   19.6251  -18.5498 LP  0  0  0  0  0  0  0  0  0  0  0  0  # atno 20708 bound_to 12079
  -31.8127   18.3576  -20.7796 LP  0  0  0  0  0  0  0  0  0  0  0  0  # atno 20709 bound_to 12236
  -34.8189   20.4089  -26.1014 LP  0  0  0  0  0  0  0  0  0  0  0  0  # atno 20710 bound_to 15965
  -34.4656   21.4423  -27.3154 LP  0  0  0  0  0  0  0  0  0  0  0  0  # atno 20711 bound_to 15965
  -38.4901   27.1297  -20.2742 LP  0  0  0  0  0  0  0  0  0  0  0  0  # atno 20712 bound_to 17166
  -39.1296   25.8317  -25.3113 LP  0  0  0  0  0  0  0  0  0  0  0  0  # atno 20713 bound_to 17169
  -37.5503   25.6333  -25.6763 LP  0  0  0  0  0  0  0  0  0  0  0  0  # atno 20714 bound_to 17169
  -37.0712   26.4029  -23.1485 LP  0  0  0  0  0  0  0  0  0  0  0  0  # atno 20715 bound_to 17326
  -35.2922   25.6903  -27.1375 LP  0  0  0  0  0  0  0  0  0  0  0  0  # atno 20716 bound_to 17329
  -35.5931   23.9980  -26.9238 LP  0  0  0  0  0  0  0  0  0  0  0  0  # atno 20717 bound_to 17329
  -35.4674   24.7540  -24.9860 LP  0  0  0  0  0  0  0  0  0  0  0  0  # atno 20718 bound_to 17474
  -35.5960   22.0832  -27.3567 LP  0  0  0  0  0  0  0  0  0  0  0  0  # atno 20719 bound_to 17477
  -37.1848   21.6522  -27.8952 LP  0  0  0  0  0  0  0  0  0  0  0  0  # atno 20720 bound_to 17477
  -38.6327   23.6366  -25.4095 LP  0  0  0  0  0  0  0  0  0  0  0  0  # atno 20721 bound_to 17540
  -31.0127   17.4692  -22.7488 LP  0  0  0  0  0  0  0  0  0  0  0  0  # atno 20724 bound_to 6277
  -32.4697   18.2683  -23.2372 LP  0  0  0  0  0  0  0  0  0  0  0  0  # atno 20725 bound_to 6277
  -35.1142   15.1499  -24.3951 LP  0  0  0  0  0  0  0  0  0  0  0  0  # atno 20726 bound_to 6500
  -37.5741   17.0826  -27.2382 LP  0  0  0  0  0  0  0  0  0  0  0  0  # atno 20727 bound_to 15687
  -37.2030   15.4775  -26.7032 LP  0  0  0  0  0  0  0  0  0  0  0  0  # atno 20728 bound_to 15687
  -38.3201   24.0716  -28.4673 LP  0  0  0  0  0  0  0  0  0  0  0  0  # atno 20729 bound_to 17724
  -38.6457   24.1270  -30.4714 LP  0  0  0  0  0  0  0  0  0  0  0  0  # atno 20730 bound_to 17543
  -39.0955   22.5536  -29.9039 LP  0  0  0  0  0  0  0  0  0  0  0  0  # atno 20731 bound_to 17543
  -35.1997   25.3236  -28.9756 LP  0  0  0  0  0  0  0  0  0  0  0  0  # atno 20732 bound_to 17814

> <Gold.Score>
     Fitness  S(hb_ext) S(vdw_ext)  S(hb_int)    S(int)      intcor
     32.20       1.75      22.47       0.00      -0.45      -0.78

> <Gold.Goldscore.Fitness>
32.1967

> <Gold.Goldscore.Internal.Vdw>
-0.5975

> <Gold.Goldscore.Internal.Torsion>
-0.6230

> <Gold.Goldscore.External.Vdw>
22.4703

> <Gold.Goldscore.Internal.HBond>
0.0000

> <Gold.Goldscore.External.HBond>
1.7453

> <Gold.Goldscore.Internal.Correction>
-0.7752

> <Gold.Goldscore.Hbonds>
donor molecule, donor type, donor heavy atom, donor atom, acceptor molecule, acceptor atom, score
      P1  H 17166 17235       L1    11  0.87

> <Gold.Goldscore.Internal.Vdw.Weighted>
-0.5975

> <Gold.Goldscore.Internal.Torsion.Weighted>
-0.6230

> <Gold.Goldscore.External.Vdw.Weighted>
30.8966

> <Gold.Goldscore.Internal.HBond.Weighted>
0.0000

> <Gold.Goldscore.External.HBond.Weighted>
1.7453

> <Gold.Goldscore.Internal.Correction.Weighted>
-0.7752

> <Gold.Rescore>
     Score     S(PLP)   S(hbond)     S(cho)   S(metal)  DE(clash)   DE(tors)     intcor
     31.24     -30.45       1.00       0.00       0.00       0.00       1.11       ----

> <Gold.PLP.Fitness>
31.2353

> <Gold.PLP.PLP>
-30.4543

> <Gold.PLP.part.hbond>
-1.0000

> <Gold.PLP.part.metal>
0.0000

> <Gold.PLP.part.buried>
-3.7579

> <Gold.PLP.part.nonpolar>
-25.8189

> <Gold.PLP.part.repulsive>
0.0947

> <Gold.PLP.ligand.clash>
0.0000

> <Gold.PLP.ligand.torsion>
1.1095

> <Gold.PLP.Chemscore.Hbond>
1.0000

> <Gold.PLP.Chemscore.CHOScore>
0.0000

> <Gold.PLP.Chemscore.Metal>
0.0000

> <Gold.Chemscore.Hbonds>
donor molecule, donor type, donor heavy atom, donor atom, acceptor molecule, acceptor atom, score
      P1  H 17166 17235       L1    11  0.32

> <Gold.PLP.Chemscore.Internal.Correction>
   9.000000E+99

