#       Name:                CT1002167954
#       Creating user name   hitesit
#       Creation time:       Sun Apr 16 02:23:09 2023


#       File generated by GOLD software.
#

@<TRIPOS>MOLECULE
CT1002167954|ligand_prepared|mol2|1|dock7
    29    30     1
SMALL
NO_CHARGES


@<TRIPOS>ATOM
      1 C1         -37.8317  22.3225 -20.3399 C.3            1 RES1               0.0000
      2 C2         -36.5978  23.2406 -20.2245 C.ar           1 RES1               0.0000
      3 C3         -38.9785  23.2048 -20.8241 C.2            1 RES1               0.0000
      4 C4         -37.4478  21.2122 -21.3118 C.2            1 RES1               0.0000
      5 C5         -38.2483  21.6649 -19.0037 C.3            1 RES1               0.0000
      6 C6         -35.6737  23.3195 -21.2622 C.ar           1 RES1               0.0000
      7 C7         -36.3718  24.0153 -19.0899 C.ar           1 RES1               0.0000
      8 N8         -39.3800  23.0645 -22.1199 N.am           1 RES1               0.0000
      9 O9         -39.4963  24.0388 -20.0916 O.2            1 RES1               0.0000
     10 N10        -38.1114  21.1491 -22.5091 N.am           1 RES1               0.0000
     11 O11        -36.5653  20.4015 -21.0585 O.2            1 RES1               0.0000
     12 C12        -37.0942  21.0220 -18.2507 C.3            1 RES1               0.0000
     13 C13        -34.5655  24.1452 -21.1701 C.ar           1 RES1               0.0000
     14 C14        -35.2628  24.8402 -18.9998 C.ar           1 RES1               0.0000
     15 C15        -39.0387  22.0434 -22.9699 C.2            1 RES1               0.0000
     16 C16        -34.3595  24.9063 -20.0393 C.ar           1 RES1               0.0000
     17 O17        -39.5519  21.9499 -24.0813 O.2            1 RES1               0.0000
     18 H18        -38.7068  22.4278 -18.3625 H              1 RES1               0.0000
     19 H19        -39.0065  20.8990 -19.2083 H              1 RES1               0.0000
     20 H20        -35.8179  22.7261 -22.1589 H              1 RES1               0.0000
     21 H21        -37.0686  23.9785 -18.2593 H              1 RES1               0.0000
     22 H22        -39.9904  23.7855 -22.4912 H              1 RES1               0.0000
     23 H23        -37.8940  20.3624 -23.1126 H              1 RES1               0.0000
     24 H24        -37.4412  20.5757 -17.3211 H              1 RES1               0.0000
     25 H25        -36.6306  20.2407 -18.8493 H              1 RES1               0.0000
     26 H26        -36.3327  21.7604 -18.0086 H              1 RES1               0.0000
     27 H27        -33.8569  24.1927 -21.9904 H              1 RES1               0.0000
     28 H28        -35.1043  25.4370 -18.1077 H              1 RES1               0.0000
     29 H29        -33.4915  25.5534 -19.9676 H              1 RES1               0.0000
@<TRIPOS>BOND
    1    1    2 1     
    2    1    3 1     
    3    1    4 1     
    4    1    5 1     
    5    2    6 ar    
    6    2    7 ar    
    7    3    8 1     
    8    3    9 2     
    9    4   10 1     
   10    4   11 2     
   11    5   12 1     
   12    5   18 1     
   13    5   19 1     
   14    6   13 ar    
   15    6   20 1     
   16    7   14 ar    
   17    7   21 1     
   18    8   15 1     
   19    8   22 1     
   20   10   15 1     
   21   10   23 1     
   22   12   24 1     
   23   12   25 1     
   24   12   26 1     
   25   13   16 ar    
   26   13   27 1     
   27   14   16 ar    
   28   14   28 1     
   29   15   17 2     
   30   16   29 1     
@<TRIPOS>SUBSTRUCTURE
      1 RES1           1
@<TRIPOS>SET
DONOR_HYDROGENS      STATIC     ATOMS    <user>   **** ""
2 22 23
ATOM$RED        STATIC     ATOMS    COLORGROUP SYSTEM
2 22 23
@<TRIPOS>COMMENT
> <Gold.Version>
2022.3.0

> <Gold.Id.Protein>
unknown|7ta6_clean|pdb

> <Gold.Protein.RotatedTorsions>
[ 10564 10443 10442 10441 ] final -133.97 input   60.01 | X-H torsion
[ 11622 11535 11534 11532 ] final -159.38 input   60.01 | X-H torsion
[ 11975 11916 11917 11918 ] final  165.00 input   43.11 | X-H torsion
[ 12166 12076 12077 12078 ] final -117.29 input   60.03 | X-H torsion
[ 12306 12236 12237 12238 ] final    7.47 input   49.55 | X-H torsion
[ 16043 15965 15964 15962 ] final  -31.41 input   60.00 | X-H torsion
[ 17235 17166 17170 17167 ] final -136.71 input   60.00 | X-H torsion
[ 17240 17169 17168 17167 ] final -116.23 input   59.99 | X-H torsion
[ 17396 17326 17327 17328 ] final   22.72 input   75.34 | X-H torsion
[ 17505 17474 17475 17476 ] final   30.20 input  132.66 | X-H torsion
[ 17658 17540 17541 17542 ] final  -97.47 input  113.35 | X-H torsion
[ 6542 6500 6501 6502 ] final  -19.73 input   50.41 | X-H torsion
[ 17776 17724 17725 17726 ] final   99.25 input  117.84 | X-H torsion
[ 17892 17814 17815 17816 ] final -163.14 input  119.80 | X-H torsion
[ 12567 12491 12492 12493 ] final   45.42 input   85.07 | X-H torsion
[ 17998 17962 17963 17964 ] final -137.88 input  125.49 | X-H torsion
[ 20694 6503 6502 6501 ] final  -87.44 input    0.00 | X-H torsion
[ 20698 11689 11688 11687 ] final   89.70 input    0.00 | X-H torsion
[ 20701 11805 11804 11803 ] final  122.97 input    0.00 | X-H torsion
[ 20704 11919 11918 11917 ] final    3.31 input    0.00 | X-H torsion
[ 20707 12079 12078 12077 ] final  -80.09 input    0.00 | X-H torsion
[ 20716 17329 17328 17327 ] final  166.13 input    0.00 | X-H torsion
[ 20719 17477 17476 17475 ] final  -89.40 input    0.00 | X-H torsion
[ 20724 6277 6276 6275 ] final  -27.45 input    0.00 | X-H torsion
[ 20727 15687 15686 15685 ] final    4.93 input    0.00 | X-H torsion
[ 20730 17543 17542 17541 ] final   68.93 input    0.00 | X-H torsion

> <Gold.Protein.ActiveResidues>
 TRP28   LEU55   SER60   GLN61   VAL62   LEU63   LYS98   TYR115  GLU116  PRO117 
 ILE118  TYR119  LEU120  VAL123  GLN149  TYR151  LEU157  XCP1    LEU2    GLY3   
 TRP4    CYS5    ILE6    GLY7   

> <Gold.Protein.RotatedAtoms>
  -35.8307   15.5468  -23.4511 H   0  0  0  0  0  0  0  0  0  0  0  0  # atno 6542 bound_to 6500
  -36.4821   18.9558  -15.1735 H   0  0  0  0  0  0  0  0  0  0  0  0  # atno 10564 bound_to 10443
  -37.9400   18.2074  -14.9204 H   0  0  0  0  0  0  0  0  0  0  0  0  # atno 10565 bound_to 10443
  -37.6675   19.7216  -14.3024 H   0  0  0  0  0  0  0  0  0  0  0  0  # atno 10566 bound_to 10443
  -44.7277   19.8184  -21.3396 H   0  0  0  0  0  0  0  0  0  0  0  0  # atno 11622 bound_to 11535
  -38.1089   15.9505  -19.2746 H   0  0  0  0  0  0  0  0  0  0  0  0  # atno 11975 bound_to 11916
  -35.0452   17.6040  -20.3289 H   0  0  0  0  0  0  0  0  0  0  0  0  # atno 12166 bound_to 12076
  -31.5472   19.4735  -21.9645 H   0  0  0  0  0  0  0  0  0  0  0  0  # atno 12306 bound_to 12236
  -47.9639   23.5156  -20.7673 H   0  0  0  0  0  0  0  0  0  0  0  0  # atno 12567 bound_to 12491
  -33.4677   20.6449  -26.0511 H   0  0  0  0  0  0  0  0  0  0  0  0  # atno 16043 bound_to 15965
  -37.4701   26.0003  -20.7079 H   0  0  0  0  0  0  0  0  0  0  0  0  # atno 17235 bound_to 17166
  -37.3628   27.4477  -21.5081 H   0  0  0  0  0  0  0  0  0  0  0  0  # atno 17236 bound_to 17166
  -37.9594   25.3428  -25.4273 H   0  0  0  0  0  0  0  0  0  0  0  0  # atno 17240 bound_to 17169
  -37.1294   26.0522  -23.6239 H   0  0  0  0  0  0  0  0  0  0  0  0  # atno 17396 bound_to 17326
  -36.8169   24.8200  -24.7132 H   0  0  0  0  0  0  0  0  0  0  0  0  # atno 17505 bound_to 17474
  -37.6202   22.4178  -26.0210 H   0  0  0  0  0  0  0  0  0  0  0  0  # atno 17658 bound_to 17540
  -37.6319   25.0791  -27.2954 H   0  0  0  0  0  0  0  0  0  0  0  0  # atno 17776 bound_to 17724
  -35.1949   25.3536  -29.0077 H   0  0  0  0  0  0  0  0  0  0  0  0  # atno 17892 bound_to 17814
  -34.9557   21.6604  -29.8405 H   0  0  0  0  0  0  0  0  0  0  0  0  # atno 17998 bound_to 17962
  -37.4432   14.4513  -21.1401 LP  0  0  0  0  0  0  0  0  0  0  0  0  # atno 20694 bound_to 6503
  -37.9001   15.5061  -22.4357 LP  0  0  0  0  0  0  0  0  0  0  0  0  # atno 20695 bound_to 6503
  -44.9696   19.9870  -19.7394 LP  0  0  0  0  0  0  0  0  0  0  0  0  # atno 20696 bound_to 11535
  -46.2305   20.0791  -20.7730 LP  0  0  0  0  0  0  0  0  0  0  0  0  # atno 20697 bound_to 11535
  -40.9691   13.6682  -19.9413 LP  0  0  0  0  0  0  0  0  0  0  0  0  # atno 20698 bound_to 11689
  -39.8267   13.8437  -18.6513 LP  0  0  0  0  0  0  0  0  0  0  0  0  # atno 20699 bound_to 11689
  -38.2084   16.7892  -17.2831 LP  0  0  0  0  0  0  0  0  0  0  0  0  # atno 20701 bound_to 11805
  -39.0748   18.1759  -17.8544 LP  0  0  0  0  0  0  0  0  0  0  0  0  # atno 20702 bound_to 11805
  -37.7068   16.8944  -20.6928 LP  0  0  0  0  0  0  0  0  0  0  0  0  # atno 20703 bound_to 11916
  -35.5270   15.8040  -21.4766 LP  0  0  0  0  0  0  0  0  0  0  0  0  # atno 20704 bound_to 11919
  -34.4280   17.0127  -22.0521 LP  0  0  0  0  0  0  0  0  0  0  0  0  # atno 20705 bound_to 11919
  -35.0305   19.0340  -19.3157 LP  0  0  0  0  0  0  0  0  0  0  0  0  # atno 20706 bound_to 12076
  -32.6118   20.7638  -18.9267 LP  0  0  0  0  0  0  0  0  0  0  0  0  # atno 20707 bound_to 12079
  -32.2882   19.1485  -18.3920 LP  0  0  0  0  0  0  0  0  0  0  0  0  # atno 20708 bound_to 12079
  -32.0336   18.7680  -20.4374 LP  0  0  0  0  0  0  0  0  0  0  0  0  # atno 20709 bound_to 12236
  -35.0559   20.5975  -26.4013 LP  0  0  0  0  0  0  0  0  0  0  0  0  # atno 20710 bound_to 15965
  -34.0459   21.5152  -27.2983 LP  0  0  0  0  0  0  0  0  0  0  0  0  # atno 20711 bound_to 15965
  -38.4880   27.2355  -20.3271 LP  0  0  0  0  0  0  0  0  0  0  0  0  # atno 20712 bound_to 17166
  -37.7963   26.8043  -26.1244 LP  0  0  0  0  0  0  0  0  0  0  0  0  # atno 20713 bound_to 17169
  -39.2378   26.3467  -25.5083 LP  0  0  0  0  0  0  0  0  0  0  0  0  # atno 20714 bound_to 17169
  -36.9282   27.8436  -23.6746 LP  0  0  0  0  0  0  0  0  0  0  0  0  # atno 20715 bound_to 17326
  -35.4412   23.9884  -26.8973 LP  0  0  0  0  0  0  0  0  0  0  0  0  # atno 20716 bound_to 17329
  -35.4441   25.6998  -27.1640 LP  0  0  0  0  0  0  0  0  0  0  0  0  # atno 20717 bound_to 17329
  -35.2733   24.4090  -24.0008 LP  0  0  0  0  0  0  0  0  0  0  0  0  # atno 20718 bound_to 17474
  -36.0804   22.6307  -27.8938 LP  0  0  0  0  0  0  0  0  0  0  0  0  # atno 20719 bound_to 17477
  -36.7003   21.1047  -27.3581 LP  0  0  0  0  0  0  0  0  0  0  0  0  # atno 20720 bound_to 17477
  -38.4116   23.9136  -25.5934 LP  0  0  0  0  0  0  0  0  0  0  0  0  # atno 20721 bound_to 17540
  -30.9119   17.6637  -22.8508 LP  0  0  0  0  0  0  0  0  0  0  0  0  # atno 20724 bound_to 6277
  -32.5705   18.0739  -23.1352 LP  0  0  0  0  0  0  0  0  0  0  0  0  # atno 20725 bound_to 6277
  -34.3215   14.6745  -23.6224 LP  0  0  0  0  0  0  0  0  0  0  0  0  # atno 20726 bound_to 6500
  -37.8707   16.9801  -27.1366 LP  0  0  0  0  0  0  0  0  0  0  0  0  # atno 20727 bound_to 15687
  -36.9064   15.5800  -26.8048 LP  0  0  0  0  0  0  0  0  0  0  0  0  # atno 20728 bound_to 15687
  -38.6771   24.3123  -28.4662 LP  0  0  0  0  0  0  0  0  0  0  0  0  # atno 20729 bound_to 17724
  -39.7176   23.5037  -30.1109 LP  0  0  0  0  0  0  0  0  0  0  0  0  # atno 20730 bound_to 17543
  -38.0236   23.1770  -30.2644 LP  0  0  0  0  0  0  0  0  0  0  0  0  # atno 20731 bound_to 17543
  -36.3189   24.0485  -29.3018 LP  0  0  0  0  0  0  0  0  0  0  0  0  # atno 20732 bound_to 17814

> <Gold.Score>
     Fitness  S(hb_ext) S(vdw_ext)  S(hb_int)    S(int)      intcor
     31.86       3.00      23.53       0.00      -3.50      -0.78

> <Gold.Goldscore.Fitness>
31.8593

> <Gold.Goldscore.Internal.Vdw>
-3.6977

> <Gold.Goldscore.Internal.Torsion>
-0.5734

> <Gold.Goldscore.External.Vdw>
23.5295

> <Gold.Goldscore.Internal.HBond>
0.0000

> <Gold.Goldscore.External.HBond>
3.0021

> <Gold.Goldscore.Internal.Correction>
-0.7752

> <Gold.Goldscore.Hbonds>
donor molecule, donor type, donor heavy atom, donor atom, acceptor molecule, acceptor atom, score
      L1  H    10    23       P1  6376  0.50

> <Gold.Goldscore.Internal.Vdw.Weighted>
-3.6977

> <Gold.Goldscore.Internal.Torsion.Weighted>
-0.5734

> <Gold.Goldscore.External.Vdw.Weighted>
32.3531

> <Gold.Goldscore.Internal.HBond.Weighted>
0.0000

> <Gold.Goldscore.External.HBond.Weighted>
3.0021

> <Gold.Goldscore.Internal.Correction.Weighted>
-0.7752

> <Gold.Rescore>
     Score     S(PLP)   S(hbond)     S(cho)   S(metal)  DE(clash)   DE(tors)     intcor
     21.53     -23.95       0.00       0.00       0.00       0.00       1.21       ----

> <Gold.PLP.Fitness>
21.5291

> <Gold.PLP.PLP>
-23.9529

> <Gold.PLP.part.hbond>
-1.3909

> <Gold.PLP.part.metal>
0.0000

> <Gold.PLP.part.buried>
-4.4647

> <Gold.PLP.part.nonpolar>
-18.7267

> <Gold.PLP.part.repulsive>
0.1365

> <Gold.PLP.ligand.clash>
0.0000

> <Gold.PLP.ligand.torsion>
1.2119

> <Gold.PLP.Chemscore.Hbond>
0.0000

> <Gold.PLP.Chemscore.CHOScore>
0.0000

> <Gold.PLP.Chemscore.Metal>
0.0000

> <Gold.Chemscore.Hbonds>
donor molecule, donor type, donor heavy atom, donor atom, acceptor molecule, acceptor atom, score
      L1  H    10    23       P1  6376  0.70

> <Gold.PLP.Chemscore.Internal.Correction>
   9.000000E+99

