#       Name:                CT1002167954
#       Creating user name   hitesit
#       Creation time:       Sun Apr 16 02:23:05 2023


#       File generated by GOLD software.
#

@<TRIPOS>MOLECULE
CT1002167954|ligand_prepared|mol2|1|dock2
    29    30     1
SMALL
NO_CHARGES


@<TRIPOS>ATOM
      1 C1         -38.2957  21.8288 -20.2618 C.3            1 RES1               0.0000
      2 C2         -37.1922  22.9055 -20.2183 C.ar           1 RES1               0.0000
      3 C3         -38.4473  21.4297 -21.7267 C.2            1 RES1               0.0000
      4 C4         -37.8244  20.6979 -19.3544 C.2            1 RES1               0.0000
      5 C5         -39.6673  22.3186 -19.7417 C.3            1 RES1               0.0000
      6 C6         -36.2990  23.0479 -21.2759 C.ar           1 RES1               0.0000
      7 C7         -37.0568  23.7638 -19.1304 C.ar           1 RES1               0.0000
      8 N8         -37.9507  20.2174 -22.1059 N.am           1 RES1               0.0000
      9 O9         -38.9592  22.1839 -22.5449 O.2            1 RES1               0.0000
     10 N10        -37.5405  19.4877 -19.9312 N.am           1 RES1               0.0000
     11 O11        -37.6802  20.8486 -18.1474 O.2            1 RES1               0.0000
     12 C12        -40.0914  23.6655 -20.3055 C.3            1 RES1               0.0000
     13 C13        -35.3082  24.0152 -21.2485 C.ar           1 RES1               0.0000
     14 C14        -36.0650  24.7304 -19.1048 C.ar           1 RES1               0.0000
     15 C15        -37.5529  19.2051 -21.2700 C.2            1 RES1               0.0000
     16 C16        -35.1907  24.8573 -20.1633 C.ar           1 RES1               0.0000
     17 O17        -37.2322  18.1076 -21.7168 O.2            1 RES1               0.0000
     18 H18        -40.4293  21.5724 -19.9987 H              1 RES1               0.0000
     19 H19        -39.6247  22.3913 -18.6480 H              1 RES1               0.0000
     20 H20        -36.3744  22.3926 -22.1373 H              1 RES1               0.0000
     21 H21        -37.7326  23.6815 -18.2860 H              1 RES1               0.0000
     22 H22        -37.8674  20.0478 -23.1032 H              1 RES1               0.0000
     23 H23        -37.2977  18.7270 -19.3046 H              1 RES1               0.0000
     24 H24        -41.0600  23.9622 -19.9085 H              1 RES1               0.0000
     25 H25        -39.3687  24.4367 -20.0472 H              1 RES1               0.0000
     26 H26        -40.1685  23.6227 -21.3900 H              1 RES1               0.0000
     27 H27        -34.6217  24.1101 -22.0834 H              1 RES1               0.0000
     28 H28        -35.9759  25.3906 -18.2484 H              1 RES1               0.0000
     29 H29        -34.4147  25.6153 -20.1422 H              1 RES1               0.0000
@<TRIPOS>BOND
    1    1    2 1     
    2    1    3 1     
    3    1    4 1     
    4    1    5 1     
    5    2    6 ar    
    6    2    7 ar    
    7    3    8 1     
    8    3    9 2     
    9    4   10 1     
   10    4   11 2     
   11    5   12 1     
   12    5   18 1     
   13    5   19 1     
   14    6   13 ar    
   15    6   20 1     
   16    7   14 ar    
   17    7   21 1     
   18    8   15 1     
   19    8   22 1     
   20   10   15 1     
   21   10   23 1     
   22   12   24 1     
   23   12   25 1     
   24   12   26 1     
   25   13   16 ar    
   26   13   27 1     
   27   14   16 ar    
   28   14   28 1     
   29   15   17 2     
   30   16   29 1     
@<TRIPOS>SUBSTRUCTURE
      1 RES1           1
@<TRIPOS>SET
DONOR_HYDROGENS      STATIC     ATOMS    <user>   **** ""
2 22 23
ATOM$RED        STATIC     ATOMS    COLORGROUP SYSTEM
2 22 23
@<TRIPOS>COMMENT
> <Gold.Version>
2022.3.0

> <Gold.Id.Protein>
unknown|7ta6_clean|pdb

> <Gold.Protein.RotatedTorsions>
[ 10564 10443 10442 10441 ] final  -83.05 input   60.01 | X-H torsion
[ 11622 11535 11534 11532 ] final  -52.87 input   60.01 | X-H torsion
[ 11975 11916 11917 11918 ] final  115.99 input   43.11 | X-H torsion
[ 12166 12076 12077 12078 ] final  -59.35 input   60.03 | X-H torsion
[ 12306 12236 12237 12238 ] final   55.92 input   49.55 | X-H torsion
[ 16043 15965 15964 15962 ] final   27.79 input   60.00 | X-H torsion
[ 17235 17166 17170 17167 ] final -163.40 input   60.00 | X-H torsion
[ 17240 17169 17168 17167 ] final  -98.66 input   59.99 | X-H torsion
[ 17396 17326 17327 17328 ] final -175.34 input   75.34 | X-H torsion
[ 17505 17474 17475 17476 ] final   28.42 input  132.66 | X-H torsion
[ 17658 17540 17541 17542 ] final  110.77 input  113.35 | X-H torsion
[ 6542 6500 6501 6502 ] final  -94.35 input   50.41 | X-H torsion
[ 17776 17724 17725 17726 ] final   46.14 input  117.84 | X-H torsion
[ 17892 17814 17815 17816 ] final  -46.17 input  119.80 | X-H torsion
[ 12567 12491 12492 12493 ] final  129.62 input   85.07 | X-H torsion
[ 17998 17962 17963 17964 ] final -138.94 input  125.49 | X-H torsion
[ 20694 6503 6502 6501 ] final  134.95 input    0.00 | X-H torsion
[ 20698 11689 11688 11687 ] final  146.38 input    0.00 | X-H torsion
[ 20701 11805 11804 11803 ] final   73.24 input    0.00 | X-H torsion
[ 20704 11919 11918 11917 ] final  118.17 input    0.00 | X-H torsion
[ 20707 12079 12078 12077 ] final -164.56 input    0.00 | X-H torsion
[ 20716 17329 17328 17327 ] final   68.77 input    0.00 | X-H torsion
[ 20719 17477 17476 17475 ] final    5.42 input    0.00 | X-H torsion
[ 20724 6277 6276 6275 ] final   39.05 input    0.00 | X-H torsion
[ 20727 15687 15686 15685 ] final  115.86 input    0.00 | X-H torsion
[ 20730 17543 17542 17541 ] final   70.90 input    0.00 | X-H torsion

> <Gold.Protein.ActiveResidues>
 TRP28   LEU55   SER60   GLN61   VAL62   LEU63   LYS98   TYR115  GLU116  PRO117 
 ILE118  TYR119  LEU120  VAL123  GLN149  TYR151  LEU157  XCP1    LEU2    GLY3   
 TRP4    CYS5    ILE6    GLY7   

> <Gold.Protein.RotatedAtoms>
  -35.3425   15.2563  -24.3710 H   0  0  0  0  0  0  0  0  0  0  0  0  # atno 6542 bound_to 6500
  -36.9302   18.2793  -15.3119 H   0  0  0  0  0  0  0  0  0  0  0  0  # atno 10564 bound_to 10443
  -38.2580   18.8294  -14.4851 H   0  0  0  0  0  0  0  0  0  0  0  0  # atno 10565 bound_to 10443
  -36.9018   19.7764  -14.5989 H   0  0  0  0  0  0  0  0  0  0  0  0  # atno 10566 bound_to 10443
  -46.1660   20.0502  -20.9821 H   0  0  0  0  0  0  0  0  0  0  0  0  # atno 11622 bound_to 11535
  -37.7889   15.5663  -19.8172 H   0  0  0  0  0  0  0  0  0  0  0  0  # atno 11975 bound_to 11916
  -34.4659   17.6577  -19.6879 H   0  0  0  0  0  0  0  0  0  0  0  0  # atno 12166 bound_to 12076
  -31.4189   18.7554  -21.9112 H   0  0  0  0  0  0  0  0  0  0  0  0  # atno 12306 bound_to 12236
  -47.2444   24.0871  -21.5304 H   0  0  0  0  0  0  0  0  0  0  0  0  # atno 12567 bound_to 12491
  -33.3219   21.2296  -26.7522 H   0  0  0  0  0  0  0  0  0  0  0  0  # atno 16043 bound_to 15965
  -37.7967   26.0424  -20.4133 H   0  0  0  0  0  0  0  0  0  0  0  0  # atno 17235 bound_to 17166
  -37.1408   27.0671  -21.5388 H   0  0  0  0  0  0  0  0  0  0  0  0  # atno 17236 bound_to 17166
  -38.2263   25.3018  -25.3327 H   0  0  0  0  0  0  0  0  0  0  0  0  # atno 17240 bound_to 17169
  -36.4700   27.8631  -23.6280 H   0  0  0  0  0  0  0  0  0  0  0  0  # atno 17396 bound_to 17326
  -36.8039   24.8261  -24.7367 H   0  0  0  0  0  0  0  0  0  0  0  0  # atno 17505 bound_to 17474
  -38.6495   23.6243  -25.3905 H   0  0  0  0  0  0  0  0  0  0  0  0  # atno 17658 bound_to 17540
  -37.3473   24.4375  -27.6554 H   0  0  0  0  0  0  0  0  0  0  0  0  # atno 17776 bound_to 17724
  -36.2197   24.7211  -29.9119 H   0  0  0  0  0  0  0  0  0  0  0  0  # atno 17892 bound_to 17814
  -34.9634   21.6556  -29.8270 H   0  0  0  0  0  0  0  0  0  0  0  0  # atno 17998 bound_to 17962
  -38.3976   15.2066  -22.2014 LP  0  0  0  0  0  0  0  0  0  0  0  0  # atno 20694 bound_to 6503
  -36.9456   14.7508  -21.3744 LP  0  0  0  0  0  0  0  0  0  0  0  0  # atno 20695 bound_to 6503
  -44.5694   19.8115  -21.1858 LP  0  0  0  0  0  0  0  0  0  0  0  0  # atno 20696 bound_to 11535
  -45.1819   20.0212  -19.6866 LP  0  0  0  0  0  0  0  0  0  0  0  0  # atno 20697 bound_to 11535
  -40.3109   14.1452  -20.0650 LP  0  0  0  0  0  0  0  0  0  0  0  0  # atno 20698 bound_to 11689
  -40.4849   13.3667  -18.5276 LP  0  0  0  0  0  0  0  0  0  0  0  0  # atno 20699 bound_to 11689
  -38.9335   16.7204  -17.2789 LP  0  0  0  0  0  0  0  0  0  0  0  0  # atno 20701 bound_to 11805
  -38.3497   18.2446  -17.8586 LP  0  0  0  0  0  0  0  0  0  0  0  0  # atno 20702 bound_to 11805
  -38.0164   17.2661  -20.1678 LP  0  0  0  0  0  0  0  0  0  0  0  0  # atno 20703 bound_to 11916
  -35.3412   17.0346  -22.2393 LP  0  0  0  0  0  0  0  0  0  0  0  0  # atno 20704 bound_to 11919
  -34.6138   15.7821  -21.2894 LP  0  0  0  0  0  0  0  0  0  0  0  0  # atno 20705 bound_to 11919
  -35.5873   18.9823  -19.9319 LP  0  0  0  0  0  0  0  0  0  0  0  0  # atno 20706 bound_to 12076
  -31.6188   20.1869  -18.7357 LP  0  0  0  0  0  0  0  0  0  0  0  0  # atno 20707 bound_to 12079
  -33.2812   19.7253  -18.5829 LP  0  0  0  0  0  0  0  0  0  0  0  0  # atno 20708 bound_to 12079
  -32.1574   19.4608  -20.4888 LP  0  0  0  0  0  0  0  0  0  0  0  0  # atno 20709 bound_to 12236
  -34.3433   20.3224  -25.8684 LP  0  0  0  0  0  0  0  0  0  0  0  0  # atno 20710 bound_to 15965
  -34.9054   21.2010  -27.1249 LP  0  0  0  0  0  0  0  0  0  0  0  0  # atno 20711 bound_to 15965
  -38.3850   27.5690  -20.5870 LP  0  0  0  0  0  0  0  0  0  0  0  0  # atno 20712 bound_to 17166
  -37.5981   26.5982  -26.0899 LP  0  0  0  0  0  0  0  0  0  0  0  0  # atno 20713 bound_to 17169
  -39.1673   26.5940  -25.6381 LP  0  0  0  0  0  0  0  0  0  0  0  0  # atno 20714 bound_to 17169
  -37.4679   26.3617  -23.6713 LP  0  0  0  0  0  0  0  0  0  0  0  0  # atno 20715 bound_to 17326
  -34.5951   24.9764  -26.9116 LP  0  0  0  0  0  0  0  0  0  0  0  0  # atno 20716 bound_to 17329
  -36.2902   24.7119  -27.1497 LP  0  0  0  0  0  0  0  0  0  0  0  0  # atno 20717 bound_to 17329
  -35.2859   24.4031  -23.9779 LP  0  0  0  0  0  0  0  0  0  0  0  0  # atno 20718 bound_to 17474
  -35.6856   21.6596  -27.1678 LP  0  0  0  0  0  0  0  0  0  0  0  0  # atno 20719 bound_to 17477
  -37.0952   22.0758  -28.0841 LP  0  0  0  0  0  0  0  0  0  0  0  0  # atno 20720 bound_to 17477
  -37.3991   22.7269  -26.2136 LP  0  0  0  0  0  0  0  0  0  0  0  0  # atno 20721 bound_to 17540
  -31.1831   18.4589  -23.2933 LP  0  0  0  0  0  0  0  0  0  0  0  0  # atno 20724 bound_to 6277
  -32.2993   17.2786  -22.6926 LP  0  0  0  0  0  0  0  0  0  0  0  0  # atno 20725 bound_to 6277
  -34.7921   14.9545  -22.7357 LP  0  0  0  0  0  0  0  0  0  0  0  0  # atno 20726 bound_to 6500
  -37.8699   15.6471  -26.6276 LP  0  0  0  0  0  0  0  0  0  0  0  0  # atno 20727 bound_to 15687
  -36.9072   16.9130  -27.3137 LP  0  0  0  0  0  0  0  0  0  0  0  0  # atno 20728 bound_to 15687
  -38.9560   24.9410  -28.1135 LP  0  0  0  0  0  0  0  0  0  0  0  0  # atno 20729 bound_to 17724
  -39.7126   23.5314  -30.1205 LP  0  0  0  0  0  0  0  0  0  0  0  0  # atno 20730 bound_to 17543
  -38.0286   23.1493  -30.2549 LP  0  0  0  0  0  0  0  0  0  0  0  0  # atno 20731 bound_to 17543
  -35.3163   24.6673  -28.4172 LP  0  0  0  0  0  0  0  0  0  0  0  0  # atno 20732 bound_to 17814

> <Gold.Score>
     Fitness  S(hb_ext) S(vdw_ext)  S(hb_int)    S(int)      intcor
     33.67       5.91      22.77       0.00      -3.56      -0.78

> <Gold.Goldscore.Fitness>
33.6689

> <Gold.Goldscore.Internal.Vdw>
-3.7063

> <Gold.Goldscore.Internal.Torsion>
-0.6354

> <Gold.Goldscore.External.Vdw>
22.7745

> <Gold.Goldscore.Internal.HBond>
0.0000

> <Gold.Goldscore.External.HBond>
5.9119

> <Gold.Goldscore.Internal.Correction>
-0.7838

> <Gold.Goldscore.Hbonds>
donor molecule, donor type, donor heavy atom, donor atom, acceptor molecule, acceptor atom, score
      L1  H     8    22       P1  6376  0.99

> <Gold.Goldscore.Internal.Vdw.Weighted>
-3.7063

> <Gold.Goldscore.Internal.Torsion.Weighted>
-0.6354

> <Gold.Goldscore.External.Vdw.Weighted>
31.3149

> <Gold.Goldscore.Internal.HBond.Weighted>
0.0000

> <Gold.Goldscore.External.HBond.Weighted>
5.9119

> <Gold.Goldscore.Internal.Correction.Weighted>
-0.7838

> <Gold.Rescore>
     Score     S(PLP)   S(hbond)     S(cho)   S(metal)  DE(clash)   DE(tors)     intcor
     25.11     -25.52       0.64       0.00       0.00       1.99       0.18       ----

> <Gold.PLP.Fitness>
25.1060

> <Gold.PLP.PLP>
-25.5235

> <Gold.PLP.part.hbond>
-4.6236

> <Gold.PLP.part.metal>
0.0000

> <Gold.PLP.part.buried>
3.3023

> <Gold.PLP.part.nonpolar>
-28.1112

> <Gold.PLP.part.repulsive>
2.2217

> <Gold.PLP.ligand.clash>
1.9872

> <Gold.PLP.ligand.torsion>
0.1804

> <Gold.PLP.Chemscore.Hbond>
0.6435

> <Gold.PLP.Chemscore.CHOScore>
0.0000

> <Gold.PLP.Chemscore.Metal>
0.0000

> <Gold.Chemscore.Hbonds>
donor molecule, donor type, donor heavy atom, donor atom, acceptor molecule, acceptor atom, score
      L1  H     8    22       P1  6376  0.49

> <Gold.PLP.Chemscore.Internal.Correction>
   9.000000E+99

