#       Name:                CT1002167954
#       Creating user name   hitesit
#       Creation time:       Sun Apr 16 02:23:04 2023


#       File generated by GOLD software.
#

@<TRIPOS>MOLECULE
CT1002167954|ligand_prepared|mol2|1|dock1
    29    30     1
SMALL
NO_CHARGES


@<TRIPOS>ATOM
      1 C1         -36.4769  21.6274 -17.9980 C.3            1 RES1               0.0000
      2 C2         -36.5818  22.4108 -19.3224 C.ar           1 RES1               0.0000
      3 C3         -37.1861  22.4718 -16.9434 C.2            1 RES1               0.0000
      4 C4         -37.1283  20.2723 -18.2512 C.2            1 RES1               0.0000
      5 C5         -35.0232  21.3792 -17.5324 C.3            1 RES1               0.0000
      6 C6         -35.6930  23.4430 -19.6075 C.ar           1 RES1               0.0000
      7 C7         -37.5587  22.1116 -20.2683 C.ar           1 RES1               0.0000
      8 N8         -38.4089  22.0485 -16.5126 N.am           1 RES1               0.0000
      9 O9         -36.6976  23.5142 -16.5251 O.2            1 RES1               0.0000
     10 N10        -38.2792  19.9757 -17.5692 N.am           1 RES1               0.0000
     11 O11        -36.6644  19.4655 -19.0474 O.2            1 RES1               0.0000
     12 C12        -34.9045  20.3610 -16.4093 C.3            1 RES1               0.0000
     13 C13        -35.7758  24.1486 -20.7964 C.ar           1 RES1               0.0000
     14 C14        -37.6399  22.8187 -21.4566 C.ar           1 RES1               0.0000
     15 C15        -38.9658  20.8147 -16.7344 C.2            1 RES1               0.0000
     16 C16        -36.7489  23.8368 -21.7218 C.ar           1 RES1               0.0000
     17 O17        -40.0238  20.4951 -16.1999 O.2            1 RES1               0.0000
     18 H18        -34.4328  21.0307 -18.3888 H              1 RES1               0.0000
     19 H19        -34.5937  22.3301 -17.1936 H              1 RES1               0.0000
     20 H20        -34.9221  23.7043 -18.8902 H              1 RES1               0.0000
     21 H21        -38.2711  21.3154 -20.0806 H              1 RES1               0.0000
     22 H22        -38.9602  22.7107 -15.9761 H              1 RES1               0.0000
     23 H23        -38.6593  19.0430 -17.6954 H              1 RES1               0.0000
     24 H24        -33.8644  20.2244 -16.1208 H              1 RES1               0.0000
     25 H25        -35.4594  20.6876 -15.5323 H              1 RES1               0.0000
     26 H26        -35.2994  19.3960 -16.7203 H              1 RES1               0.0000
     27 H27        -35.0730  24.9498 -20.9998 H              1 RES1               0.0000
     28 H28        -38.4077  22.5703 -22.1818 H              1 RES1               0.0000
     29 H29        -36.8133  24.3894 -22.6533 H              1 RES1               0.0000
@<TRIPOS>BOND
    1    1    2 1     
    2    1    3 1     
    3    1    4 1     
    4    1    5 1     
    5    2    6 ar    
    6    2    7 ar    
    7    3    8 1     
    8    3    9 2     
    9    4   10 1     
   10    4   11 2     
   11    5   12 1     
   12    5   18 1     
   13    5   19 1     
   14    6   13 ar    
   15    6   20 1     
   16    7   14 ar    
   17    7   21 1     
   18    8   15 1     
   19    8   22 1     
   20   10   15 1     
   21   10   23 1     
   22   12   24 1     
   23   12   25 1     
   24   12   26 1     
   25   13   16 ar    
   26   13   27 1     
   27   14   16 ar    
   28   14   28 1     
   29   15   17 2     
   30   16   29 1     
@<TRIPOS>SUBSTRUCTURE
      1 RES1           1
@<TRIPOS>SET
DONOR_HYDROGENS      STATIC     ATOMS    <user>   **** ""
2 22 23
ATOM$RED        STATIC     ATOMS    COLORGROUP SYSTEM
2 22 23
@<TRIPOS>COMMENT
> <Gold.Version>
2022.3.0

> <Gold.Id.Protein>
unknown|7ta6_clean|pdb

> <Gold.Protein.RotatedTorsions>
[ 10564 10443 10442 10441 ] final  164.63 input   60.01 | X-H torsion
[ 11622 11535 11534 11532 ] final  -59.57 input   60.01 | X-H torsion
[ 11975 11916 11917 11918 ] final   76.34 input   43.11 | X-H torsion
[ 12166 12076 12077 12078 ] final   76.08 input   60.03 | X-H torsion
[ 12306 12236 12237 12238 ] final  145.48 input   49.55 | X-H torsion
[ 16043 15965 15964 15962 ] final   53.10 input   60.00 | X-H torsion
[ 17235 17166 17170 17167 ] final  -81.07 input   60.00 | X-H torsion
[ 17240 17169 17168 17167 ] final  136.26 input   59.99 | X-H torsion
[ 17396 17326 17327 17328 ] final -161.95 input   75.34 | X-H torsion
[ 17505 17474 17475 17476 ] final   29.76 input  132.66 | X-H torsion
[ 17658 17540 17541 17542 ] final  123.90 input  113.35 | X-H torsion
[ 6542 6500 6501 6502 ] final  -22.03 input   50.41 | X-H torsion
[ 17776 17724 17725 17726 ] final  -26.30 input  117.84 | X-H torsion
[ 17892 17814 17815 17816 ] final   75.00 input  119.80 | X-H torsion
[ 12567 12491 12492 12493 ] final -154.53 input   85.07 | X-H torsion
[ 17998 17962 17963 17964 ] final -126.43 input  125.49 | X-H torsion
[ 20694 6503 6502 6501 ] final  170.21 input    0.00 | X-H torsion
[ 20698 11689 11688 11687 ] final   86.00 input    0.00 | X-H torsion
[ 20701 11805 11804 11803 ] final  -87.53 input    0.00 | X-H torsion
[ 20704 11919 11918 11917 ] final   29.16 input    0.00 | X-H torsion
[ 20707 12079 12078 12077 ] final -151.93 input    0.00 | X-H torsion
[ 20716 17329 17328 17327 ] final  -29.63 input    0.00 | X-H torsion
[ 20719 17477 17476 17475 ] final -122.62 input    0.00 | X-H torsion
[ 20724 6277 6276 6275 ] final -125.30 input    0.00 | X-H torsion
[ 20727 15687 15686 15685 ] final  -58.57 input    0.00 | X-H torsion
[ 20730 17543 17542 17541 ] final  100.65 input    0.00 | X-H torsion

> <Gold.Protein.ActiveResidues>
 TRP28   LEU55   SER60   GLN61   VAL62   LEU63   LYS98   TYR115  GLU116  PRO117 
 ILE118  TYR119  LEU120  VAL123  GLN149  TYR151  LEU157  XCP1    LEU2    GLY3   
 TRP4    CYS5    ILE6    GLY7   

> <Gold.Protein.RotatedAtoms>
  -35.8331   15.5483  -23.4868 H   0  0  0  0  0  0  0  0  0  0  0  0  # atno 6542 bound_to 6500
  -36.8030   19.7267  -14.6650 H   0  0  0  0  0  0  0  0  0  0  0  0  # atno 10564 bound_to 10443
  -37.0384   18.2125  -15.2984 H   0  0  0  0  0  0  0  0  0  0  0  0  # atno 10565 bound_to 10443
  -38.2477   18.9459  -14.4331 H   0  0  0  0  0  0  0  0  0  0  0  0  # atno 10566 bound_to 10443
  -46.1192   20.0355  -21.0799 H   0  0  0  0  0  0  0  0  0  0  0  0  # atno 11622 bound_to 11535
  -37.5737   15.6926  -20.3668 H   0  0  0  0  0  0  0  0  0  0  0  0  # atno 11975 bound_to 11916
  -35.1668   19.1344  -19.4384 H   0  0  0  0  0  0  0  0  0  0  0  0  # atno 12166 bound_to 12076
  -31.7726   18.3173  -20.7892 H   0  0  0  0  0  0  0  0  0  0  0  0  # atno 12306 bound_to 12236
  -47.9824   24.4424  -22.2571 H   0  0  0  0  0  0  0  0  0  0  0  0  # atno 12567 bound_to 12491
  -33.5428   21.4149  -27.0438 H   0  0  0  0  0  0  0  0  0  0  0  0  # atno 16043 bound_to 15965
  -37.0634   26.4888  -21.3354 H   0  0  0  0  0  0  0  0  0  0  0  0  # atno 17235 bound_to 17166
  -38.0318   27.7993  -21.0324 H   0  0  0  0  0  0  0  0  0  0  0  0  # atno 17236 bound_to 17166
  -37.6530   26.6605  -26.0989 H   0  0  0  0  0  0  0  0  0  0  0  0  # atno 17240 bound_to 17169
  -36.5877   27.9154  -23.8155 H   0  0  0  0  0  0  0  0  0  0  0  0  # atno 17396 bound_to 17326
  -36.8137   24.8216  -24.7191 H   0  0  0  0  0  0  0  0  0  0  0  0  # atno 17505 bound_to 17474
  -38.7094   23.4415  -25.3310 H   0  0  0  0  0  0  0  0  0  0  0  0  # atno 17658 bound_to 17540
  -37.9624   23.9715  -28.3567 H   0  0  0  0  0  0  0  0  0  0  0  0  # atno 17776 bound_to 17724
  -35.8705   24.0326  -28.5808 H   0  0  0  0  0  0  0  0  0  0  0  0  # atno 17892 bound_to 17814
  -34.8888   21.7225  -29.9902 H   0  0  0  0  0  0  0  0  0  0  0  0  # atno 17998 bound_to 17962
  -38.5280   14.8573  -21.8322 LP  0  0  0  0  0  0  0  0  0  0  0  0  # atno 20694 bound_to 6503
  -36.8153   15.1001  -21.7435 LP  0  0  0  0  0  0  0  0  0  0  0  0  # atno 20695 bound_to 6503
  -44.5078   19.8103  -21.0945 LP  0  0  0  0  0  0  0  0  0  0  0  0  # atno 20696 bound_to 11535
  -45.2907   20.0371  -19.6795 LP  0  0  0  0  0  0  0  0  0  0  0  0  # atno 20697 bound_to 11535
  -40.9989   13.6345  -19.9079 LP  0  0  0  0  0  0  0  0  0  0  0  0  # atno 20698 bound_to 11689
  -39.7969   13.8773  -18.6847 LP  0  0  0  0  0  0  0  0  0  0  0  0  # atno 20699 bound_to 11689
  -38.6345   18.2888  -17.8848 LP  0  0  0  0  0  0  0  0  0  0  0  0  # atno 20701 bound_to 11805
  -38.6487   16.6763  -17.2526 LP  0  0  0  0  0  0  0  0  0  0  0  0  # atno 20702 bound_to 11805
  -38.2246   17.1439  -19.6361 LP  0  0  0  0  0  0  0  0  0  0  0  0  # atno 20703 bound_to 11916
  -35.7578   16.0434  -21.6755 LP  0  0  0  0  0  0  0  0  0  0  0  0  # atno 20704 bound_to 11919
  -34.1972   16.7733  -21.8532 LP  0  0  0  0  0  0  0  0  0  0  0  0  # atno 20705 bound_to 11919
  -34.9137   17.5629  -20.1717 LP  0  0  0  0  0  0  0  0  0  0  0  0  # atno 20706 bound_to 12076
  -31.6920   20.3538  -18.7910 LP  0  0  0  0  0  0  0  0  0  0  0  0  # atno 20707 bound_to 12079
  -33.2080   19.5585  -18.5277 LP  0  0  0  0  0  0  0  0  0  0  0  0  # atno 20708 bound_to 12079
  -31.8162   19.8834  -21.5713 LP  0  0  0  0  0  0  0  0  0  0  0  0  # atno 20709 bound_to 12236
  -33.9359   20.3877  -25.8449 LP  0  0  0  0  0  0  0  0  0  0  0  0  # atno 20710 bound_to 15965
  -35.0902   20.9490  -26.8545 LP  0  0  0  0  0  0  0  0  0  0  0  0  # atno 20711 bound_to 15965
  -38.2296   26.4079  -20.1777 LP  0  0  0  0  0  0  0  0  0  0  0  0  # atno 20712 bound_to 17166
  -39.1961   26.5257  -25.5996 LP  0  0  0  0  0  0  0  0  0  0  0  0  # atno 20713 bound_to 17169
  -38.1464   25.2986  -25.3571 LP  0  0  0  0  0  0  0  0  0  0  0  0  # atno 20714 bound_to 17169
  -37.3715   26.3189  -23.5178 LP  0  0  0  0  0  0  0  0  0  0  0  0  # atno 20715 bound_to 17326
  -35.6764   25.6614  -27.1963 LP  0  0  0  0  0  0  0  0  0  0  0  0  # atno 20716 bound_to 17329
  -35.2090   24.0268  -26.8650 LP  0  0  0  0  0  0  0  0  0  0  0  0  # atno 20717 bound_to 17329
  -35.2764   24.4075  -23.9951 LP  0  0  0  0  0  0  0  0  0  0  0  0  # atno 20718 bound_to 17474
  -36.5329   22.5852  -28.0895 LP  0  0  0  0  0  0  0  0  0  0  0  0  # atno 20719 bound_to 17477
  -36.2479   21.1502  -27.1624 LP  0  0  0  0  0  0  0  0  0  0  0  0  # atno 20720 bound_to 17477
  -37.3402   22.9066  -26.2721 LP  0  0  0  0  0  0  0  0  0  0  0  0  # atno 20721 bound_to 17540
  -32.1002   17.1709  -22.6267 LP  0  0  0  0  0  0  0  0  0  0  0  0  # atno 20724 bound_to 6277
  -31.3822   18.5666  -23.3593 LP  0  0  0  0  0  0  0  0  0  0  0  0  # atno 20725 bound_to 6277
  -34.3192   14.6731  -23.5879 LP  0  0  0  0  0  0  0  0  0  0  0  0  # atno 20726 bound_to 6500
  -36.9775   16.9593  -27.3166 LP  0  0  0  0  0  0  0  0  0  0  0  0  # atno 20727 bound_to 15687
  -37.7996   15.6008  -26.6247 LP  0  0  0  0  0  0  0  0  0  0  0  0  # atno 20728 bound_to 15687
  -38.3533   25.3975  -27.4264 LP  0  0  0  0  0  0  0  0  0  0  0  0  # atno 20729 bound_to 17724
  -39.5221   23.9052  -30.2680 LP  0  0  0  0  0  0  0  0  0  0  0  0  # atno 20730 bound_to 17543
  -38.2191   22.7755  -30.1073 LP  0  0  0  0  0  0  0  0  0  0  0  0  # atno 20731 bound_to 17543
  -35.6579   25.3408  -29.7194 LP  0  0  0  0  0  0  0  0  0  0  0  0  # atno 20732 bound_to 17814

> <Gold.Score>
     Fitness  S(hb_ext) S(vdw_ext)  S(hb_int)    S(int)      intcor
     30.79       1.50      21.89       0.00      -0.80      -0.82

> <Gold.Goldscore.Fitness>
30.7928

> <Gold.Goldscore.Internal.Vdw>
-1.0097

> <Gold.Goldscore.Internal.Torsion>
-0.6104

> <Gold.Goldscore.External.Vdw>
21.8855

> <Gold.Goldscore.Internal.HBond>
0.0000

> <Gold.Goldscore.External.HBond>
1.5048

> <Gold.Goldscore.Internal.Correction>
-0.8155

> <Gold.Goldscore.Hbonds>
donor molecule, donor type, donor heavy atom, donor atom, acceptor molecule, acceptor atom, score
      P1  H 12076 12166       L1    11  0.14
      L1  H    10    23       P1 11805  0.61

> <Gold.Goldscore.Internal.Vdw.Weighted>
-1.0097

> <Gold.Goldscore.Internal.Torsion.Weighted>
-0.6104

> <Gold.Goldscore.External.Vdw.Weighted>
30.0926

> <Gold.Goldscore.Internal.HBond.Weighted>
0.0000

> <Gold.Goldscore.External.HBond.Weighted>
1.5048

> <Gold.Goldscore.Internal.Correction.Weighted>
-0.8155

> <Gold.Rescore>
     Score     S(PLP)   S(hbond)     S(cho)   S(metal)  DE(clash)   DE(tors)     intcor
     27.95     -24.37       1.85       0.00       0.00       0.00       0.99       ----

> <Gold.PLP.Fitness>
27.9498

> <Gold.PLP.PLP>
-24.3736

> <Gold.PLP.part.hbond>
-1.7389

> <Gold.PLP.part.metal>
0.0000

> <Gold.PLP.part.buried>
2.2242

> <Gold.PLP.part.nonpolar>
-24.8384

> <Gold.PLP.part.repulsive>
0.3692

> <Gold.PLP.ligand.clash>
0.0000

> <Gold.PLP.ligand.torsion>
0.9922

> <Gold.PLP.Chemscore.Hbond>
1.8535

> <Gold.PLP.Chemscore.CHOScore>
0.0000

> <Gold.PLP.Chemscore.Metal>
0.0000

> <Gold.Chemscore.Hbonds>
donor molecule, donor type, donor heavy atom, donor atom, acceptor molecule, acceptor atom, score
      L1  H    10    23       P1 11805  1.00
      P1  H 12076 12166       L1    11  0.67

> <Gold.PLP.Chemscore.Internal.Correction>
   9.000000E+99

