#       Name:                CT1002167954
#       Creating user name   hitesit
#       Creation time:       Sun Apr 16 02:23:10 2023


#       File generated by GOLD software.
#

@<TRIPOS>MOLECULE
CT1002167954|ligand_prepared|mol2|1|dock9
    29    30     1
SMALL
NO_CHARGES


@<TRIPOS>ATOM
      1 C1         -37.8801  22.6985 -20.4964 C.3            1 RES1               0.0000
      2 C2         -39.3176  23.0083 -20.0312 C.ar           1 RES1               0.0000
      3 C3         -37.3156  21.6896 -19.5005 C.2            1 RES1               0.0000
      4 C4         -37.9979  22.1675 -21.9208 C.2            1 RES1               0.0000
      5 C5         -36.9518  23.9350 -20.5227 C.3            1 RES1               0.0000
      6 C6         -39.5837  24.1295 -19.2510 C.ar           1 RES1               0.0000
      7 C7         -40.3864  22.1851 -20.3758 C.ar           1 RES1               0.0000
      8 N8         -37.1899  20.3961 -19.9140 N.am           1 RES1               0.0000
      9 O9         -37.0222  22.0161 -18.3571 O.2            1 RES1               0.0000
     10 N10        -37.6475  20.8628 -22.1507 N.am           1 RES1               0.0000
     11 O11        -38.4067  22.8623 -22.8430 O.2            1 RES1               0.0000
     12 C12        -35.6278  23.6927 -21.2303 C.3            1 RES1               0.0000
     13 C13        -40.8720  24.4191 -18.8329 C.ar           1 RES1               0.0000
     14 C14        -41.6739  22.4764 -19.9565 C.ar           1 RES1               0.0000
     15 C15        -37.2781  19.9443 -21.2062 C.2            1 RES1               0.0000
     16 C16        -41.9179  23.5931 -19.1857 C.ar           1 RES1               0.0000
     17 O17        -37.0306  18.7742 -21.4834 O.2            1 RES1               0.0000
     18 H18        -37.4747  24.7585 -21.0243 H              1 RES1               0.0000
     19 H19        -36.7486  24.2460 -19.4905 H              1 RES1               0.0000
     20 H20        -38.7730  24.7898 -18.9615 H              1 RES1               0.0000
     21 H21        -40.2178  21.3006 -20.9806 H              1 RES1               0.0000
     22 H22        -37.0142  19.7004 -19.1961 H              1 RES1               0.0000
     23 H23        -37.6634  20.5472 -23.1153 H              1 RES1               0.0000
     24 H24        -35.0149  24.5916 -21.2201 H              1 RES1               0.0000
     25 H25        -35.0697  22.8964 -20.7423 H              1 RES1               0.0000
     26 H26        -35.7914  23.4059 -22.2670 H              1 RES1               0.0000
     27 H27        -41.0586  25.2984 -18.2253 H              1 RES1               0.0000
     28 H28        -42.4940  21.8232 -20.2359 H              1 RES1               0.0000
     29 H29        -42.9271  23.8204 -18.8584 H              1 RES1               0.0000
@<TRIPOS>BOND
    1    1    2 1     
    2    1    3 1     
    3    1    4 1     
    4    1    5 1     
    5    2    6 ar    
    6    2    7 ar    
    7    3    8 1     
    8    3    9 2     
    9    4   10 1     
   10    4   11 2     
   11    5   12 1     
   12    5   18 1     
   13    5   19 1     
   14    6   13 ar    
   15    6   20 1     
   16    7   14 ar    
   17    7   21 1     
   18    8   15 1     
   19    8   22 1     
   20   10   15 1     
   21   10   23 1     
   22   12   24 1     
   23   12   25 1     
   24   12   26 1     
   25   13   16 ar    
   26   13   27 1     
   27   14   16 ar    
   28   14   28 1     
   29   15   17 2     
   30   16   29 1     
@<TRIPOS>SUBSTRUCTURE
      1 RES1           1
@<TRIPOS>SET
DONOR_HYDROGENS      STATIC     ATOMS    <user>   **** ""
2 22 23
ATOM$RED        STATIC     ATOMS    COLORGROUP SYSTEM
2 22 23
@<TRIPOS>COMMENT
> <Gold.Version>
2022.3.0

> <Gold.Id.Protein>
unknown|7ta6_clean|pdb

> <Gold.Protein.RotatedTorsions>
[ 10564 10443 10442 10441 ] final   63.51 input   60.01 | X-H torsion
[ 11622 11535 11534 11532 ] final  -83.48 input   60.01 | X-H torsion
[ 11975 11916 11917 11918 ] final -117.83 input   43.11 | X-H torsion
[ 12166 12076 12077 12078 ] final  -86.56 input   60.03 | X-H torsion
[ 12306 12236 12237 12238 ] final -139.95 input   49.55 | X-H torsion
[ 16043 15965 15964 15962 ] final   83.23 input   60.00 | X-H torsion
[ 17235 17166 17170 17167 ] final  -51.58 input   60.00 | X-H torsion
[ 17240 17169 17168 17167 ] final  174.58 input   59.99 | X-H torsion
[ 17396 17326 17327 17328 ] final -151.39 input   75.34 | X-H torsion
[ 17505 17474 17475 17476 ] final -125.87 input  132.66 | X-H torsion
[ 17658 17540 17541 17542 ] final   38.67 input  113.35 | X-H torsion
[ 6542 6500 6501 6502 ] final  -30.71 input   50.41 | X-H torsion
[ 17776 17724 17725 17726 ] final  112.69 input  117.84 | X-H torsion
[ 17892 17814 17815 17816 ] final   60.03 input  119.80 | X-H torsion
[ 12567 12491 12492 12493 ] final   71.21 input   85.07 | X-H torsion
[ 17998 17962 17963 17964 ] final  130.34 input  125.49 | X-H torsion
[ 20694 6503 6502 6501 ] final -103.06 input    0.00 | X-H torsion
[ 20698 11689 11688 11687 ] final -132.57 input    0.00 | X-H torsion
[ 20701 11805 11804 11803 ] final -117.90 input    0.00 | X-H torsion
[ 20704 11919 11918 11917 ] final   -7.31 input    0.00 | X-H torsion
[ 20707 12079 12078 12077 ] final  136.30 input    0.00 | X-H torsion
[ 20716 17329 17328 17327 ] final   10.77 input    0.00 | X-H torsion
[ 20719 17477 17476 17475 ] final  -49.66 input    0.00 | X-H torsion
[ 20724 6277 6276 6275 ] final   55.29 input    0.00 | X-H torsion
[ 20727 15687 15686 15685 ] final   57.49 input    0.00 | X-H torsion
[ 20730 17543 17542 17541 ] final  166.81 input    0.00 | X-H torsion

> <Gold.Protein.ActiveResidues>
 TRP28   LEU55   SER60   GLN61   VAL62   LEU63   LYS98   TYR115  GLU116  PRO117 
 ILE118  TYR119  LEU120  VAL123  GLN149  TYR151  LEU157  XCP1    LEU2    GLY3   
 TRP4    CYS5    ILE6    GLY7   

> <Gold.Protein.RotatedAtoms>
  -35.8309   15.5472  -23.6219 H   0  0  0  0  0  0  0  0  0  0  0  0  # atno 6542 bound_to 6500
  -38.1561   19.2303  -14.3342 H   0  0  0  0  0  0  0  0  0  0  0  0  # atno 10564 bound_to 10443
  -36.6073   19.5485  -14.8336 H   0  0  0  0  0  0  0  0  0  0  0  0  # atno 10565 bound_to 10443
  -37.3255   18.1072  -15.2282 H   0  0  0  0  0  0  0  0  0  0  0  0  # atno 10566 bound_to 10443
  -45.8677   19.9763  -21.3690 H   0  0  0  0  0  0  0  0  0  0  0  0  # atno 11622 bound_to 11535
  -38.2611   17.0357  -19.4497 H   0  0  0  0  0  0  0  0  0  0  0  0  # atno 11975 bound_to 11916
  -34.6985   17.5315  -20.0147 H   0  0  0  0  0  0  0  0  0  0  0  0  # atno 12166 bound_to 12076
  -32.1310   19.2467  -20.3726 H   0  0  0  0  0  0  0  0  0  0  0  0  # atno 12306 bound_to 12236
  -47.6015   23.6341  -20.8801 H   0  0  0  0  0  0  0  0  0  0  0  0  # atno 12567 bound_to 12491
  -33.9620   21.5092  -27.2720 H   0  0  0  0  0  0  0  0  0  0  0  0  # atno 16043 bound_to 15965
  -37.0985   26.9390  -21.5184 H   0  0  0  0  0  0  0  0  0  0  0  0  # atno 17235 bound_to 17166
  -38.3313   27.6577  -20.6754 H   0  0  0  0  0  0  0  0  0  0  0  0  # atno 17236 bound_to 17166
  -37.4256   26.1172  -25.9234 H   0  0  0  0  0  0  0  0  0  0  0  0  # atno 17240 bound_to 17169
  -36.6922   27.9211  -23.9615 H   0  0  0  0  0  0  0  0  0  0  0  0  # atno 17396 bound_to 17326
  -35.1561   24.4906  -24.3351 H   0  0  0  0  0  0  0  0  0  0  0  0  # atno 17505 bound_to 17474
  -37.8922   24.0267  -25.9710 H   0  0  0  0  0  0  0  0  0  0  0  0  # atno 17658 bound_to 17540
  -37.7904   25.2100  -27.2757 H   0  0  0  0  0  0  0  0  0  0  0  0  # atno 17776 bound_to 17724
  -36.0220   23.9602  -28.7383 H   0  0  0  0  0  0  0  0  0  0  0  0  # atno 17892 bound_to 17814
  -36.0724   21.9216  -29.3135 H   0  0  0  0  0  0  0  0  0  0  0  0  # atno 17998 bound_to 17962
  -37.6741   14.4062  -21.1380 LP  0  0  0  0  0  0  0  0  0  0  0  0  # atno 20694 bound_to 6503
  -37.6691   15.5511  -22.4377 LP  0  0  0  0  0  0  0  0  0  0  0  0  # atno 20695 bound_to 6503
  -44.3813   19.8230  -20.7252 LP  0  0  0  0  0  0  0  0  0  0  0  0  # atno 20696 bound_to 11535
  -45.6705   20.0841  -19.7575 LP  0  0  0  0  0  0  0  0  0  0  0  0  # atno 20697 bound_to 11535
  -39.6526   14.1730  -19.1526 LP  0  0  0  0  0  0  0  0  0  0  0  0  # atno 20698 bound_to 11689
  -41.1432   13.3389  -19.4399 LP  0  0  0  0  0  0  0  0  0  0  0  0  # atno 20699 bound_to 11689
  -38.1978   18.1795  -17.8282 LP  0  0  0  0  0  0  0  0  0  0  0  0  # atno 20701 bound_to 11805
  -39.0854   16.7856  -17.3092 LP  0  0  0  0  0  0  0  0  0  0  0  0  # atno 20702 bound_to 11805
  -37.5596   15.8445  -20.5234 LP  0  0  0  0  0  0  0  0  0  0  0  0  # atno 20703 bound_to 11916
  -35.3969   15.7388  -21.4096 LP  0  0  0  0  0  0  0  0  0  0  0  0  # atno 20704 bound_to 11919
  -34.5581   17.0779  -22.1190 LP  0  0  0  0  0  0  0  0  0  0  0  0  # atno 20705 bound_to 11919
  -35.3638   19.1036  -19.6178 LP  0  0  0  0  0  0  0  0  0  0  0  0  # atno 20706 bound_to 12076
  -31.8150   19.3971  -18.4743 LP  0  0  0  0  0  0  0  0  0  0  0  0  # atno 20707 bound_to 12079
  -33.0850   20.5152  -18.8444 LP  0  0  0  0  0  0  0  0  0  0  0  0  # atno 20708 bound_to 12079
  -31.4704   18.9868  -21.9732 LP  0  0  0  0  0  0  0  0  0  0  0  0  # atno 20709 bound_to 12236
  -33.5202   20.5960  -26.0000 LP  0  0  0  0  0  0  0  0  0  0  0  0  # atno 20710 bound_to 15965
  -35.0835   20.6458  -26.4695 LP  0  0  0  0  0  0  0  0  0  0  0  0  # atno 20711 bound_to 15965
  -37.9001   26.1041  -20.3491 LP  0  0  0  0  0  0  0  0  0  0  0  0  # atno 20712 bound_to 17166
  -38.8317   26.9358  -25.8857 LP  0  0  0  0  0  0  0  0  0  0  0  0  # atno 20713 bound_to 17169
  -38.7398   25.4355  -25.2476 LP  0  0  0  0  0  0  0  0  0  0  0  0  # atno 20714 bound_to 17169
  -37.2860   26.3143  -23.3984 LP  0  0  0  0  0  0  0  0  0  0  0  0  # atno 20715 bound_to 17326
  -35.0877   25.6315  -27.0947 LP  0  0  0  0  0  0  0  0  0  0  0  0  # atno 20716 bound_to 17329
  -35.7976   24.0568  -26.9666 LP  0  0  0  0  0  0  0  0  0  0  0  0  # atno 20717 bound_to 17329
  -36.8884   24.7293  -24.3685 LP  0  0  0  0  0  0  0  0  0  0  0  0  # atno 20718 bound_to 17474
  -35.6831   22.3621  -27.5524 LP  0  0  0  0  0  0  0  0  0  0  0  0  # atno 20719 bound_to 17477
  -37.0976   21.3733  -27.6995 LP  0  0  0  0  0  0  0  0  0  0  0  0  # atno 20720 bound_to 17477
  -38.1440   22.3310  -25.6425 LP  0  0  0  0  0  0  0  0  0  0  0  0  # atno 20721 bound_to 17540
  -31.3904   18.5697  -23.3612 LP  0  0  0  0  0  0  0  0  0  0  0  0  # atno 20724 bound_to 6277
  -32.0920   17.1678  -22.6247 LP  0  0  0  0  0  0  0  0  0  0  0  0  # atno 20725 bound_to 6277
  -34.3213   14.6741  -23.4578 LP  0  0  0  0  0  0  0  0  0  0  0  0  # atno 20726 bound_to 6500
  -38.2373   16.3801  -26.8303 LP  0  0  0  0  0  0  0  0  0  0  0  0  # atno 20727 bound_to 15687
  -36.5399   16.1800  -27.1111 LP  0  0  0  0  0  0  0  0  0  0  0  0  # atno 20728 bound_to 15687
  -38.5218   24.1841  -28.4855 LP  0  0  0  0  0  0  0  0  0  0  0  0  # atno 20729 bound_to 17724
  -38.6246   24.1203  -30.4725 LP  0  0  0  0  0  0  0  0  0  0  0  0  # atno 20730 bound_to 17543
  -39.1166   22.5604  -29.9028 LP  0  0  0  0  0  0  0  0  0  0  0  0  # atno 20731 bound_to 17543
  -35.5097   25.4116  -29.5654 LP  0  0  0  0  0  0  0  0  0  0  0  0  # atno 20732 bound_to 17814

> <Gold.Score>
     Fitness  S(hb_ext) S(vdw_ext)  S(hb_int)    S(int)      intcor
     41.30       6.00      26.07       0.00      -0.54      -0.77

> <Gold.Goldscore.Fitness>
41.3027

> <Gold.Goldscore.Internal.Vdw>
-0.7469

> <Gold.Goldscore.Internal.Torsion>
-0.5608

> <Gold.Goldscore.External.Vdw>
26.0691

> <Gold.Goldscore.Internal.HBond>
0.0000

> <Gold.Goldscore.External.HBond>
6.0000

> <Gold.Goldscore.Internal.Correction>
-0.7653

> <Gold.Goldscore.Hbonds>
donor molecule, donor type, donor heavy atom, donor atom, acceptor molecule, acceptor atom, score
      L1  H    10    23       P1  6376  1.00

> <Gold.Goldscore.Internal.Vdw.Weighted>
-0.7469

> <Gold.Goldscore.Internal.Torsion.Weighted>
-0.5608

> <Gold.Goldscore.External.Vdw.Weighted>
35.8451

> <Gold.Goldscore.Internal.HBond.Weighted>
0.0000

> <Gold.Goldscore.External.HBond.Weighted>
6.0000

> <Gold.Goldscore.Internal.Correction.Weighted>
-0.7653

> <Gold.Rescore>
     Score     S(PLP)   S(hbond)     S(cho)   S(metal)  DE(clash)   DE(tors)     intcor
     27.48     -27.00       1.00       0.00       0.00       0.00       1.26       ----

> <Gold.PLP.Fitness>
27.4751

> <Gold.PLP.PLP>
-26.9978

> <Gold.PLP.part.hbond>
-2.9268

> <Gold.PLP.part.metal>
0.0000

> <Gold.PLP.part.buried>
2.2308

> <Gold.PLP.part.nonpolar>
-27.8357

> <Gold.PLP.part.repulsive>
1.1243

> <Gold.PLP.ligand.clash>
0.0000

> <Gold.PLP.ligand.torsion>
1.2614

> <Gold.PLP.Chemscore.Hbond>
1.0000

> <Gold.PLP.Chemscore.CHOScore>
0.0000

> <Gold.PLP.Chemscore.Metal>
0.0000

> <Gold.Chemscore.Hbonds>
donor molecule, donor type, donor heavy atom, donor atom, acceptor molecule, acceptor atom, score
      L1  H    10    23       P1  6376  0.81

> <Gold.PLP.Chemscore.Internal.Correction>
   9.000000E+99

