#       Name:                CT1002167954
#       Creating user name   hitesit
#       Creation time:       Sun Apr 16 02:23:06 2023


#       File generated by GOLD software.
#

@<TRIPOS>MOLECULE
CT1002167954|ligand_prepared|mol2|1|dock4
    29    30     1
SMALL
NO_CHARGES


@<TRIPOS>ATOM
      1 C1         -37.7448  22.2489 -20.3431 C.3            1 RES1               0.0000
      2 C2         -36.4936  23.0594 -19.9478 C.ar           1 RES1               0.0000
      3 C3         -37.5502  20.8506 -19.7643 C.2            1 RES1               0.0000
      4 C4         -38.9396  23.0003 -19.7663 C.2            1 RES1               0.0000
      5 C5         -37.9513  22.1239 -21.8706 C.3            1 RES1               0.0000
      6 C6         -35.9709  22.9731 -18.6609 C.ar           1 RES1               0.0000
      7 C7         -35.8506  23.8939 -20.8581 C.ar           1 RES1               0.0000
      8 N8         -38.2928  20.5097 -18.6724 N.am           1 RES1               0.0000
      9 O9         -36.7290  20.0730 -20.2346 O.2            1 RES1               0.0000
     10 N10        -39.6666  22.3888 -18.7787 N.am           1 RES1               0.0000
     11 O11        -39.2479  24.1231 -20.1463 O.2            1 RES1               0.0000
     12 C12        -39.0994  21.2065 -22.2611 C.3            1 RES1               0.0000
     13 C13        -34.8445  23.6927 -18.2980 C.ar           1 RES1               0.0000
     14 C14        -34.7244  24.6129 -20.4930 C.ar           1 RES1               0.0000
     15 C15        -39.3790  21.1905 -18.1842 C.2            1 RES1               0.0000
     16 C16        -34.2203  24.5127 -19.2138 C.ar           1 RES1               0.0000
     17 O17        -40.0495  20.7314 -17.2639 O.2            1 RES1               0.0000
     18 H18        -38.1407  23.1221 -22.2842 H              1 RES1               0.0000
     19 H19        -37.0266  21.7438 -22.3220 H              1 RES1               0.0000
     20 H20        -36.4500  22.3349 -17.9259 H              1 RES1               0.0000
     21 H21        -36.2302  23.9892 -21.8698 H              1 RES1               0.0000
     22 H22        -38.0147  19.6712 -18.1726 H              1 RES1               0.0000
     23 H23        -40.4995  22.8717 -18.4570 H              1 RES1               0.0000
     24 H24        -39.2006  21.1543 -23.3431 H              1 RES1               0.0000
     25 H25        -38.9319  20.1984 -21.8874 H              1 RES1               0.0000
     26 H26        -40.0394  21.5685 -21.8498 H              1 RES1               0.0000
     27 H27        -34.4525  23.6114 -17.2895 H              1 RES1               0.0000
     28 H28        -34.2368  25.2575 -21.2169 H              1 RES1               0.0000
     29 H29        -33.3377  25.0760 -18.9293 H              1 RES1               0.0000
@<TRIPOS>BOND
    1    1    2 1     
    2    1    3 1     
    3    1    4 1     
    4    1    5 1     
    5    2    6 ar    
    6    2    7 ar    
    7    3    8 1     
    8    3    9 2     
    9    4   10 1     
   10    4   11 2     
   11    5   12 1     
   12    5   18 1     
   13    5   19 1     
   14    6   13 ar    
   15    6   20 1     
   16    7   14 ar    
   17    7   21 1     
   18    8   15 1     
   19    8   22 1     
   20   10   15 1     
   21   10   23 1     
   22   12   24 1     
   23   12   25 1     
   24   12   26 1     
   25   13   16 ar    
   26   13   27 1     
   27   14   16 ar    
   28   14   28 1     
   29   15   17 2     
   30   16   29 1     
@<TRIPOS>SUBSTRUCTURE
      1 RES1           1
@<TRIPOS>SET
DONOR_HYDROGENS      STATIC     ATOMS    <user>   **** ""
2 22 23
ATOM$RED        STATIC     ATOMS    COLORGROUP SYSTEM
2 22 23
@<TRIPOS>COMMENT
> <Gold.Version>
2022.3.0

> <Gold.Id.Protein>
unknown|7ta6_clean|pdb

> <Gold.Protein.RotatedTorsions>
[ 10564 10443 10442 10441 ] final  121.62 input   60.01 | X-H torsion
[ 11622 11535 11534 11532 ] final  144.81 input   60.01 | X-H torsion
[ 11975 11916 11917 11918 ] final  -97.74 input   43.11 | X-H torsion
[ 12166 12076 12077 12078 ] final  112.40 input   60.03 | X-H torsion
[ 12306 12236 12237 12238 ] final  158.43 input   49.55 | X-H torsion
[ 16043 15965 15964 15962 ] final  -55.47 input   60.00 | X-H torsion
[ 17235 17166 17170 17167 ] final   54.09 input   60.00 | X-H torsion
[ 17240 17169 17168 17167 ] final  -74.90 input   59.99 | X-H torsion
[ 17396 17326 17327 17328 ] final -172.14 input   75.34 | X-H torsion
[ 17505 17474 17475 17476 ] final   63.91 input  132.66 | X-H torsion
[ 17658 17540 17541 17542 ] final   17.10 input  113.35 | X-H torsion
[ 6542 6500 6501 6502 ] final  -17.03 input   50.41 | X-H torsion
[ 17776 17724 17725 17726 ] final  -87.37 input  117.84 | X-H torsion
[ 17892 17814 17815 17816 ] final  102.39 input  119.80 | X-H torsion
[ 12567 12491 12492 12493 ] final   29.35 input   85.07 | X-H torsion
[ 17998 17962 17963 17964 ] final -129.90 input  125.49 | X-H torsion
[ 20694 6503 6502 6501 ] final  -28.85 input    0.00 | X-H torsion
[ 20698 11689 11688 11687 ] final   86.15 input    0.00 | X-H torsion
[ 20701 11805 11804 11803 ] final   22.38 input    0.00 | X-H torsion
[ 20704 11919 11918 11917 ] final  -74.46 input    0.00 | X-H torsion
[ 20707 12079 12078 12077 ] final  144.13 input    0.00 | X-H torsion
[ 20716 17329 17328 17327 ] final  -17.17 input    0.00 | X-H torsion
[ 20719 17477 17476 17475 ] final   73.96 input    0.00 | X-H torsion
[ 20724 6277 6276 6275 ] final  -88.95 input    0.00 | X-H torsion
[ 20727 15687 15686 15685 ] final   70.12 input    0.00 | X-H torsion
[ 20730 17543 17542 17541 ] final  104.52 input    0.00 | X-H torsion

> <Gold.Protein.ActiveResidues>
 TRP28   LEU55   SER60   GLN61   VAL62   LEU63   LYS98   TYR115  GLU116  PRO117 
 ILE118  TYR119  LEU120  VAL123  GLN149  TYR151  LEU157  XCP1    LEU2    GLY3   
 TRP4    CYS5    ILE6    GLY7   

> <Gold.Protein.RotatedAtoms>
  -35.8264   15.5441  -23.4095 H   0  0  0  0  0  0  0  0  0  0  0  0  # atno 6542 bound_to 6500
  -37.4296   19.8103  -14.3601 H   0  0  0  0  0  0  0  0  0  0  0  0  # atno 10564 bound_to 10443
  -36.5568   18.7212  -15.2554 H   0  0  0  0  0  0  0  0  0  0  0  0  # atno 10565 bound_to 10443
  -38.1024   18.3539  -14.7809 H   0  0  0  0  0  0  0  0  0  0  0  0  # atno 10566 bound_to 10443
  -44.3841   19.8365  -20.5339 H   0  0  0  0  0  0  0  0  0  0  0  0  # atno 11622 bound_to 11535
  -38.1921   17.2159  -19.6928 H   0  0  0  0  0  0  0  0  0  0  0  0  # atno 11975 bound_to 11916
  -35.5305   19.0773  -19.8564 H   0  0  0  0  0  0  0  0  0  0  0  0  # atno 12166 bound_to 12076
  -31.8544   18.4173  -20.6352 H   0  0  0  0  0  0  0  0  0  0  0  0  # atno 12306 bound_to 12236
  -48.2111   23.4861  -20.7726 H   0  0  0  0  0  0  0  0  0  0  0  0  # atno 12567 bound_to 12491
  -33.7662   20.4541  -25.8878 H   0  0  0  0  0  0  0  0  0  0  0  0  # atno 16043 bound_to 15965
  -38.1999   27.7549  -20.8493 H   0  0  0  0  0  0  0  0  0  0  0  0  # atno 17235 bound_to 17166
  -38.0715   26.2213  -20.2341 H   0  0  0  0  0  0  0  0  0  0  0  0  # atno 17236 bound_to 17166
  -38.5976   25.3739  -25.2581 H   0  0  0  0  0  0  0  0  0  0  0  0  # atno 17240 bound_to 17169
  -36.4963   27.8801  -23.6726 H   0  0  0  0  0  0  0  0  0  0  0  0  # atno 17396 bound_to 17326
  -36.9102   24.6739  -24.2291 H   0  0  0  0  0  0  0  0  0  0  0  0  # atno 17505 bound_to 17474
  -37.6420   23.8935  -26.1388 H   0  0  0  0  0  0  0  0  0  0  0  0  # atno 17658 bound_to 17540
  -38.7555   24.3776  -28.4569 H   0  0  0  0  0  0  0  0  0  0  0  0  # atno 17776 bound_to 17724
  -35.5822   24.2754  -28.3998 H   0  0  0  0  0  0  0  0  0  0  0  0  # atno 17892 bound_to 17814
  -34.9060   21.7017  -29.9444 H   0  0  0  0  0  0  0  0  0  0  0  0  # atno 17998 bound_to 17962
  -36.8471   14.9084  -21.5325 LP  0  0  0  0  0  0  0  0  0  0  0  0  # atno 20694 bound_to 6503
  -38.4962   15.0489  -22.0432 LP  0  0  0  0  0  0  0  0  0  0  0  0  # atno 20695 bound_to 6503
  -45.8376   20.0999  -19.8516 LP  0  0  0  0  0  0  0  0  0  0  0  0  # atno 20696 bound_to 11535
  -45.7086   19.9480  -21.4724 LP  0  0  0  0  0  0  0  0  0  0  0  0  # atno 20697 bound_to 11535
  -40.9977   13.6359  -19.9093 LP  0  0  0  0  0  0  0  0  0  0  0  0  # atno 20698 bound_to 11689
  -39.7981   13.8759  -18.6833 LP  0  0  0  0  0  0  0  0  0  0  0  0  # atno 20699 bound_to 11689
  -39.4579   17.2056  -17.4857 LP  0  0  0  0  0  0  0  0  0  0  0  0  # atno 20701 bound_to 11805
  -37.8253   17.7595  -17.6518 LP  0  0  0  0  0  0  0  0  0  0  0  0  # atno 20702 bound_to 11805
  -37.6263   15.6702  -20.2882 LP  0  0  0  0  0  0  0  0  0  0  0  0  # atno 20703 bound_to 11916
  -34.4535   15.8794  -21.3221 LP  0  0  0  0  0  0  0  0  0  0  0  0  # atno 20704 bound_to 11919
  -35.5015   16.9373  -22.2066 LP  0  0  0  0  0  0  0  0  0  0  0  0  # atno 20705 bound_to 11919
  -34.5641   17.6178  -19.7700 LP  0  0  0  0  0  0  0  0  0  0  0  0  # atno 20706 bound_to 12076
  -31.7407   19.4844  -18.5032 LP  0  0  0  0  0  0  0  0  0  0  0  0  # atno 20707 bound_to 12079
  -33.1593   20.4279  -18.8155 LP  0  0  0  0  0  0  0  0  0  0  0  0  # atno 20708 bound_to 12079
  -31.7372   19.7869  -21.7199 LP  0  0  0  0  0  0  0  0  0  0  0  0  # atno 20709 bound_to 12236
  -35.1177   20.8305  -26.7118 LP  0  0  0  0  0  0  0  0  0  0  0  0  # atno 20710 bound_to 15965
  -33.6832   21.4744  -27.1524 LP  0  0  0  0  0  0  0  0  0  0  0  0  # atno 20711 bound_to 15965
  -37.0712   26.7154  -21.4428 LP  0  0  0  0  0  0  0  0  0  0  0  0  # atno 20712 bound_to 17166
  -37.4413   26.2591  -25.9847 LP  0  0  0  0  0  0  0  0  0  0  0  0  # atno 20713 bound_to 17169
  -38.9503   26.8606  -25.8184 LP  0  0  0  0  0  0  0  0  0  0  0  0  # atno 20714 bound_to 17169
  -37.4463   26.3478  -23.6348 LP  0  0  0  0  0  0  0  0  0  0  0  0  # atno 20715 bound_to 17326
  -35.4934   25.6971  -27.1717 LP  0  0  0  0  0  0  0  0  0  0  0  0  # atno 20716 bound_to 17329
  -35.3920   23.9912  -26.8896 LP  0  0  0  0  0  0  0  0  0  0  0  0  # atno 20717 bound_to 17329
  -35.1825   24.5511  -24.4716 LP  0  0  0  0  0  0  0  0  0  0  0  0  # atno 20718 bound_to 17474
  -36.4773   21.0953  -27.2442 LP  0  0  0  0  0  0  0  0  0  0  0  0  # atno 20719 bound_to 17477
  -36.3034   22.6401  -28.0077 LP  0  0  0  0  0  0  0  0  0  0  0  0  # atno 20720 bound_to 17477
  -38.3902   22.4620  -25.4775 LP  0  0  0  0  0  0  0  0  0  0  0  0  # atno 20721 bound_to 17540
  -31.5635   17.1269  -22.5830 LP  0  0  0  0  0  0  0  0  0  0  0  0  # atno 20724 bound_to 6277
  -31.9190   18.6106  -23.4030 LP  0  0  0  0  0  0  0  0  0  0  0  0  # atno 20725 bound_to 6277
  -34.3257   14.6771  -23.6625 LP  0  0  0  0  0  0  0  0  0  0  0  0  # atno 20726 bound_to 6500
  -38.2260   16.2017  -26.7645 LP  0  0  0  0  0  0  0  0  0  0  0  0  # atno 20727 bound_to 15687
  -36.5511   16.3585  -27.1769 LP  0  0  0  0  0  0  0  0  0  0  0  0  # atno 20728 bound_to 15687
  -37.5762   24.9996  -27.3283 LP  0  0  0  0  0  0  0  0  0  0  0  0  # atno 20729 bound_to 17724
  -39.4831   23.9446  -30.2864 LP  0  0  0  0  0  0  0  0  0  0  0  0  # atno 20730 bound_to 17543
  -38.2581   22.7361  -30.0889 LP  0  0  0  0  0  0  0  0  0  0  0  0  # atno 20731 bound_to 17543
  -35.9399   25.1033  -29.8964 LP  0  0  0  0  0  0  0  0  0  0  0  0  # atno 20732 bound_to 17814

> <Gold.Score>
     Fitness  S(hb_ext) S(vdw_ext)  S(hb_int)    S(int)      intcor
     34.55       0.94      24.62       0.00      -0.25      -0.78

> <Gold.Goldscore.Fitness>
34.5464

> <Gold.Goldscore.Internal.Vdw>
-0.6048

> <Gold.Goldscore.Internal.Torsion>
-0.4269

> <Gold.Goldscore.External.Vdw>
24.6225

> <Gold.Goldscore.Internal.HBond>
0.0000

> <Gold.Goldscore.External.HBond>
0.9382

> <Gold.Goldscore.Internal.Correction>
-0.7838

> <Gold.Goldscore.Hbonds>
donor molecule, donor type, donor heavy atom, donor atom, acceptor molecule, acceptor atom, score
      P1  H 12076 12166       L1     9  0.47

> <Gold.Goldscore.Internal.Vdw.Weighted>
-0.6048

> <Gold.Goldscore.Internal.Torsion.Weighted>
-0.4269

> <Gold.Goldscore.External.Vdw.Weighted>
33.8560

> <Gold.Goldscore.Internal.HBond.Weighted>
0.0000

> <Gold.Goldscore.External.HBond.Weighted>
0.9382

> <Gold.Goldscore.Internal.Correction.Weighted>
-0.7838

> <Gold.Rescore>
     Score     S(PLP)   S(hbond)     S(cho)   S(metal)  DE(clash)   DE(tors)     intcor
     35.90     -31.78       1.55       0.00       0.00       0.00       0.27       ----

> <Gold.PLP.Fitness>
35.8959

> <Gold.PLP.PLP>
-31.7844

> <Gold.PLP.part.hbond>
-1.8639

> <Gold.PLP.part.metal>
0.0000

> <Gold.PLP.part.buried>
-2.4012

> <Gold.PLP.part.nonpolar>
-28.9211

> <Gold.PLP.part.repulsive>
0.2280

> <Gold.PLP.ligand.clash>
0.0000

> <Gold.PLP.ligand.torsion>
0.2730

> <Gold.PLP.Chemscore.Hbond>
1.5525

> <Gold.PLP.Chemscore.CHOScore>
0.0000

> <Gold.PLP.Chemscore.Metal>
0.0000

> <Gold.Chemscore.Hbonds>
donor molecule, donor type, donor heavy atom, donor atom, acceptor molecule, acceptor atom, score
      L1  H     8    22       P1 11805  0.09
      P1  H 12076 12166       L1     9  1.00
      P1  H 17166 17236       L1    11  0.11

> <Gold.PLP.Chemscore.Internal.Correction>
   9.000000E+99

