#       Name:                CT1002167954
#       Creating user name   hitesit
#       Creation time:       Sun Apr 16 20:16:17 2023


#       File generated by GOLD software.
#

@<TRIPOS>MOLECULE
CT1002167954|ligand_prepared|mol2|1|dock10
    29    30     1
SMALL
NO_CHARGES


@<TRIPOS>ATOM
      1 C1          21.5191  10.4865   0.6244 C.3            1 RES1               0.0000
      2 C2          21.2484  10.2093   2.1173 C.ar           1 RES1               0.0000
      3 C3          22.5873   9.4872   0.1899 C.2            1 RES1               0.0000
      4 C4          20.1826  10.3183  -0.0899 C.2            1 RES1               0.0000
      5 C5          22.0374  11.9151   0.3380 C.3            1 RES1               0.0000
      6 C6          20.4538   9.1350   2.5058 C.ar           1 RES1               0.0000
      7 C7          21.7876  11.0162   3.1156 C.ar           1 RES1               0.0000
      8 N8          22.1940   8.4426  -0.5936 N.am           1 RES1               0.0000
      9 O9          23.7496   9.5923   0.5618 O.2            1 RES1               0.0000
     10 N10         20.0575   9.2871  -0.9837 N.am           1 RES1               0.0000
     11 O11         19.2314  11.0592   0.1256 O.2            1 RES1               0.0000
     12 C12         22.1035  12.2581  -1.1419 C.3            1 RES1               0.0000
     13 C13         20.2095   8.8748   3.8441 C.ar           1 RES1               0.0000
     14 C14         21.5418  10.7544   4.4534 C.ar           1 RES1               0.0000
     15 C15         20.9927   8.3231  -1.2451 C.2            1 RES1               0.0000
     16 C16         20.7536   9.6839   4.8187 C.ar           1 RES1               0.0000
     17 O17         20.7863   7.3954  -2.0222 O.2            1 RES1               0.0000
     18 H18         21.3796  12.6363   0.8386 H              1 RES1               0.0000
     19 H19         23.0403  12.0200   0.7699 H              1 RES1               0.0000
     20 H20         20.0151   8.4887   1.7529 H              1 RES1               0.0000
     21 H21         22.4099  11.8646   2.8516 H              1 RES1               0.0000
     22 H22         22.8540   7.6795  -0.7053 H              1 RES1               0.0000
     23 H23         19.1867   9.2333  -1.5024 H              1 RES1               0.0000
     24 H24         22.4734  13.2710  -1.2869 H              1 RES1               0.0000
     25 H25         22.7691  11.5760  -1.6666 H              1 RES1               0.0000
     26 H26         21.1183  12.1885  -1.5983 H              1 RES1               0.0000
     27 H27         19.5873   8.0319   4.1263 H              1 RES1               0.0000
     28 H28         21.9716  11.3943   5.2170 H              1 RES1               0.0000
     29 H29         20.5623   9.4797   5.8670 H              1 RES1               0.0000
@<TRIPOS>BOND
    1    1    2 1     
    2    1    3 1     
    3    1    4 1     
    4    1    5 1     
    5    2    6 ar    
    6    2    7 ar    
    7    3    8 1     
    8    3    9 2     
    9    4   10 1     
   10    4   11 2     
   11    5   12 1     
   12    5   18 1     
   13    5   19 1     
   14    6   13 ar    
   15    6   20 1     
   16    7   14 ar    
   17    7   21 1     
   18    8   15 1     
   19    8   22 1     
   20   10   15 1     
   21   10   23 1     
   22   12   24 1     
   23   12   25 1     
   24   12   26 1     
   25   13   16 ar    
   26   13   27 1     
   27   14   16 ar    
   28   14   28 1     
   29   15   17 2     
   30   16   29 1     
@<TRIPOS>SUBSTRUCTURE
      1 RES1           1
@<TRIPOS>SET
DONOR_HYDROGENS      STATIC     ATOMS    <user>   **** ""
2 22 23
ATOM$RED        STATIC     ATOMS    COLORGROUP SYSTEM
2 22 23
@<TRIPOS>COMMENT
> <Gold.Version>
2022.3.0

> <Gold.Id.Protein>
unknown|3oog_clean|pdb

> <Gold.Protein.RotatedTorsions>
[ 3557 3548 3547 3545 ] final  101.12 input   60.02 | X-H torsion
[ 3477 3468 3467 3465 ] final  -24.42 input   60.01 | X-H torsion
[ 3738 3729 3728 3726 ] final  138.11 input   59.99 | X-H torsion
[ 3042 3035 3033 3030 ] final  153.02 input   59.98 | X-H torsion
[ 4996 4987 4986 4984 ] final  148.49 input   60.02 | X-H torsion
[ 2507 2496 2495 2494 ] final  -64.26 input   60.00 | X-H torsion
[ 1848 1843 1842 1839 ] final -166.71 input   60.03 | X-H torsion
[ 3092 3083 3082 3080 ] final   40.64 input   60.01 | X-H torsion
[  556  552  551  548 ] final  -71.90 input   60.01 | X-H torsion

> <Gold.Protein.ActiveResidues>
 LEU49   GLY50   THR51   GLY52   SER53   PHE54   LEU82   GLN84   HIS87   GLY126 
 GLU127  MET128  PHE129  SER130  HIS131  LEU132  ARG133  ARG134  ILE135  GLY136 
 ARG137  ARG165  ASP166  LEU167  LYS168  PRO169  GLU170  ASN171  LEU173  ASP184 
 GLY186  PHE187  TPO197  LEU198  CYS199  GLY200  THR201  PRO202  GLU203  TYR204 
 LEU205  ILE209  ILE210  VAL226  LEU227  TYR229  GLU230  ALA233  GLY234  TYR235 
 PRO236  PRO237  PHE238  PHE239  ALA240  ASP241  GLN242  PRO243  ILE244  GLN245 
 ILE246  TYR247  ARG256  PHE257  PRO258  SER259  ASN326  PHE327  ASP328  ASP329 
 TYR330 

> <Gold.Protein.RotatedAtoms>
   18.1215   11.8123    1.5809 H   0  0  0  0  0  0  0  0  0  0  0  0  # atno 556  bound_to 552 
   26.2188    5.6346  -12.1989 H   0  0  0  0  0  0  0  0  0  0  0  0  # atno 1848 bound_to 1843
   18.5324    3.9742   -1.5407 H   0  0  0  0  0  0  0  0  0  0  0  0  # atno 2507 bound_to 2496
   18.7126    3.6220    0.0685 H   0  0  0  0  0  0  0  0  0  0  0  0  # atno 2508 bound_to 2496
   19.3221    5.0375   -0.5439 H   0  0  0  0  0  0  0  0  0  0  0  0  # atno 2509 bound_to 2496
   18.5019    2.1272    0.3453 H   0  0  0  0  0  0  0  0  0  0  0  0  # atno 3042 bound_to 3035
   21.1302   -3.6792   -4.0988 H   0  0  0  0  0  0  0  0  0  0  0  0  # atno 3092 bound_to 3083
   15.4839  -13.3863   -7.8778 H   0  0  0  0  0  0  0  0  0  0  0  0  # atno 3477 bound_to 3468
   15.2267  -13.8196  -12.5588 H   0  0  0  0  0  0  0  0  0  0  0  0  # atno 3557 bound_to 3548
    8.4942    0.9300    2.2697 H   0  0  0  0  0  0  0  0  0  0  0  0  # atno 3738 bound_to 3729
   22.0337   10.3975   -8.5625 H   0  0  0  0  0  0  0  0  0  0  0  0  # atno 4996 bound_to 4987
   15.8602  -14.1520  -11.0971 LP  0  0  0  0  0  0  0  0  0  0  0  0  # atno 5299 bound_to 3548
   16.8384  -13.9713  -12.3921 LP  0  0  0  0  0  0  0  0  0  0  0  0  # atno 5300 bound_to 3548
   15.4378  -14.6926   -6.9083 LP  0  0  0  0  0  0  0  0  0  0  0  0  # atno 5307 bound_to 3468
   16.3742  -14.6979   -8.2461 LP  0  0  0  0  0  0  0  0  0  0  0  0  # atno 5308 bound_to 3468
    9.9794    0.2810    2.1285 LP  0  0  0  0  0  0  0  0  0  0  0  0  # atno 5361 bound_to 3729
    9.3901    0.6663    3.6019 LP  0  0  0  0  0  0  0  0  0  0  0  0  # atno 5362 bound_to 3729
   17.5646    2.4742    1.6292 LP  0  0  0  0  0  0  0  0  0  0  0  0  # atno 5363 bound_to 3035
   17.1226    2.9643    0.1356 LP  0  0  0  0  0  0  0  0  0  0  0  0  # atno 5364 bound_to 3035
   23.5504   10.2918   -9.1420 LP  0  0  0  0  0  0  0  0  0  0  0  0  # atno 5373 bound_to 4987
   22.2763   10.0126  -10.1246 LP  0  0  0  0  0  0  0  0  0  0  0  0  # atno 5374 bound_to 4987
   25.8767    4.6281  -10.9664 LP  0  0  0  0  0  0  0  0  0  0  0  0  # atno 5381 bound_to 1843
   24.8296    4.7866  -12.2094 LP  0  0  0  0  0  0  0  0  0  0  0  0  # atno 5382 bound_to 1843
   20.5344   -5.1930   -4.0561 LP  0  0  0  0  0  0  0  0  0  0  0  0  # atno 5411 bound_to 3083
   21.9473   -4.8474   -3.3139 LP  0  0  0  0  0  0  0  0  0  0  0  0  # atno 5412 bound_to 3083
   17.6246   11.8257    3.1303 LP  0  0  0  0  0  0  0  0  0  0  0  0  # atno 5419 bound_to 552 
   18.3477   13.1425    2.4903 LP  0  0  0  0  0  0  0  0  0  0  0  0  # atno 5420 bound_to 552 

> <Gold.Score>
     Fitness  S(hb_ext) S(vdw_ext)  S(hb_int)    S(int)      intcor
     29.94       3.44      19.34       0.00      -0.08      -0.76

> <Gold.Goldscore.Fitness>
29.9442

> <Gold.Goldscore.Internal.Vdw>
-0.3509

> <Gold.Goldscore.Internal.Torsion>
-0.4865

> <Gold.Goldscore.External.Vdw>
19.3367

> <Gold.Goldscore.Internal.HBond>
0.0000

> <Gold.Goldscore.External.HBond>
3.4351

> <Gold.Goldscore.Internal.Correction>
-0.7585

> <Gold.Goldscore.Hbonds>
donor molecule, donor type, donor heavy atom, donor atom, acceptor molecule, acceptor atom, score
      P1  H   547   557       L1    11  0.45
      P1  H   552   556       L1    11  1.00
      L1  H     8    22       P1  2546  0.27

> <Gold.Goldscore.Internal.Vdw.Weighted>
-0.3509

> <Gold.Goldscore.Internal.Torsion.Weighted>
-0.4865

> <Gold.Goldscore.External.Vdw.Weighted>
26.5879

> <Gold.Goldscore.Internal.HBond.Weighted>
0.0000

> <Gold.Goldscore.External.HBond.Weighted>
3.4351

> <Gold.Goldscore.Internal.Correction.Weighted>
-0.7585

> <Gold.Rescore>
     Score     S(PLP)   S(hbond)     S(cho)   S(metal)  DE(clash)   DE(tors)     intcor
     31.06     -26.71       2.00       0.00       0.00       0.00       0.83       ----

> <Gold.PLP.Fitness>
31.0584

> <Gold.PLP.PLP>
-26.7099

> <Gold.PLP.part.hbond>
-3.6162

> <Gold.PLP.part.metal>
0.0000

> <Gold.PLP.part.buried>
0.3353

> <Gold.PLP.part.nonpolar>
-24.3904

> <Gold.PLP.part.repulsive>
0.3073

> <Gold.PLP.ligand.clash>
0.0000

> <Gold.PLP.ligand.torsion>
0.8258

> <Gold.PLP.Chemscore.Hbond>
2.0000

> <Gold.PLP.Chemscore.CHOScore>
0.0000

> <Gold.PLP.Chemscore.Metal>
0.0000

> <Gold.Chemscore.Hbonds>
donor molecule, donor type, donor heavy atom, donor atom, acceptor molecule, acceptor atom, score
      P1  H   547   557       L1    11  1.00
      P1  H   552   556       L1    11  1.00

> <Gold.PLP.Chemscore.Internal.Correction>
   9.000000E+99

