#       Name:                CT1002167954
#       Creating user name   hitesit
#       Creation time:       Sun Apr 16 20:16:14 2023


#       File generated by GOLD software.
#

@<TRIPOS>MOLECULE
CT1002167954|ligand_prepared|mol2|1|dock8
    29    30     1
SMALL
NO_CHARGES


@<TRIPOS>ATOM
      1 C1          20.7773   8.8186  -0.9497 C.3            1 RES1               0.0000
      2 C2          20.6083   9.4506   0.4469 C.ar           1 RES1               0.0000
      3 C3          19.6107   7.8510  -1.1262 C.2            1 RES1               0.0000
      4 C4          20.7822   9.9749  -1.9435 C.2            1 RES1               0.0000
      5 C5          22.0978   8.0329  -1.1244 C.3            1 RES1               0.0000
      6 C6          21.6709  10.1064   1.0613 C.ar           1 RES1               0.0000
      7 C7          19.3972   9.3884   1.1311 C.ar           1 RES1               0.0000
      8 N8          18.6048   8.2211  -1.9694 N.am           1 RES1               0.0000
      9 O9          19.5551   6.7970  -0.5046 O.2            1 RES1               0.0000
     10 N10         19.7445  10.0603  -2.8343 N.am           1 RES1               0.0000
     11 O11         21.6667  10.8222  -1.9522 O.2            1 RES1               0.0000
     12 C12         22.1717   7.2380  -2.4185 C.3            1 RES1               0.0000
     13 C13         21.5274  10.6818   2.3129 C.ar           1 RES1               0.0000
     14 C14         19.2559   9.9643   2.3829 C.ar           1 RES1               0.0000
     15 C15         18.6401   9.2533  -2.8721 C.2            1 RES1               0.0000
     16 C16         20.3198  10.6116   2.9743 C.ar           1 RES1               0.0000
     17 O17         17.7218   9.4266  -3.6682 O.2            1 RES1               0.0000
     18 H18         22.9359   8.7402  -1.0961 H              1 RES1               0.0000
     19 H19         22.2126   7.3430  -0.2793 H              1 RES1               0.0000
     20 H20         22.6295  10.1696   0.5571 H              1 RES1               0.0000
     21 H21         18.5469   8.8833   0.6856 H              1 RES1               0.0000
     22 H22         17.7469   7.6805  -1.9245 H              1 RES1               0.0000
     23 H23         19.8005  10.7934  -3.5342 H              1 RES1               0.0000
     24 H24         23.1180   6.7059  -2.4908 H              1 RES1               0.0000
     25 H25         21.3673   6.5071  -2.4688 H              1 RES1               0.0000
     26 H26         22.0862   7.8960  -3.2808 H              1 RES1               0.0000
     27 H27         22.3682  11.1889   2.7746 H              1 RES1               0.0000
     28 H28         18.3038   9.9061   2.9000 H              1 RES1               0.0000
     29 H29         20.2075  11.0627   3.9546 H              1 RES1               0.0000
@<TRIPOS>BOND
    1    1    2 1     
    2    1    3 1     
    3    1    4 1     
    4    1    5 1     
    5    2    6 ar    
    6    2    7 ar    
    7    3    8 1     
    8    3    9 2     
    9    4   10 1     
   10    4   11 2     
   11    5   12 1     
   12    5   18 1     
   13    5   19 1     
   14    6   13 ar    
   15    6   20 1     
   16    7   14 ar    
   17    7   21 1     
   18    8   15 1     
   19    8   22 1     
   20   10   15 1     
   21   10   23 1     
   22   12   24 1     
   23   12   25 1     
   24   12   26 1     
   25   13   16 ar    
   26   13   27 1     
   27   14   16 ar    
   28   14   28 1     
   29   15   17 2     
   30   16   29 1     
@<TRIPOS>SUBSTRUCTURE
      1 RES1           1
@<TRIPOS>SET
DONOR_HYDROGENS      STATIC     ATOMS    <user>   **** ""
2 22 23
ATOM$RED        STATIC     ATOMS    COLORGROUP SYSTEM
2 22 23
@<TRIPOS>COMMENT
> <Gold.Version>
2022.3.0

> <Gold.Id.Protein>
unknown|3oog_clean|pdb

> <Gold.Protein.RotatedTorsions>
[ 3557 3548 3547 3545 ] final   82.15 input   60.02 | X-H torsion
[ 3477 3468 3467 3465 ] final   93.17 input   60.01 | X-H torsion
[ 3738 3729 3728 3726 ] final  153.23 input   59.99 | X-H torsion
[ 3042 3035 3033 3030 ] final   51.61 input   59.98 | X-H torsion
[ 4996 4987 4986 4984 ] final   84.72 input   60.02 | X-H torsion
[ 2507 2496 2495 2494 ] final -168.47 input   60.00 | X-H torsion
[ 1848 1843 1842 1839 ] final  -27.89 input   60.03 | X-H torsion
[ 3092 3083 3082 3080 ] final -160.59 input   60.01 | X-H torsion
[  556  552  551  548 ] final  -39.81 input   60.01 | X-H torsion

> <Gold.Protein.ActiveResidues>
 LEU49   GLY50   THR51   GLY52   SER53   PHE54   LEU82   GLN84   HIS87   GLY126 
 GLU127  MET128  PHE129  SER130  HIS131  LEU132  ARG133  ARG134  ILE135  GLY136 
 ARG137  ARG165  ASP166  LEU167  LYS168  PRO169  GLU170  ASN171  LEU173  ASP184 
 GLY186  PHE187  TPO197  LEU198  CYS199  GLY200  THR201  PRO202  GLU203  TYR204 
 LEU205  ILE209  ILE210  VAL226  LEU227  TYR229  GLU230  ALA233  GLY234  TYR235 
 PRO236  PRO237  PHE238  PHE239  ALA240  ASP241  GLN242  PRO243  ILE244  GLN245 
 ILE246  TYR247  ARG256  PHE257  PRO258  SER259  ASN326  PHE327  ASP328  ASP329 
 TYR330 

> <Gold.Protein.RotatedAtoms>
   18.3278   12.2817    1.5108 H   0  0  0  0  0  0  0  0  0  0  0  0  # atno 556  bound_to 552 
   24.8154    4.6114  -11.9573 H   0  0  0  0  0  0  0  0  0  0  0  0  # atno 1848 bound_to 1843
   19.2756    5.0609   -0.8017 H   0  0  0  0  0  0  0  0  0  0  0  0  # atno 2507 bound_to 2496
   18.4489    3.7611   -1.4126 H   0  0  0  0  0  0  0  0  0  0  0  0  # atno 2508 bound_to 2496
   18.8421    3.8113    0.1977 H   0  0  0  0  0  0  0  0  0  0  0  0  # atno 2509 bound_to 2496
   17.8267    2.3220    1.6120 H   0  0  0  0  0  0  0  0  0  0  0  0  # atno 3042 bound_to 3035
   21.5646   -5.3302   -3.4112 H   0  0  0  0  0  0  0  0  0  0  0  0  # atno 3092 bound_to 3083
   16.3724  -14.6620   -8.2639 H   0  0  0  0  0  0  0  0  0  0  0  0  # atno 3477 bound_to 3468
   15.0849  -13.8619  -12.2879 H   0  0  0  0  0  0  0  0  0  0  0  0  # atno 3557 bound_to 3548
    8.4335    0.9770    2.5037 H   0  0  0  0  0  0  0  0  0  0  0  0  # atno 3738 bound_to 3729
   23.0152   10.4508   -8.4549 H   0  0  0  0  0  0  0  0  0  0  0  0  # atno 4996 bound_to 4987
   16.1699  -14.1710  -11.1150 LP  0  0  0  0  0  0  0  0  0  0  0  0  # atno 5299 bound_to 3548
   16.6715  -13.9097  -12.6470 LP  0  0  0  0  0  0  0  0  0  0  0  0  # atno 5300 bound_to 3548
   15.4576  -13.3819   -7.8479 LP  0  0  0  0  0  0  0  0  0  0  0  0  # atno 5307 bound_to 3468
   15.4598  -14.7242   -6.9178 LP  0  0  0  0  0  0  0  0  0  0  0  0  # atno 5308 bound_to 3468
    9.8197    0.3333    1.9460 LP  0  0  0  0  0  0  0  0  0  0  0  0  # atno 5361 bound_to 3729
    9.6110    0.5666    3.5487 LP  0  0  0  0  0  0  0  0  0  0  0  0  # atno 5362 bound_to 3729
   16.9807    3.0053    0.4018 LP  0  0  0  0  0  0  0  0  0  0  0  0  # atno 5363 bound_to 3035
   18.3868    2.2370    0.0868 LP  0  0  0  0  0  0  0  0  0  0  0  0  # atno 5364 bound_to 3035
   23.1582   10.0605  -10.0280 LP  0  0  0  0  0  0  0  0  0  0  0  0  # atno 5373 bound_to 4987
   21.6797   10.1903   -9.3470 LP  0  0  0  0  0  0  0  0  0  0  0  0  # atno 5374 bound_to 4987
   25.9956    5.6367  -12.4101 LP  0  0  0  0  0  0  0  0  0  0  0  0  # atno 5381 bound_to 1843
   26.1234    4.8080  -11.0089 LP  0  0  0  0  0  0  0  0  0  0  0  0  # atno 5382 bound_to 1843
   21.6575   -3.7462   -3.7725 LP  0  0  0  0  0  0  0  0  0  0  0  0  # atno 5411 bound_to 3083
   20.3866   -4.6314   -4.2900 LP  0  0  0  0  0  0  0  0  0  0  0  0  # atno 5412 bound_to 3083
   17.6181   11.4826    2.7379 LP  0  0  0  0  0  0  0  0  0  0  0  0  # atno 5419 bound_to 552 
   18.1463   13.0128    2.9532 LP  0  0  0  0  0  0  0  0  0  0  0  0  # atno 5420 bound_to 552 

> <Gold.Score>
     Fitness  S(hb_ext) S(vdw_ext)  S(hb_int)    S(int)      intcor
     24.86       6.96      13.86       0.00      -1.16      -0.76

> <Gold.Goldscore.Fitness>
24.8646

> <Gold.Goldscore.Internal.Vdw>
-1.4256

> <Gold.Goldscore.Internal.Torsion>
-0.4932

> <Gold.Goldscore.External.Vdw>
13.8630

> <Gold.Goldscore.Internal.HBond>
0.0000

> <Gold.Goldscore.External.HBond>
6.9632

> <Gold.Goldscore.Internal.Correction>
-0.7585

> <Gold.Goldscore.Hbonds>
donor molecule, donor type, donor heavy atom, donor atom, acceptor molecule, acceptor atom, score
      P1  H  2496  2507       L1     9  0.99
      L1  H    10    23       P1   529  0.52

> <Gold.Goldscore.Internal.Vdw.Weighted>
-1.4256

> <Gold.Goldscore.Internal.Torsion.Weighted>
-0.4932

> <Gold.Goldscore.External.Vdw.Weighted>
19.0616

> <Gold.Goldscore.Internal.HBond.Weighted>
0.0000

> <Gold.Goldscore.External.HBond.Weighted>
6.9632

> <Gold.Goldscore.Internal.Correction.Weighted>
-0.7585

> <Gold.Rescore>
     Score     S(PLP)   S(hbond)     S(cho)   S(metal)  DE(clash)   DE(tors)     intcor
     22.75     -18.55       2.00       0.00       0.00       0.00       0.90       ----

> <Gold.PLP.Fitness>
22.7461

> <Gold.PLP.PLP>
-18.5508

> <Gold.PLP.part.hbond>
-2.0000

> <Gold.PLP.part.metal>
0.0000

> <Gold.PLP.part.buried>
-3.8091

> <Gold.PLP.part.nonpolar>
-14.1884

> <Gold.PLP.part.repulsive>
0.7687

> <Gold.PLP.ligand.clash>
0.0000

> <Gold.PLP.ligand.torsion>
0.9024

> <Gold.PLP.Chemscore.Hbond>
2.0000

> <Gold.PLP.Chemscore.CHOScore>
0.0000

> <Gold.PLP.Chemscore.Metal>
0.0000

> <Gold.Chemscore.Hbonds>
donor molecule, donor type, donor heavy atom, donor atom, acceptor molecule, acceptor atom, score
      L1  H    10    23       P1   529  1.00
      P1  H  2496  2507       L1     9  1.00

> <Gold.PLP.Chemscore.Internal.Correction>
   9.000000E+99

