#       Name:                CT1002167954
#       Creating user name   hitesit
#       Creation time:       Sun Apr 16 20:16:08 2023


#       File generated by GOLD software.
#

@<TRIPOS>MOLECULE
CT1002167954|ligand_prepared|mol2|1|dock4
    29    30     1
SMALL
NO_CHARGES


@<TRIPOS>ATOM
      1 C1          23.8050   8.7000  -3.7604 C.3            1 RES1               0.0000
      2 C2          25.2856   9.1321  -3.7514 C.ar           1 RES1               0.0000
      3 C3          23.4040   8.5756  -5.2273 C.2            1 RES1               0.0000
      4 C4          23.7384   7.3895  -2.9839 C.2            1 RES1               0.0000
      5 C5          22.8552   9.7100  -3.0754 C.3            1 RES1               0.0000
      6 C6          26.2765   8.2760  -4.2223 C.ar           1 RES1               0.0000
      7 C7          25.6748  10.3825  -3.2785 C.ar           1 RES1               0.0000
      8 N8          23.2511   7.3196  -5.7362 N.am           1 RES1               0.0000
      9 O9          23.2626   9.5637  -5.9372 O.2            1 RES1               0.0000
     10 N10         23.3883   6.2550  -3.6680 N.am           1 RES1               0.0000
     11 O11         24.0021   7.3263  -1.7894 O.2            1 RES1               0.0000
     12 C12         21.4178   9.2253  -2.9698 C.3            1 RES1               0.0000
     13 C13         27.6081   8.6571  -4.2233 C.ar           1 RES1               0.0000
     14 C14         27.0070  10.7616  -3.2802 C.ar           1 RES1               0.0000
     15 C15         23.1715   6.1552  -5.0153 C.2            1 RES1               0.0000
     16 C16         27.9742   9.9002  -3.7528 C.ar           1 RES1               0.0000
     17 O17         22.9139   5.0888  -5.5662 O.2            1 RES1               0.0000
     18 H18         23.2317   9.9208  -2.0669 H              1 RES1               0.0000
     19 H19         22.8703  10.6492  -3.6421 H              1 RES1               0.0000
     20 H20         26.0077   7.2929  -4.5942 H              1 RES1               0.0000
     21 H21         24.9313  11.0762  -2.9010 H              1 RES1               0.0000
     22 H22         23.1904   7.2385  -6.7462 H              1 RES1               0.0000
     23 H23         23.2790   5.4061  -3.1222 H              1 RES1               0.0000
     24 H24         20.7940   9.9713  -2.4818 H              1 RES1               0.0000
     25 H25         21.0031   9.0299  -3.9565 H              1 RES1               0.0000
     26 H26         21.3623   8.3059  -2.3907 H              1 RES1               0.0000
     27 H27         28.3655   7.9750  -4.5950 H              1 RES1               0.0000
     28 H28         27.2907  11.7406  -2.9084 H              1 RES1               0.0000
     29 H29         29.0173  10.1987  -3.7540 H              1 RES1               0.0000
@<TRIPOS>BOND
    1    1    2 1     
    2    1    3 1     
    3    1    4 1     
    4    1    5 1     
    5    2    6 ar    
    6    2    7 ar    
    7    3    8 1     
    8    3    9 2     
    9    4   10 1     
   10    4   11 2     
   11    5   12 1     
   12    5   18 1     
   13    5   19 1     
   14    6   13 ar    
   15    6   20 1     
   16    7   14 ar    
   17    7   21 1     
   18    8   15 1     
   19    8   22 1     
   20   10   15 1     
   21   10   23 1     
   22   12   24 1     
   23   12   25 1     
   24   12   26 1     
   25   13   16 ar    
   26   13   27 1     
   27   14   16 ar    
   28   14   28 1     
   29   15   17 2     
   30   16   29 1     
@<TRIPOS>SUBSTRUCTURE
      1 RES1           1
@<TRIPOS>SET
DONOR_HYDROGENS      STATIC     ATOMS    <user>   **** ""
2 22 23
ATOM$RED        STATIC     ATOMS    COLORGROUP SYSTEM
2 22 23
@<TRIPOS>COMMENT
> <Gold.Version>
2022.3.0

> <Gold.Id.Protein>
unknown|3oog_clean|pdb

> <Gold.Protein.RotatedTorsions>
[ 3557 3548 3547 3545 ] final  145.99 input   60.02 | X-H torsion
[ 3477 3468 3467 3465 ] final  -39.49 input   60.01 | X-H torsion
[ 3738 3729 3728 3726 ] final  -33.27 input   59.99 | X-H torsion
[ 3042 3035 3033 3030 ] final  105.42 input   59.98 | X-H torsion
[ 4996 4987 4986 4984 ] final  -15.94 input   60.02 | X-H torsion
[ 2507 2496 2495 2494 ] final  -97.09 input   60.00 | X-H torsion
[ 1848 1843 1842 1839 ] final  131.50 input   60.03 | X-H torsion
[ 3092 3083 3082 3080 ] final   19.77 input   60.01 | X-H torsion
[  556  552  551  548 ] final -127.94 input   60.01 | X-H torsion

> <Gold.Protein.ActiveResidues>
 LEU49   GLY50   THR51   GLY52   SER53   PHE54   LEU82   GLN84   HIS87   GLY126 
 GLU127  MET128  PHE129  SER130  HIS131  LEU132  ARG133  ARG134  ILE135  GLY136 
 ARG137  ARG165  ASP166  LEU167  LYS168  PRO169  GLU170  ASN171  LEU173  ASP184 
 GLY186  PHE187  TPO197  LEU198  CYS199  GLY200  THR201  PRO202  GLU203  TYR204 
 LEU205  ILE209  ILE210  VAL226  LEU227  TYR229  GLU230  ALA233  GLY234  TYR235 
 PRO236  PRO237  PHE238  PHE239  ALA240  ASP241  GLN242  PRO243  ILE244  GLN245 
 ILE246  TYR247  ARG256  PHE257  PRO258  SER259  ASN326  PHE327  ASP328  ASP329 
 TYR330 

> <Gold.Protein.RotatedAtoms>
   17.7374   11.3836    2.2459 H   0  0  0  0  0  0  0  0  0  0  0  0  # atno 556  bound_to 552 
   26.4448    5.2287  -11.3568 H   0  0  0  0  0  0  0  0  0  0  0  0  # atno 1848 bound_to 1843
   18.7745    4.4547   -1.5937 H   0  0  0  0  0  0  0  0  0  0  0  0  # atno 2507 bound_to 2496
   18.4883    3.3835   -0.3622 H   0  0  0  0  0  0  0  0  0  0  0  0  # atno 2508 bound_to 2496
   19.3041    4.7954   -0.0603 H   0  0  0  0  0  0  0  0  0  0  0  0  # atno 2509 bound_to 2496
   18.4379    2.0476    1.0936 H   0  0  0  0  0  0  0  0  0  0  0  0  # atno 3042 bound_to 3035
   20.8465   -3.8083   -4.2322 H   0  0  0  0  0  0  0  0  0  0  0  0  # atno 3092 bound_to 3083
   15.3539  -13.4154   -7.6714 H   0  0  0  0  0  0  0  0  0  0  0  0  # atno 3477 bound_to 3468
   15.8400  -13.7929  -12.9249 H   0  0  0  0  0  0  0  0  0  0  0  0  # atno 3557 bound_to 3548
   10.1183    0.2911    2.9309 H   0  0  0  0  0  0  0  0  0  0  0  0  # atno 3738 bound_to 3729
   23.3781   10.1228   -9.8101 H   0  0  0  0  0  0  0  0  0  0  0  0  # atno 4996 bound_to 4987
   15.2346  -14.0412  -11.4348 LP  0  0  0  0  0  0  0  0  0  0  0  0  # atno 5299 bound_to 3548
   16.8467  -14.1091  -11.6859 LP  0  0  0  0  0  0  0  0  0  0  0  0  # atno 5300 bound_to 3548
   15.5832  -14.8753   -6.9897 LP  0  0  0  0  0  0  0  0  0  0  0  0  # atno 5307 bound_to 3468
   16.3595  -14.4858   -8.3725 LP  0  0  0  0  0  0  0  0  0  0  0  0  # atno 5308 bound_to 3468
    8.6786    0.9462    3.3123 LP  0  0  0  0  0  0  0  0  0  0  0  0  # atno 5361 bound_to 3729
    9.0544    0.6449    1.7519 LP  0  0  0  0  0  0  0  0  0  0  0  0  # atno 5362 bound_to 3729
   17.0282    2.8469    1.2391 LP  0  0  0  0  0  0  0  0  0  0  0  0  # atno 5363 bound_to 3035
   17.7234    2.6718   -0.2282 LP  0  0  0  0  0  0  0  0  0  0  0  0  # atno 5364 bound_to 3035
   21.7594   10.1182   -9.6449 LP  0  0  0  0  0  0  0  0  0  0  0  0  # atno 5373 bound_to 4987
   22.7128   10.4630   -8.3648 LP  0  0  0  0  0  0  0  0  0  0  0  0  # atno 5374 bound_to 4987
   25.0451    4.3995  -11.4063 LP  0  0  0  0  0  0  0  0  0  0  0  0  # atno 5381 bound_to 1843
   25.4337    5.4239  -12.6172 LP  0  0  0  0  0  0  0  0  0  0  0  0  # atno 5382 bound_to 1843
   20.7462   -5.3936   -3.8788 LP  0  0  0  0  0  0  0  0  0  0  0  0  # atno 5411 bound_to 3083
   22.0211   -4.5169   -3.3568 LP  0  0  0  0  0  0  0  0  0  0  0  0  # atno 5412 bound_to 3083
   17.9117   12.6558    3.2454 LP  0  0  0  0  0  0  0  0  0  0  0  0  # atno 5419 bound_to 552 
   18.4475   12.7443    1.7053 LP  0  0  0  0  0  0  0  0  0  0  0  0  # atno 5420 bound_to 552 

> <Gold.Score>
     Fitness  S(hb_ext) S(vdw_ext)  S(hb_int)    S(int)      intcor
     31.09       3.46      20.15       0.00      -0.07      -0.77

> <Gold.Goldscore.Fitness>
31.0950

> <Gold.Goldscore.Internal.Vdw>
-0.4231

> <Gold.Goldscore.Internal.Torsion>
-0.4117

> <Gold.Goldscore.External.Vdw>
20.1486

> <Gold.Goldscore.Internal.HBond>
0.0000

> <Gold.Goldscore.External.HBond>
3.4561

> <Gold.Goldscore.Internal.Correction>
-0.7693

> <Gold.Goldscore.Hbonds>
donor molecule, donor type, donor heavy atom, donor atom, acceptor molecule, acceptor atom, score
      L1  H    10    23       P1  2756  0.58

> <Gold.Goldscore.Internal.Vdw.Weighted>
-0.4231

> <Gold.Goldscore.Internal.Torsion.Weighted>
-0.4117

> <Gold.Goldscore.External.Vdw.Weighted>
27.7043

> <Gold.Goldscore.Internal.HBond.Weighted>
0.0000

> <Gold.Goldscore.External.HBond.Weighted>
3.4561

> <Gold.Goldscore.Internal.Correction.Weighted>
-0.7693

> <Gold.Rescore>
     Score     S(PLP)   S(hbond)     S(cho)   S(metal)  DE(clash)   DE(tors)     intcor
     31.93     -29.11       1.00       0.00       0.00       0.00       0.09       ----

> <Gold.PLP.Fitness>
31.9277

> <Gold.PLP.PLP>
-29.1133

> <Gold.PLP.part.hbond>
-1.0000

> <Gold.PLP.part.metal>
0.0000

> <Gold.PLP.part.buried>
-5.5471

> <Gold.PLP.part.nonpolar>
-23.4739

> <Gold.PLP.part.repulsive>
0.3601

> <Gold.PLP.ligand.clash>
0.0000

> <Gold.PLP.ligand.torsion>
0.0928

> <Gold.PLP.Chemscore.Hbond>
1.0000

> <Gold.PLP.Chemscore.CHOScore>
0.0000

> <Gold.PLP.Chemscore.Metal>
0.0000

> <Gold.PLP.Chemscore.Internal.Correction>
   9.000000E+99

