#       Name:                CT1002167954
#       Creating user name   hitesit
#       Creation time:       Sun Apr 16 20:16:10 2023


#       File generated by GOLD software.
#

@<TRIPOS>MOLECULE
CT1002167954|ligand_prepared|mol2|1|dock5
    29    30     1
SMALL
NO_CHARGES


@<TRIPOS>ATOM
      1 C1          19.6331   9.7419   2.6198 C.3            1 RES1               0.0000
      2 C2          20.3299  10.9416   1.9459 C.ar           1 RES1               0.0000
      3 C3          18.4554   9.3715   1.7231 C.2            1 RES1               0.0000
      4 C4          20.6892   8.6491   2.7428 C.2            1 RES1               0.0000
      5 C5          19.0945  10.0474   4.0368 C.3            1 RES1               0.0000
      6 C6          20.7985  12.0081   2.7073 C.ar           1 RES1               0.0000
      7 C7          20.5134  10.9947   0.5668 C.ar           1 RES1               0.0000
      8 N8          18.5658   8.2396   0.9704 N.am           1 RES1               0.0000
      9 O9          17.4611  10.0829   1.6477 O.2            1 RES1               0.0000
     10 N10         20.5112   7.4997   2.0183 N.am           1 RES1               0.0000
     11 O11         21.6823   8.7798   3.4476 O.2            1 RES1               0.0000
     12 C12         18.2622   8.9227   4.6321 C.3            1 RES1               0.0000
     13 C13         21.4304  13.0872   2.1120 C.ar           1 RES1               0.0000
     14 C14         21.1454  12.0750  -0.0266 C.ar           1 RES1               0.0000
     15 C15         19.5131   7.2579   1.1141 C.2            1 RES1               0.0000
     16 C16         21.6046  13.1212   0.7448 C.ar           1 RES1               0.0000
     17 O17         19.4506   6.2207   0.4602 O.2            1 RES1               0.0000
     18 H18         19.9437  10.2483   4.7016 H              1 RES1               0.0000
     19 H19         18.4808  10.9557   3.9931 H              1 RES1               0.0000
     20 H20         20.6683  12.0000   3.7844 H              1 RES1               0.0000
     21 H21         20.1593  10.1834  -0.0601 H              1 RES1               0.0000
     22 H22         17.8808   8.1112   0.2325 H              1 RES1               0.0000
     23 H23         21.1850   6.7553   2.1669 H              1 RES1               0.0000
     24 H24         17.9092   9.1886   5.6263 H              1 RES1               0.0000
     25 H25         17.3950   8.7133   4.0094 H              1 RES1               0.0000
     26 H26         18.8492   8.0101   4.7137 H              1 RES1               0.0000
     27 H27         21.7888  13.9088   2.7234 H              1 RES1               0.0000
     28 H28         21.2798  12.0978  -1.1030 H              1 RES1               0.0000
     29 H29         22.1000  13.9666   0.2787 H              1 RES1               0.0000
@<TRIPOS>BOND
    1    1    2 1     
    2    1    3 1     
    3    1    4 1     
    4    1    5 1     
    5    2    6 ar    
    6    2    7 ar    
    7    3    8 1     
    8    3    9 2     
    9    4   10 1     
   10    4   11 2     
   11    5   12 1     
   12    5   18 1     
   13    5   19 1     
   14    6   13 ar    
   15    6   20 1     
   16    7   14 ar    
   17    7   21 1     
   18    8   15 1     
   19    8   22 1     
   20   10   15 1     
   21   10   23 1     
   22   12   24 1     
   23   12   25 1     
   24   12   26 1     
   25   13   16 ar    
   26   13   27 1     
   27   14   16 ar    
   28   14   28 1     
   29   15   17 2     
   30   16   29 1     
@<TRIPOS>SUBSTRUCTURE
      1 RES1           1
@<TRIPOS>SET
DONOR_HYDROGENS      STATIC     ATOMS    <user>   **** ""
2 22 23
ATOM$RED        STATIC     ATOMS    COLORGROUP SYSTEM
2 22 23
@<TRIPOS>COMMENT
> <Gold.Version>
2022.3.0

> <Gold.Id.Protein>
unknown|3oog_clean|pdb

> <Gold.Protein.RotatedTorsions>
[ 3557 3548 3547 3545 ] final -114.77 input   60.02 | X-H torsion
[ 3477 3468 3467 3465 ] final  144.87 input   60.01 | X-H torsion
[ 3738 3729 3728 3726 ] final  154.45 input   59.99 | X-H torsion
[ 3042 3035 3033 3030 ] final  -35.88 input   59.98 | X-H torsion
[ 4996 4987 4986 4984 ] final -125.57 input   60.02 | X-H torsion
[ 2507 2496 2495 2494 ] final   31.82 input   60.00 | X-H torsion
[ 1848 1843 1842 1839 ] final  -58.06 input   60.03 | X-H torsion
[ 3092 3083 3082 3080 ] final   88.54 input   60.01 | X-H torsion
[  556  552  551  548 ] final  129.99 input   60.01 | X-H torsion

> <Gold.Protein.ActiveResidues>
 LEU49   GLY50   THR51   GLY52   SER53   PHE54   LEU82   GLN84   HIS87   GLY126 
 GLU127  MET128  PHE129  SER130  HIS131  LEU132  ARG133  ARG134  ILE135  GLY136 
 ARG137  ARG165  ASP166  LEU167  LYS168  PRO169  GLU170  ASN171  LEU173  ASP184 
 GLY186  PHE187  TPO197  LEU198  CYS199  GLY200  THR201  PRO202  GLU203  TYR204 
 LEU205  ILE209  ILE210  VAL226  LEU227  TYR229  GLU230  ALA233  GLY234  TYR235 
 PRO236  PRO237  PHE238  PHE239  ALA240  ASP241  GLN242  PRO243  ILE244  GLN245 
 ILE246  TYR247  ARG256  PHE257  PRO258  SER259  ASN326  PHE327  ASP328  ASP329 
 TYR330 

> <Gold.Protein.RotatedAtoms>
   17.7913   12.3931    3.2932 H   0  0  0  0  0  0  0  0  0  0  0  0  # atno 556  bound_to 552 
   24.8907    4.9052  -12.3390 H   0  0  0  0  0  0  0  0  0  0  0  0  # atno 1848 bound_to 1843
   18.5403    3.4246   -0.2286 H   0  0  0  0  0  0  0  0  0  0  0  0  # atno 2507 bound_to 2496
   19.3241    4.8837   -0.1777 H   0  0  0  0  0  0  0  0  0  0  0  0  # atno 2508 bound_to 2496
   18.7027    4.3258   -1.6105 H   0  0  0  0  0  0  0  0  0  0  0  0  # atno 2509 bound_to 2496
   16.9300    2.9508    0.9226 H   0  0  0  0  0  0  0  0  0  0  0  0  # atno 3042 bound_to 3035
   21.7554   -3.8261   -3.6920 H   0  0  0  0  0  0  0  0  0  0  0  0  # atno 3092 bound_to 3083
   16.1428  -15.1118   -7.6221 H   0  0  0  0  0  0  0  0  0  0  0  0  # atno 3477 bound_to 3468
   16.9075  -14.0472  -12.0133 H   0  0  0  0  0  0  0  0  0  0  0  0  # atno 3557 bound_to 3548
    8.4311    0.9798    2.5233 H   0  0  0  0  0  0  0  0  0  0  0  0  # atno 3738 bound_to 3729
   21.8489   10.0875   -9.7862 H   0  0  0  0  0  0  0  0  0  0  0  0  # atno 4996 bound_to 4987
   15.5177  -13.7924  -12.8208 LP  0  0  0  0  0  0  0  0  0  0  0  0  # atno 5299 bound_to 3548
   15.4888  -14.1017  -11.2177 LP  0  0  0  0  0  0  0  0  0  0  0  0  # atno 5300 bound_to 3548
   15.9887  -13.6883   -8.3957 LP  0  0  0  0  0  0  0  0  0  0  0  0  # atno 5307 bound_to 3468
   15.1599  -13.9649   -7.0161 LP  0  0  0  0  0  0  0  0  0  0  0  0  # atno 5308 bound_to 3468
    9.8051    0.3384    1.9333 LP  0  0  0  0  0  0  0  0  0  0  0  0  # atno 5361 bound_to 3729
    9.6281    0.5587    3.5417 LP  0  0  0  0  0  0  0  0  0  0  0  0  # atno 5362 bound_to 3729
   18.0210    2.4935   -0.1944 LP  0  0  0  0  0  0  0  0  0  0  0  0  # atno 5363 bound_to 3035
   18.2498    2.1152    1.3776 LP  0  0  0  0  0  0  0  0  0  0  0  0  # atno 5364 bound_to 3035
   22.5426   10.4591   -8.3621 LP  0  0  0  0  0  0  0  0  0  0  0  0  # atno 5373 bound_to 4987
   23.4704   10.1577   -9.6717 LP  0  0  0  0  0  0  0  0  0  0  0  0  # atno 5374 bound_to 4987
   26.3292    5.6103  -12.0512 LP  0  0  0  0  0  0  0  0  0  0  0  0  # atno 5381 bound_to 1843
   25.7140    4.5387  -10.9836 LP  0  0  0  0  0  0  0  0  0  0  0  0  # atno 5382 bound_to 1843
   20.4052   -4.4851   -4.3174 LP  0  0  0  0  0  0  0  0  0  0  0  0  # atno 5411 bound_to 3083
   21.4468   -5.4074   -3.4624 LP  0  0  0  0  0  0  0  0  0  0  0  0  # atno 5412 bound_to 3083
   18.4583   12.9480    1.9166 LP  0  0  0  0  0  0  0  0  0  0  0  0  # atno 5419 bound_to 552 
   17.8465   11.4352    1.9790 LP  0  0  0  0  0  0  0  0  0  0  0  0  # atno 5420 bound_to 552 

> <Gold.Score>
     Fitness  S(hb_ext) S(vdw_ext)  S(hb_int)    S(int)      intcor
     31.70       6.32      19.08       0.00      -0.85      -0.76

> <Gold.Goldscore.Fitness>
31.7029

> <Gold.Goldscore.Internal.Vdw>
-1.1609

> <Gold.Goldscore.Internal.Torsion>
-0.4506

> <Gold.Goldscore.External.Vdw>
19.0793

> <Gold.Goldscore.Internal.HBond>
0.0000

> <Gold.Goldscore.External.HBond>
6.3219

> <Gold.Goldscore.Internal.Correction>
-0.7585

> <Gold.Goldscore.Hbonds>
donor molecule, donor type, donor heavy atom, donor atom, acceptor molecule, acceptor atom, score
      P1  H  2496  2508       L1    17  1.00
      L1  H    10    23       P1  2464  0.05

> <Gold.Goldscore.Internal.Vdw.Weighted>
-1.1609

> <Gold.Goldscore.Internal.Torsion.Weighted>
-0.4506

> <Gold.Goldscore.External.Vdw.Weighted>
26.2340

> <Gold.Goldscore.Internal.HBond.Weighted>
0.0000

> <Gold.Goldscore.External.HBond.Weighted>
6.3219

> <Gold.Goldscore.Internal.Correction.Weighted>
-0.7585

> <Gold.Rescore>
     Score     S(PLP)   S(hbond)     S(cho)   S(metal)  DE(clash)   DE(tors)     intcor
     19.01     -18.10       1.00       0.00       0.00       0.00       1.05       ----

> <Gold.PLP.Fitness>
19.0062

> <Gold.PLP.PLP>
-18.1023

> <Gold.PLP.part.hbond>
-3.1706

> <Gold.PLP.part.metal>
0.0000

> <Gold.PLP.part.buried>
7.0091

> <Gold.PLP.part.nonpolar>
-25.9589

> <Gold.PLP.part.repulsive>
2.8814

> <Gold.PLP.ligand.clash>
0.0000

> <Gold.PLP.ligand.torsion>
1.0481

> <Gold.PLP.Chemscore.Hbond>
1.0000

> <Gold.PLP.Chemscore.CHOScore>
0.0000

> <Gold.PLP.Chemscore.Metal>
0.0000

> <Gold.Chemscore.Hbonds>
donor molecule, donor type, donor heavy atom, donor atom, acceptor molecule, acceptor atom, score
      L1  H    10    23       P1  2756  0.19
      P1  H  2496  2508       L1    17  0.71

> <Gold.PLP.Chemscore.Internal.Correction>
   9.000000E+99

