#       Name:                CT1002167954
#       Creating user name   hitesit
#       Creation time:       Sun Apr 16 20:16:05 2023


#       File generated by GOLD software.
#

@<TRIPOS>MOLECULE
CT1002167954|ligand_prepared|mol2|1|dock2
    29    30     1
SMALL
NO_CHARGES


@<TRIPOS>ATOM
      1 C1          25.6230   9.4762  -3.4622 C.3            1 RES1               0.0000
      2 C2          25.0005  10.5137  -2.5058 C.ar           1 RES1               0.0000
      3 C3          24.4605   8.6735  -4.0390 C.2            1 RES1               0.0000
      4 C4          26.4068  10.2702  -4.5014 C.2            1 RES1               0.0000
      5 C5          26.6009   8.4974  -2.7715 C.3            1 RES1               0.0000
      6 C6          24.3809  11.6555  -3.0050 C.ar           1 RES1               0.0000
      7 C7          25.0355  10.3419  -1.1246 C.ar           1 RES1               0.0000
      8 N8          24.1095   8.9120  -5.3351 N.am           1 RES1               0.0000
      9 O9          23.8358   7.8721  -3.3551 O.2            1 RES1               0.0000
     10 N10         25.9737  10.2302  -5.8008 N.am           1 RES1               0.0000
     11 O11         27.3858  10.9435  -4.2037 O.2            1 RES1               0.0000
     12 C12         27.4045   7.6465  -3.7422 C.3            1 RES1               0.0000
     13 C13         23.8143  12.5903  -2.1544 C.ar           1 RES1               0.0000
     14 C14         24.4685  11.2780  -0.2757 C.ar           1 RES1               0.0000
     15 C15         24.8426   9.6118  -6.2595 C.2            1 RES1               0.0000
     16 C16         23.8573  12.4020  -0.7893 C.ar           1 RES1               0.0000
     17 O17         24.4896   9.6662  -7.4341 O.2            1 RES1               0.0000
     18 H18         27.2958   9.0736  -2.1482 H              1 RES1               0.0000
     19 H19         26.0289   7.8343  -2.1108 H              1 RES1               0.0000
     20 H20         24.3396  11.8220  -4.0763 H              1 RES1               0.0000
     21 H21         25.5120   9.4658  -0.6980 H              1 RES1               0.0000
     22 H22         23.2196   8.5352  -5.6457 H              1 RES1               0.0000
     23 H23         26.5478  10.7052  -6.4901 H              1 RES1               0.0000
     24 H24         28.0744   6.9778  -3.2058 H              1 RES1               0.0000
     25 H25         26.7456   7.0411  -4.3613 H              1 RES1               0.0000
     26 H26         28.0050   8.2730  -4.3985 H              1 RES1               0.0000
     27 H27         23.3357  13.4738  -2.5636 H              1 RES1               0.0000
     28 H28         24.5052  11.1260   0.7980 H              1 RES1               0.0000
     29 H29         23.4130  13.1342  -0.1232 H              1 RES1               0.0000
@<TRIPOS>BOND
    1    1    2 1     
    2    1    3 1     
    3    1    4 1     
    4    1    5 1     
    5    2    6 ar    
    6    2    7 ar    
    7    3    8 1     
    8    3    9 2     
    9    4   10 1     
   10    4   11 2     
   11    5   12 1     
   12    5   18 1     
   13    5   19 1     
   14    6   13 ar    
   15    6   20 1     
   16    7   14 ar    
   17    7   21 1     
   18    8   15 1     
   19    8   22 1     
   20   10   15 1     
   21   10   23 1     
   22   12   24 1     
   23   12   25 1     
   24   12   26 1     
   25   13   16 ar    
   26   13   27 1     
   27   14   16 ar    
   28   14   28 1     
   29   15   17 2     
   30   16   29 1     
@<TRIPOS>SUBSTRUCTURE
      1 RES1           1
@<TRIPOS>SET
DONOR_HYDROGENS      STATIC     ATOMS    <user>   **** ""
2 22 23
ATOM$RED        STATIC     ATOMS    COLORGROUP SYSTEM
2 22 23
@<TRIPOS>COMMENT
> <Gold.Version>
2022.3.0

> <Gold.Id.Protein>
unknown|3oog_clean|pdb

> <Gold.Protein.RotatedTorsions>
[ 3557 3548 3547 3545 ] final  -21.00 input   60.02 | X-H torsion
[ 3477 3468 3467 3465 ] final  -15.04 input   60.01 | X-H torsion
[ 3738 3729 3728 3726 ] final -176.64 input   59.99 | X-H torsion
[ 3042 3035 3033 3030 ] final -130.90 input   59.98 | X-H torsion
[ 4996 4987 4986 4984 ] final   63.33 input   60.02 | X-H torsion
[ 2507 2496 2495 2494 ] final    9.32 input   60.00 | X-H torsion
[ 1848 1843 1842 1839 ] final   -7.39 input   60.03 | X-H torsion
[ 3092 3083 3082 3080 ] final  -35.08 input   60.01 | X-H torsion
[  556  552  551  548 ] final  -78.14 input   60.01 | X-H torsion

> <Gold.Protein.ActiveResidues>
 LEU49   GLY50   THR51   GLY52   SER53   PHE54   LEU82   GLN84   HIS87   GLY126 
 GLU127  MET128  PHE129  SER130  HIS131  LEU132  ARG133  ARG134  ILE135  GLY136 
 ARG137  ARG165  ASP166  LEU167  LYS168  PRO169  GLU170  ASN171  LEU173  ASP184 
 GLY186  PHE187  TPO197  LEU198  CYS199  GLY200  THR201  PRO202  GLU203  TYR204 
 LEU205  ILE209  ILE210  VAL226  LEU227  TYR229  GLU230  ALA233  GLY234  TYR235 
 PRO236  PRO237  PHE238  PHE239  ALA240  ASP241  GLN242  PRO243  ILE244  GLN245 
 ILE246  TYR247  ARG256  PHE257  PRO258  SER259  ASN326  PHE327  ASP328  ASP329 
 TYR330 

> <Gold.Protein.RotatedAtoms>
   18.0759   11.7329    1.6256 H   0  0  0  0  0  0  0  0  0  0  0  0  # atno 556  bound_to 552 
   24.8936    4.4706  -11.6654 H   0  0  0  0  0  0  0  0  0  0  0  0  # atno 1848 bound_to 1843
   18.4271    3.3612   -0.5785 H   0  0  0  0  0  0  0  0  0  0  0  0  # atno 2507 bound_to 2496
   19.2525    4.6332    0.0898 H   0  0  0  0  0  0  0  0  0  0  0  0  # atno 2508 bound_to 2496
   18.8876    4.6397   -1.5279 H   0  0  0  0  0  0  0  0  0  0  0  0  # atno 2509 bound_to 2496
   17.6704    2.6979   -0.2144 H   0  0  0  0  0  0  0  0  0  0  0  0  # atno 3042 bound_to 3035
   20.4002   -4.5429   -4.3032 H   0  0  0  0  0  0  0  0  0  0  0  0  # atno 3092 bound_to 3083
   15.5752  -13.3984   -8.0002 H   0  0  0  0  0  0  0  0  0  0  0  0  # atno 3477 bound_to 3468
   15.8956  -14.1514  -11.0998 H   0  0  0  0  0  0  0  0  0  0  0  0  # atno 3557 bound_to 3548
    8.4885    0.9966    2.9866 H   0  0  0  0  0  0  0  0  0  0  0  0  # atno 3738 bound_to 3729
   23.2969   10.4088   -8.6537 H   0  0  0  0  0  0  0  0  0  0  0  0  # atno 4996 bound_to 4987
   16.8242  -13.9642  -12.4231 LP  0  0  0  0  0  0  0  0  0  0  0  0  # atno 5299 bound_to 3548
   15.2010  -13.8250  -12.5350 LP  0  0  0  0  0  0  0  0  0  0  0  0  # atno 5300 bound_to 3548
   15.3580  -14.5628   -6.8842 LP  0  0  0  0  0  0  0  0  0  0  0  0  # atno 5307 bound_to 3468
   16.3620  -14.8154   -8.1470 LP  0  0  0  0  0  0  0  0  0  0  0  0  # atno 5308 bound_to 3468
    9.4048    0.4932    1.7399 LP  0  0  0  0  0  0  0  0  0  0  0  0  # atno 5361 bound_to 3729
    9.9705    0.3870    3.2681 LP  0  0  0  0  0  0  0  0  0  0  0  0  # atno 5362 bound_to 3729
   18.4685    2.0405    1.0417 LP  0  0  0  0  0  0  0  0  0  0  0  0  # atno 5363 bound_to 3035
   17.0564    2.8230    1.2870 LP  0  0  0  0  0  0  0  0  0  0  0  0  # atno 5364 bound_to 3035
   22.8393   10.0176  -10.1653 LP  0  0  0  0  0  0  0  0  0  0  0  0  # atno 5373 bound_to 4987
   21.7148   10.2754   -9.0095 LP  0  0  0  0  0  0  0  0  0  0  0  0  # atno 5374 bound_to 4987
   25.7073    5.5576  -12.5628 LP  0  0  0  0  0  0  0  0  0  0  0  0  # atno 5381 bound_to 1843
   26.3330    5.0289  -11.1501 LP  0  0  0  0  0  0  0  0  0  0  0  0  # atno 5382 bound_to 1843
   21.4959   -5.3814   -3.4402 LP  0  0  0  0  0  0  0  0  0  0  0  0  # atno 5411 bound_to 3083
   21.7210   -3.7891   -3.7239 LP  0  0  0  0  0  0  0  0  0  0  0  0  # atno 5412 bound_to 3083
   17.6410   11.9120    3.1834 LP  0  0  0  0  0  0  0  0  0  0  0  0  # atno 5419 bound_to 552 
   18.3772   13.1362    2.3922 LP  0  0  0  0  0  0  0  0  0  0  0  0  # atno 5420 bound_to 552 

> <Gold.Score>
     Fitness  S(hb_ext) S(vdw_ext)  S(hb_int)    S(int)      intcor
     33.12       2.31      22.45       0.00      -0.06      -0.79

> <Gold.Goldscore.Fitness>
33.1210

> <Gold.Goldscore.Internal.Vdw>
-0.3048

> <Gold.Goldscore.Internal.Torsion>
-0.5416

> <Gold.Goldscore.External.Vdw>
22.4519

> <Gold.Goldscore.Internal.HBond>
0.0000

> <Gold.Goldscore.External.HBond>
2.3068

> <Gold.Goldscore.Internal.Correction>
-0.7893

> <Gold.Goldscore.Hbonds>
donor molecule, donor type, donor heavy atom, donor atom, acceptor molecule, acceptor atom, score
      P1  H  4987  4996       L1    17  0.99
      L1  H    10    23       P1   503  0.17

> <Gold.Goldscore.Internal.Vdw.Weighted>
-0.3048

> <Gold.Goldscore.Internal.Torsion.Weighted>
-0.5416

> <Gold.Goldscore.External.Vdw.Weighted>
30.8713

> <Gold.Goldscore.Internal.HBond.Weighted>
0.0000

> <Gold.Goldscore.External.HBond.Weighted>
2.3068

> <Gold.Goldscore.Internal.Correction.Weighted>
-0.7893

> <Gold.Rescore>
     Score     S(PLP)   S(hbond)     S(cho)   S(metal)  DE(clash)   DE(tors)     intcor
     31.75     -26.32       1.96       0.00       0.00       0.00       0.22       ----

> <Gold.PLP.Fitness>
31.7487

> <Gold.PLP.PLP>
-26.3182

> <Gold.PLP.part.hbond>
-3.2764

> <Gold.PLP.part.metal>
0.0000

> <Gold.PLP.part.buried>
-0.7497

> <Gold.PLP.part.nonpolar>
-25.7657

> <Gold.PLP.part.repulsive>
1.6734

> <Gold.PLP.ligand.clash>
0.0000

> <Gold.PLP.ligand.torsion>
0.2247

> <Gold.PLP.Chemscore.Hbond>
1.9600

> <Gold.PLP.Chemscore.CHOScore>
0.0000

> <Gold.PLP.Chemscore.Metal>
0.0000

> <Gold.Chemscore.Hbonds>
donor molecule, donor type, donor heavy atom, donor atom, acceptor molecule, acceptor atom, score
      L1  H    10    23       P1   503  0.78
      P1  H  4987  4996       L1    17  1.00

> <Gold.PLP.Chemscore.Internal.Correction>
   9.000000E+99

