#       Name:                CT1002167954
#       Creating user name   hitesit
#       Creation time:       Sun Apr 16 20:16:13 2023


#       File generated by GOLD software.
#

@<TRIPOS>MOLECULE
CT1002167954|ligand_prepared|mol2|1|dock7
    29    30     1
SMALL
NO_CHARGES


@<TRIPOS>ATOM
      1 C1          19.1338   8.9343   2.4127 C.3            1 RES1               0.0000
      2 C2          19.9772   9.7903   1.4458 C.ar           1 RES1               0.0000
      3 C3          19.7277   7.5294   2.3704 C.2            1 RES1               0.0000
      4 C4          19.2307   9.6100   3.7760 C.2            1 RES1               0.0000
      5 C5          17.6385   8.8472   2.0279 C.3            1 RES1               0.0000
      6 C6          19.7676   9.7215   0.0717 C.ar           1 RES1               0.0000
      7 C7          20.9648  10.6537   1.9124 C.ar           1 RES1               0.0000
      8 N8          20.4591   7.1200   3.4463 N.am           1 RES1               0.0000
      9 O9          19.5897   6.8065   1.3914 O.2            1 RES1               0.0000
     10 N10         19.8681   8.9345   4.7836 N.am           1 RES1               0.0000
     11 O11         18.7755  10.7283   3.9823 O.2            1 RES1               0.0000
     12 C12         16.7584   8.2555   3.1176 C.3            1 RES1               0.0000
     13 C13         20.5162  10.4902  -0.8041 C.ar           1 RES1               0.0000
     14 C14         21.7125  11.4214   1.0348 C.ar           1 RES1               0.0000
     15 C15         20.5136   7.7331   4.6722 C.2            1 RES1               0.0000
     16 C16         21.4887  11.3409  -0.3232 C.ar           1 RES1               0.0000
     17 O17         21.1113   7.2145   5.6107 O.2            1 RES1               0.0000
     18 H18         17.2760   9.8547   1.7894 H              1 RES1               0.0000
     19 H19         17.5417   8.2334   1.1238 H              1 RES1               0.0000
     20 H20         19.0084   9.0559  -0.3253 H              1 RES1               0.0000
     21 H21         21.1590  10.7325   2.9767 H              1 RES1               0.0000
     22 H22         21.0171   6.2804   3.3284 H              1 RES1               0.0000
     23 H23         19.8606   9.3672   5.7017 H              1 RES1               0.0000
     24 H24         15.7197   8.2172   2.7961 H              1 RES1               0.0000
     25 H25         17.0750   7.2437   3.3621 H              1 RES1               0.0000
     26 H26         16.8108   8.8554   4.0238 H              1 RES1               0.0000
     27 H27         20.3371  10.4222  -1.8720 H              1 RES1               0.0000
     28 H28         22.4772  12.0891   1.4176 H              1 RES1               0.0000
     29 H29         22.0747  11.9433  -1.0095 H              1 RES1               0.0000
@<TRIPOS>BOND
    1    1    2 1     
    2    1    3 1     
    3    1    4 1     
    4    1    5 1     
    5    2    6 ar    
    6    2    7 ar    
    7    3    8 1     
    8    3    9 2     
    9    4   10 1     
   10    4   11 2     
   11    5   12 1     
   12    5   18 1     
   13    5   19 1     
   14    6   13 ar    
   15    6   20 1     
   16    7   14 ar    
   17    7   21 1     
   18    8   15 1     
   19    8   22 1     
   20   10   15 1     
   21   10   23 1     
   22   12   24 1     
   23   12   25 1     
   24   12   26 1     
   25   13   16 ar    
   26   13   27 1     
   27   14   16 ar    
   28   14   28 1     
   29   15   17 2     
   30   16   29 1     
@<TRIPOS>SUBSTRUCTURE
      1 RES1           1
@<TRIPOS>SET
DONOR_HYDROGENS      STATIC     ATOMS    <user>   **** ""
2 22 23
ATOM$RED        STATIC     ATOMS    COLORGROUP SYSTEM
2 22 23
@<TRIPOS>COMMENT
> <Gold.Version>
2022.3.0

> <Gold.Id.Protein>
unknown|3oog_clean|pdb

> <Gold.Protein.RotatedTorsions>
[ 3557 3548 3547 3545 ] final  110.68 input   60.02 | X-H torsion
[ 3477 3468 3467 3465 ] final   55.40 input   60.01 | X-H torsion
[ 3738 3729 3728 3726 ] final -110.17 input   59.99 | X-H torsion
[ 3042 3035 3033 3030 ] final  122.79 input   59.98 | X-H torsion
[ 4996 4987 4986 4984 ] final  164.02 input   60.02 | X-H torsion
[ 2507 2496 2495 2494 ] final  154.79 input   60.00 | X-H torsion
[ 1848 1843 1842 1839 ] final   80.10 input   60.03 | X-H torsion
[ 3092 3083 3082 3080 ] final -179.42 input   60.01 | X-H torsion
[  556  552  551  548 ] final   60.58 input   60.01 | X-H torsion

> <Gold.Protein.ActiveResidues>
 LEU49   GLY50   THR51   GLY52   SER53   PHE54   LEU82   GLN84   HIS87   GLY126 
 GLU127  MET128  PHE129  SER130  HIS131  LEU132  ARG133  ARG134  ILE135  GLY136 
 ARG137  ARG165  ASP166  LEU167  LYS168  PRO169  GLU170  ASN171  LEU173  ASP184 
 GLY186  PHE187  TPO197  LEU198  CYS199  GLY200  THR201  PRO202  GLU203  TYR204 
 LEU205  ILE209  ILE210  VAL226  LEU227  TYR229  GLU230  ALA233  GLY234  TYR235 
 PRO236  PRO237  PHE238  PHE239  ALA240  ASP241  GLN242  PRO243  ILE244  GLN245 
 ILE246  TYR247  ARG256  PHE257  PRO258  SER259  ASN326  PHE327  ASP328  ASP329 
 TYR330 

> <Gold.Protein.RotatedAtoms>
   18.2745   13.1182    2.6795 H   0  0  0  0  0  0  0  0  0  0  0  0  # atno 556  bound_to 552 
   25.9693    4.6898  -10.9782 H   0  0  0  0  0  0  0  0  0  0  0  0  # atno 1848 bound_to 1843
   19.3280    4.9097   -0.2204 H   0  0  0  0  0  0  0  0  0  0  0  0  # atno 2507 bound_to 2496
   18.6797    4.2822   -1.6104 H   0  0  0  0  0  0  0  0  0  0  0  0  # atno 2508 bound_to 2496
   18.5591    3.4415   -0.1861 H   0  0  0  0  0  0  0  0  0  0  0  0  # atno 2509 bound_to 2496
   18.5246    2.0392    0.8248 H   0  0  0  0  0  0  0  0  0  0  0  0  # atno 3042 bound_to 3035
   21.7804   -5.1258   -3.3374 H   0  0  0  0  0  0  0  0  0  0  0  0  # atno 3092 bound_to 3083
   16.2446  -14.1056   -8.4676 H   0  0  0  0  0  0  0  0  0  0  0  0  # atno 3477 bound_to 3468
   15.3302  -13.8046  -12.6746 H   0  0  0  0  0  0  0  0  0  0  0  0  # atno 3557 bound_to 3548
    9.2645    0.7178    3.5968 H   0  0  0  0  0  0  0  0  0  0  0  0  # atno 3738 bound_to 3729
   21.8596   10.3488   -8.7392 H   0  0  0  0  0  0  0  0  0  0  0  0  # atno 4996 bound_to 4987
   15.7068  -14.1353  -11.1263 LP  0  0  0  0  0  0  0  0  0  0  0  0  # atno 5299 bound_to 3548
   16.8877  -14.0032  -12.2464 LP  0  0  0  0  0  0  0  0  0  0  0  0  # atno 5300 bound_to 3548
   15.1983  -13.5860   -7.3345 LP  0  0  0  0  0  0  0  0  0  0  0  0  # atno 5307 bound_to 3468
   15.8478  -15.0803   -7.2262 LP  0  0  0  0  0  0  0  0  0  0  0  0  # atno 5308 bound_to 3468
    8.5463    0.8987    2.1481 LP  0  0  0  0  0  0  0  0  0  0  0  0  # atno 5361 bound_to 3729
   10.0471    0.2624    2.2451 LP  0  0  0  0  0  0  0  0  0  0  0  0  # atno 5362 bound_to 3729
   17.1845    2.7242    1.4429 LP  0  0  0  0  0  0  0  0  0  0  0  0  # atno 5363 bound_to 3035
   17.4798    2.8030   -0.1612 LP  0  0  0  0  0  0  0  0  0  0  0  0  # atno 5364 bound_to 3035
   23.4783   10.3491   -8.9045 LP  0  0  0  0  0  0  0  0  0  0  0  0  # atno 5373 bound_to 4987
   22.5239   10.0045  -10.1840 LP  0  0  0  0  0  0  0  0  0  0  0  0  # atno 5374 bound_to 4987
   24.8117    4.7189  -12.1219 LP  0  0  0  0  0  0  0  0  0  0  0  0  # atno 5381 bound_to 1843
   26.1457    5.6469  -12.2827 LP  0  0  0  0  0  0  0  0  0  0  0  0  # atno 5382 bound_to 1843
   21.4131   -3.6591   -3.9393 LP  0  0  0  0  0  0  0  0  0  0  0  0  # atno 5411 bound_to 3083
   20.4136   -4.9244   -4.1975 LP  0  0  0  0  0  0  0  0  0  0  0  0  # atno 5412 bound_to 3083
   18.2118   11.9833    1.5151 LP  0  0  0  0  0  0  0  0  0  0  0  0  # atno 5419 bound_to 552 
   17.6062   11.6693    2.9988 LP  0  0  0  0  0  0  0  0  0  0  0  0  # atno 5420 bound_to 552 

> <Gold.Score>
     Fitness  S(hb_ext) S(vdw_ext)  S(hb_int)    S(int)      intcor
     33.52       7.93      19.34       0.00      -1.01      -0.76

> <Gold.Goldscore.Fitness>
33.5175

> <Gold.Goldscore.Internal.Vdw>
-1.1820

> <Gold.Goldscore.Internal.Torsion>
-0.5864

> <Gold.Goldscore.External.Vdw>
19.3426

> <Gold.Goldscore.Internal.HBond>
0.0000

> <Gold.Goldscore.External.HBond>
7.9313

> <Gold.Goldscore.Internal.Correction>
-0.7585

> <Gold.Goldscore.Hbonds>
donor molecule, donor type, donor heavy atom, donor atom, acceptor molecule, acceptor atom, score
      P1  H  2496  2507       L1     9  1.00
      L1  H     8    22       P1  2464  0.32

> <Gold.Goldscore.Internal.Vdw.Weighted>
-1.1820

> <Gold.Goldscore.Internal.Torsion.Weighted>
-0.5864

> <Gold.Goldscore.External.Vdw.Weighted>
26.5961

> <Gold.Goldscore.Internal.HBond.Weighted>
0.0000

> <Gold.Goldscore.External.HBond.Weighted>
7.9313

> <Gold.Goldscore.Internal.Correction.Weighted>
-0.7585

> <Gold.Rescore>
     Score     S(PLP)   S(hbond)     S(cho)   S(metal)  DE(clash)   DE(tors)     intcor
     25.21     -21.10       2.00       0.00       0.00       0.48       0.70       ----

> <Gold.PLP.Fitness>
25.2124

> <Gold.PLP.PLP>
-21.0980

> <Gold.PLP.part.hbond>
-3.3715

> <Gold.PLP.part.metal>
0.0000

> <Gold.PLP.part.buried>
-2.4079

> <Gold.PLP.part.nonpolar>
-16.6976

> <Gold.PLP.part.repulsive>
0.5532

> <Gold.PLP.ligand.clash>
0.4755

> <Gold.PLP.ligand.torsion>
0.7050

> <Gold.PLP.Chemscore.Hbond>
2.0000

> <Gold.PLP.Chemscore.CHOScore>
0.0000

> <Gold.PLP.Chemscore.Metal>
0.0000

> <Gold.Chemscore.Hbonds>
donor molecule, donor type, donor heavy atom, donor atom, acceptor molecule, acceptor atom, score
      L1  H     8    22       P1  2464  0.75

> <Gold.PLP.Chemscore.Internal.Correction>
   9.000000E+99

