#       Name:                CT1002167954
#       Creating user name   hitesit
#       Creation time:       Sun Apr 16 20:16:11 2023


#       File generated by GOLD software.
#

@<TRIPOS>MOLECULE
CT1002167954|ligand_prepared|mol2|1|dock6
    29    30     1
SMALL
NO_CHARGES


@<TRIPOS>ATOM
      1 C1          21.9537   8.8596  -4.3120 C.3            1 RES1               0.0000
      2 C2          22.4452  10.1625  -3.6490 C.ar           1 RES1               0.0000
      3 C3          22.4800   7.7154  -3.4505 C.2            1 RES1               0.0000
      4 C4          20.4327   8.9530  -4.3607 C.2            1 RES1               0.0000
      5 C5          22.4667   8.6621  -5.7575 C.3            1 RES1               0.0000
      6 C6          21.7279  10.7411  -2.6061 C.ar           1 RES1               0.0000
      7 C7          23.6131  10.7949  -4.0667 C.ar           1 RES1               0.0000
      8 N8          21.5852   7.0567  -2.6597 N.am           1 RES1               0.0000
      9 O9          23.6690   7.4215  -3.4354 O.2            1 RES1               0.0000
     10 N10         19.7104   8.0639  -3.6087 N.am           1 RES1               0.0000
     11 O11         19.8534   9.7993  -5.0304 O.2            1 RES1               0.0000
     12 C12         21.7624   7.5446  -6.5108 C.3            1 RES1               0.0000
     13 C13         22.1641  11.9080  -2.0007 C.ar           1 RES1               0.0000
     14 C14         24.0474  11.9619  -3.4601 C.ar           1 RES1               0.0000
     15 C15         20.2182   7.1398  -2.7366 C.2            1 RES1               0.0000
     16 C16         23.3241  12.5189  -2.4269 C.ar           1 RES1               0.0000
     17 O17         19.5028   6.4121  -2.0541 O.2            1 RES1               0.0000
     18 H18         22.3329   9.5998  -6.3109 H              1 RES1               0.0000
     19 H19         23.5411   8.4428  -5.7241 H              1 RES1               0.0000
     20 H20         20.8114  10.2760  -2.2588 H              1 RES1               0.0000
     21 H21         24.1977  10.3753  -4.8784 H              1 RES1               0.0000
     22 H22         21.9679   6.4458  -1.9451 H              1 RES1               0.0000
     23 H23         18.7007   8.0935  -3.7083 H              1 RES1               0.0000
     24 H24         22.1602   7.4486  -7.5189 H              1 RES1               0.0000
     25 H25         21.8960   6.5924  -6.0017 H              1 RES1               0.0000
     26 H26         20.6951   7.7424  -6.5849 H              1 RES1               0.0000
     27 H27         21.5905  12.3431  -1.1890 H              1 RES1               0.0000
     28 H28         24.9606  12.4396  -3.7992 H              1 RES1               0.0000
     29 H29         23.6658  13.4328  -1.9523 H              1 RES1               0.0000
@<TRIPOS>BOND
    1    1    2 1     
    2    1    3 1     
    3    1    4 1     
    4    1    5 1     
    5    2    6 ar    
    6    2    7 ar    
    7    3    8 1     
    8    3    9 2     
    9    4   10 1     
   10    4   11 2     
   11    5   12 1     
   12    5   18 1     
   13    5   19 1     
   14    6   13 ar    
   15    6   20 1     
   16    7   14 ar    
   17    7   21 1     
   18    8   15 1     
   19    8   22 1     
   20   10   15 1     
   21   10   23 1     
   22   12   24 1     
   23   12   25 1     
   24   12   26 1     
   25   13   16 ar    
   26   13   27 1     
   27   14   16 ar    
   28   14   28 1     
   29   15   17 2     
   30   16   29 1     
@<TRIPOS>SUBSTRUCTURE
      1 RES1           1
@<TRIPOS>SET
DONOR_HYDROGENS      STATIC     ATOMS    <user>   **** ""
2 22 23
ATOM$RED        STATIC     ATOMS    COLORGROUP SYSTEM
2 22 23
@<TRIPOS>COMMENT
> <Gold.Version>
2022.3.0

> <Gold.Id.Protein>
unknown|3oog_clean|pdb

> <Gold.Protein.RotatedTorsions>
[ 3557 3548 3547 3545 ] final  -29.60 input   60.02 | X-H torsion
[ 3477 3468 3467 3465 ] final  159.55 input   60.01 | X-H torsion
[ 3738 3729 3728 3726 ] final   89.82 input   59.99 | X-H torsion
[ 3042 3035 3033 3030 ] final -113.86 input   59.98 | X-H torsion
[ 4996 4987 4986 4984 ] final  158.40 input   60.02 | X-H torsion
[ 2507 2496 2495 2494 ] final -140.27 input   60.00 | X-H torsion
[ 1848 1843 1842 1839 ] final  -15.32 input   60.03 | X-H torsion
[ 3092 3083 3082 3080 ] final    3.13 input   60.01 | X-H torsion
[  556  552  551  548 ] final  -65.78 input   60.01 | X-H torsion

> <Gold.Protein.ActiveResidues>
 LEU49   GLY50   THR51   GLY52   SER53   PHE54   LEU82   GLN84   HIS87   GLY126 
 GLU127  MET128  PHE129  SER130  HIS131  LEU132  ARG133  ARG134  ILE135  GLY136 
 ARG137  ARG165  ASP166  LEU167  LYS168  PRO169  GLU170  ASN171  LEU173  ASP184 
 GLY186  PHE187  TPO197  LEU198  CYS199  GLY200  THR201  PRO202  GLU203  TYR204 
 LEU205  ILE209  ILE210  VAL226  LEU227  TYR229  GLU230  ALA233  GLY234  TYR235 
 PRO236  PRO237  PHE238  PHE239  ALA240  ASP241  GLN242  PRO243  ILE244  GLN245 
 ILE246  TYR247  ARG256  PHE257  PRO258  SER259  ASN326  PHE327  ASP328  ASP329 
 TYR330 

> <Gold.Protein.RotatedAtoms>
   18.1651   11.8953    1.5464 H   0  0  0  0  0  0  0  0  0  0  0  0  # atno 556  bound_to 552 
   24.8512    4.5177  -11.7785 H   0  0  0  0  0  0  0  0  0  0  0  0  # atno 1848 bound_to 1843
   19.1185    4.9462   -1.2252 H   0  0  0  0  0  0  0  0  0  0  0  0  # atno 2507 bound_to 2496
   18.3788    3.4734   -1.0523 H   0  0  0  0  0  0  0  0  0  0  0  0  # atno 2508 bound_to 2496
   19.0695    4.2137    0.2611 H   0  0  0  0  0  0  0  0  0  0  0  0  # atno 2509 bound_to 2496
   17.4359    2.8215   -0.1330 H   0  0  0  0  0  0  0  0  0  0  0  0  # atno 3042 bound_to 3035
   20.6521   -3.9841   -4.3008 H   0  0  0  0  0  0  0  0  0  0  0  0  # atno 3092 bound_to 3083
   16.0101  -15.1241   -7.4235 H   0  0  0  0  0  0  0  0  0  0  0  0  # atno 3477 bound_to 3468
   16.0358  -14.1614  -11.1006 H   0  0  0  0  0  0  0  0  0  0  0  0  # atno 3557 bound_to 3548
    9.0111    0.6632    1.7719 H   0  0  0  0  0  0  0  0  0  0  0  0  # atno 3738 bound_to 3729
   21.9169   10.3676   -8.6699 H   0  0  0  0  0  0  0  0  0  0  0  0  # atno 4996 bound_to 4987
   16.7547  -13.9359  -12.5431 LP  0  0  0  0  0  0  0  0  0  0  0  0  # atno 5299 bound_to 3548
   15.1294  -13.8433  -12.4143 LP  0  0  0  0  0  0  0  0  0  0  0  0  # atno 5300 bound_to 3548
   16.1252  -13.8756   -8.4611 LP  0  0  0  0  0  0  0  0  0  0  0  0  # atno 5307 bound_to 3468
   15.1570  -13.7653   -7.1507 LP  0  0  0  0  0  0  0  0  0  0  0  0  # atno 5308 bound_to 3468
   10.1358    0.2815    2.8839 LP  0  0  0  0  0  0  0  0  0  0  0  0  # atno 5361 bound_to 3729
    8.7129    0.9346    3.3482 LP  0  0  0  0  0  0  0  0  0  0  0  0  # atno 5362 bound_to 3729
   18.5402    2.0410    0.7717 LP  0  0  0  0  0  0  0  0  0  0  0  0  # atno 5363 bound_to 3035
   17.2210    2.6980    1.4750 LP  0  0  0  0  0  0  0  0  0  0  0  0  # atno 5364 bound_to 3035
   23.5120   10.3291   -8.9883 LP  0  0  0  0  0  0  0  0  0  0  0  0  # atno 5373 bound_to 4987
   22.4325   10.0055  -10.1701 LP  0  0  0  0  0  0  0  0  0  0  0  0  # atno 5374 bound_to 4987
   25.8219    5.5971  -12.5145 LP  0  0  0  0  0  0  0  0  0  0  0  0  # atno 5381 bound_to 1843
   26.2610    4.9420  -11.0846 LP  0  0  0  0  0  0  0  0  0  0  0  0  # atno 5382 bound_to 1843
   20.9599   -5.4772   -3.7311 LP  0  0  0  0  0  0  0  0  0  0  0  0  # atno 5411 bound_to 3083
   22.0032   -4.2562   -3.4354 LP  0  0  0  0  0  0  0  0  0  0  0  0  # atno 5412 bound_to 3083
   17.6131   11.7461    3.0698 LP  0  0  0  0  0  0  0  0  0  0  0  0  # atno 5419 bound_to 552 
   18.3152   13.1386    2.5855 LP  0  0  0  0  0  0  0  0  0  0  0  0  # atno 5420 bound_to 552 

> <Gold.Score>
     Fitness  S(hb_ext) S(vdw_ext)  S(hb_int)    S(int)      intcor
     32.25       6.14      19.15       0.00      -0.22      -0.76

> <Gold.Goldscore.Fitness>
32.2468

> <Gold.Goldscore.Internal.Vdw>
-0.3906

> <Gold.Goldscore.Internal.Torsion>
-0.5924

> <Gold.Goldscore.External.Vdw>
19.1478

> <Gold.Goldscore.Internal.HBond>
0.0000

> <Gold.Goldscore.External.HBond>
6.1431

> <Gold.Goldscore.Internal.Correction>
-0.7585

> <Gold.Goldscore.Hbonds>
donor molecule, donor type, donor heavy atom, donor atom, acceptor molecule, acceptor atom, score
      P1  H  2496  2507       L1    17  1.00
      L1  H     8    22       P1  2546  0.08

> <Gold.Goldscore.Internal.Vdw.Weighted>
-0.3906

> <Gold.Goldscore.Internal.Torsion.Weighted>
-0.5924

> <Gold.Goldscore.External.Vdw.Weighted>
26.3282

> <Gold.Goldscore.Internal.HBond.Weighted>
0.0000

> <Gold.Goldscore.External.HBond.Weighted>
6.1431

> <Gold.Goldscore.Internal.Correction.Weighted>
-0.7585

> <Gold.Rescore>
     Score     S(PLP)   S(hbond)     S(cho)   S(metal)  DE(clash)   DE(tors)     intcor
     21.98     -20.82       1.26       0.00       0.00       0.00       1.31       ----

> <Gold.PLP.Fitness>
21.9766

> <Gold.PLP.PLP>
-20.8165

> <Gold.PLP.part.hbond>
-2.0000

> <Gold.PLP.part.metal>
0.0000

> <Gold.PLP.part.buried>
-1.1889

> <Gold.PLP.part.nonpolar>
-21.2829

> <Gold.PLP.part.repulsive>
3.4086

> <Gold.PLP.ligand.clash>
0.0000

> <Gold.PLP.ligand.torsion>
1.3131

> <Gold.PLP.Chemscore.Hbond>
1.2621

> <Gold.PLP.Chemscore.CHOScore>
0.0000

> <Gold.PLP.Chemscore.Metal>
0.0000

> <Gold.Chemscore.Hbonds>
donor molecule, donor type, donor heavy atom, donor atom, acceptor molecule, acceptor atom, score
      P1  H  2496  2507       L1    17  1.00

> <Gold.PLP.Chemscore.Internal.Correction>
   9.000000E+99

