#       Name:                CT1002167954
#       Creating user name   hitesit
#       Creation time:       Sun Apr 16 20:16:21 2023


#       File generated by GOLD software.
#

@<TRIPOS>MOLECULE
CT1002167954|ligand_prepared|mol2|1|dock4
    29    30     1
SMALL
NO_CHARGES


@<TRIPOS>ATOM
      1 C1          31.8662  27.5199  -3.8785 C.3            1 RES1               0.0000
      2 C2          31.6866  26.0277  -3.5323 C.ar           1 RES1               0.0000
      3 C3          32.0721  28.2456  -2.5521 C.2            1 RES1               0.0000
      4 C4          33.0610  27.5980  -4.8224 C.2            1 RES1               0.0000
      5 C5          30.6480  28.1456  -4.5969 C.3            1 RES1               0.0000
      6 C6          30.4149  25.4708  -3.4353 C.ar           1 RES1               0.0000
      7 C7          32.7812  25.1962  -3.3102 C.ar           1 RES1               0.0000
      8 N8          33.3309  28.6807  -2.2587 N.am           1 RES1               0.0000
      9 O9          31.1522  28.3989  -1.7581 O.2            1 RES1               0.0000
     10 N10         34.1859  28.2449  -4.3821 N.am           1 RES1               0.0000
     11 O11         33.0443  27.0909  -5.9372 O.2            1 RES1               0.0000
     12 C12         30.9263  29.5155  -5.1954 C.3            1 RES1               0.0000
     13 C13         30.2436  24.1307  -3.1303 C.ar           1 RES1               0.0000
     14 C14         32.6076  23.8564  -3.0051 C.ar           1 RES1               0.0000
     15 C15         34.3859  28.7630  -3.1316 C.2            1 RES1               0.0000
     16 C16         31.3397  23.3225  -2.9155 C.ar           1 RES1               0.0000
     17 O17         35.4457  29.2818  -2.7928 O.2            1 RES1               0.0000
     18 H18         30.3248  27.4693  -5.3978 H              1 RES1               0.0000
     19 H19         29.8226  28.2347  -3.8798 H              1 RES1               0.0000
     20 H20         29.5404  26.0918  -3.5986 H              1 RES1               0.0000
     21 H21         33.7880  25.5948  -3.3744 H              1 RES1               0.0000
     22 H22         33.5038  28.9717  -1.3018 H              1 RES1               0.0000
     23 H23         34.9445  28.3500  -5.0483 H              1 RES1               0.0000
     24 H24         30.0391  29.9089  -5.6872 H              1 RES1               0.0000
     25 H25         31.2262  30.2203  -4.4227 H              1 RES1               0.0000
     26 H26         31.7253  29.4595  -5.9318 H              1 RES1               0.0000
     27 H27         29.2436  23.7157  -3.0596 H              1 RES1               0.0000
     28 H28         33.4731  23.2242  -2.8362 H              1 RES1               0.0000
     29 H29         31.2052  22.2726  -2.6770 H              1 RES1               0.0000
@<TRIPOS>BOND
    1    1    2 1     
    2    1    3 1     
    3    1    4 1     
    4    1    5 1     
    5    2    6 ar    
    6    2    7 ar    
    7    3    8 1     
    8    3    9 2     
    9    4   10 1     
   10    4   11 2     
   11    5   12 1     
   12    5   18 1     
   13    5   19 1     
   14    6   13 ar    
   15    6   20 1     
   16    7   14 ar    
   17    7   21 1     
   18    8   15 1     
   19    8   22 1     
   20   10   15 1     
   21   10   23 1     
   22   12   24 1     
   23   12   25 1     
   24   12   26 1     
   25   13   16 ar    
   26   13   27 1     
   27   14   16 ar    
   28   14   28 1     
   29   15   17 2     
   30   16   29 1     
@<TRIPOS>SUBSTRUCTURE
      1 RES1           1
@<TRIPOS>SET
DONOR_HYDROGENS      STATIC     ATOMS    <user>   **** ""
2 22 23
ATOM$RED        STATIC     ATOMS    COLORGROUP SYSTEM
2 22 23
@<TRIPOS>COMMENT
> <Gold.Version>
2022.3.0

> <Gold.Id.Protein>
unknown|3nx8_clean|pdb

> <Gold.Protein.RotatedTorsions>
[ 1667 1658 1657 1655 ] final  -11.97 input   59.99 | X-H torsion
[  510  504  502  499 ] final -178.34 input   60.04 | X-H torsion

> <Gold.Protein.ActiveResidues>
 HIS39   LEU40   ASP41   GLN42   PHE43   GLU44   ARG45   ILE46   LYS47   THR48  
 MET58   LEU59   VAL60   LYS61   HIS62   LYS63   MET71   ILE73   PHE110  ASP112 
 ASN115  TYR117  VAL119  GLU333  GLU334  ILE335  ARG336  VAL337 

> <Gold.Protein.RotatedAtoms>
   24.3877   19.3814   -7.9936 H   0  0  0  0  0  0  0  0  0  0  0  0  # atno 510  bound_to 504 
   27.2225   26.1986    3.5891 H   0  0  0  0  0  0  0  0  0  0  0  0  # atno 1667 bound_to 1658
   26.8378   25.4726    2.1849 LP  0  0  0  0  0  0  0  0  0  0  0  0  # atno 5360 bound_to 1658
   28.1993   26.3669    2.2989 LP  0  0  0  0  0  0  0  0  0  0  0  0  # atno 5361 bound_to 1658

> <Gold.Score>
     Fitness  S(hb_ext) S(vdw_ext)  S(hb_int)    S(int)      intcor
     37.50       0.39      27.37       0.00      -0.53      -0.77

> <Gold.Goldscore.Fitness>
37.4997

> <Gold.Goldscore.Internal.Vdw>
-0.7046

> <Gold.Goldscore.Internal.Torsion>
-0.5916

> <Gold.Goldscore.External.Vdw>
27.3721

> <Gold.Goldscore.Internal.HBond>
0.0000

> <Gold.Goldscore.External.HBond>
0.3940

> <Gold.Goldscore.Internal.Correction>
-0.7653

> <Gold.Goldscore.Hbonds>
donor molecule, donor type, donor heavy atom, donor atom, acceptor molecule, acceptor atom, score
      P1  H   433   448       L1    11  0.20

> <Gold.Goldscore.Internal.Vdw.Weighted>
-0.7046

> <Gold.Goldscore.Internal.Torsion.Weighted>
-0.5916

> <Gold.Goldscore.External.Vdw.Weighted>
37.6367

> <Gold.Goldscore.Internal.HBond.Weighted>
0.0000

> <Gold.Goldscore.External.HBond.Weighted>
0.3940

> <Gold.Goldscore.Internal.Correction.Weighted>
-0.7653

> <Gold.Rescore>
     Score     S(PLP)   S(hbond)     S(cho)   S(metal)  DE(clash)   DE(tors)     intcor
     37.65     -35.69       1.00       0.00       0.00       0.00       0.52       ----

> <Gold.PLP.Fitness>
37.6498

> <Gold.PLP.PLP>
-35.6866

> <Gold.PLP.part.hbond>
-1.9844

> <Gold.PLP.part.metal>
0.0000

> <Gold.PLP.part.buried>
0.0280

> <Gold.PLP.part.nonpolar>
-34.7592

> <Gold.PLP.part.repulsive>
0.3657

> <Gold.PLP.ligand.clash>
0.0000

> <Gold.PLP.ligand.torsion>
0.5184

> <Gold.PLP.Chemscore.Hbond>
1.0000

> <Gold.PLP.Chemscore.CHOScore>
0.0000

> <Gold.PLP.Chemscore.Metal>
0.0000

> <Gold.Chemscore.Hbonds>
donor molecule, donor type, donor heavy atom, donor atom, acceptor molecule, acceptor atom, score
      L1  H     8    22       P1   360  0.02
      P1  H   433   448       L1    11  0.78

> <Gold.PLP.Chemscore.Internal.Correction>
   9.000000E+99

