#       Name:                CT1002167954
#       Creating user name   hitesit
#       Creation time:       Sun Apr 16 20:16:20 2023


#       File generated by GOLD software.
#

@<TRIPOS>MOLECULE
CT1002167954|ligand_prepared|mol2|1|dock3
    29    30     1
SMALL
NO_CHARGES


@<TRIPOS>ATOM
      1 C1          30.6718  27.6214  -4.1610 C.3            1 RES1               0.0000
      2 C2          31.2373  26.2593  -3.7094 C.ar           1 RES1               0.0000
      3 C3          31.8769  28.4989  -4.4864 C.2            1 RES1               0.0000
      4 C4          29.7706  27.3338  -5.3567 C.2            1 RES1               0.0000
      5 C5          29.8223  28.3337  -3.0828 C.3            1 RES1               0.0000
      6 C6          30.4064  25.3029  -3.1336 C.ar           1 RES1               0.0000
      7 C7          32.5847  25.9444  -3.8643 C.ar           1 RES1               0.0000
      8 N8          32.1447  28.7423  -5.8013 N.am           1 RES1               0.0000
      9 O9          32.6043  28.9382  -3.6043 O.2            1 RES1               0.0000
     10 N10         30.1460  27.8300  -6.5777 N.am           1 RES1               0.0000
     11 O11         28.7475  26.6681  -5.2557 O.2            1 RES1               0.0000
     12 C12         29.3497  29.7199  -3.4916 C.3            1 RES1               0.0000
     13 C13         30.9038  24.0749  -2.7299 C.ar           1 RES1               0.0000
     14 C14         33.0801  24.7158  -3.4597 C.ar           1 RES1               0.0000
     15 C15         31.3080  28.4951  -6.8599 C.2            1 RES1               0.0000
     16 C16         32.2407  23.7804  -2.8931 C.ar           1 RES1               0.0000
     17 O17         31.6006  28.8625  -7.9941 O.2            1 RES1               0.0000
     18 H18         28.9456  27.7139  -2.8576 H              1 RES1               0.0000
     19 H19         30.4168  28.4198  -2.1648 H              1 RES1               0.0000
     20 H20         29.3521  25.5177  -2.9949 H              1 RES1               0.0000
     21 H21         33.2638  26.6653  -4.3067 H              1 RES1               0.0000
     22 H22         33.0509  29.1452  -6.0176 H              1 RES1               0.0000
     23 H23         29.4992  27.6907  -7.3475 H              1 RES1               0.0000
     24 H24         28.7585  30.1750  -2.6997 H              1 RES1               0.0000
     25 H25         30.1967  30.3707  -3.6987 H              1 RES1               0.0000
     26 H26         28.7343  29.6690  -4.3874 H              1 RES1               0.0000
     27 H27         30.2393  23.3427  -2.2832 H              1 RES1               0.0000
     28 H28         34.1330  24.4885  -3.5895 H              1 RES1               0.0000
     29 H29         32.6300  22.8182  -2.5771 H              1 RES1               0.0000
@<TRIPOS>BOND
    1    1    2 1     
    2    1    3 1     
    3    1    4 1     
    4    1    5 1     
    5    2    6 ar    
    6    2    7 ar    
    7    3    8 1     
    8    3    9 2     
    9    4   10 1     
   10    4   11 2     
   11    5   12 1     
   12    5   18 1     
   13    5   19 1     
   14    6   13 ar    
   15    6   20 1     
   16    7   14 ar    
   17    7   21 1     
   18    8   15 1     
   19    8   22 1     
   20   10   15 1     
   21   10   23 1     
   22   12   24 1     
   23   12   25 1     
   24   12   26 1     
   25   13   16 ar    
   26   13   27 1     
   27   14   16 ar    
   28   14   28 1     
   29   15   17 2     
   30   16   29 1     
@<TRIPOS>SUBSTRUCTURE
      1 RES1           1
@<TRIPOS>SET
DONOR_HYDROGENS      STATIC     ATOMS    <user>   **** ""
2 22 23
ATOM$RED        STATIC     ATOMS    COLORGROUP SYSTEM
2 22 23
@<TRIPOS>COMMENT
> <Gold.Version>
2022.3.0

> <Gold.Id.Protein>
unknown|3nx8_clean|pdb

> <Gold.Protein.RotatedTorsions>
[ 1667 1658 1657 1655 ] final  -29.42 input   59.99 | X-H torsion
[  510  504  502  499 ] final  -55.89 input   60.04 | X-H torsion

> <Gold.Protein.ActiveResidues>
 HIS39   LEU40   ASP41   GLN42   PHE43   GLU44   ARG45   ILE46   LYS47   THR48  
 MET58   LEU59   VAL60   LYS61   HIS62   LYS63   MET71   ILE73   PHE110  ASP112 
 ASN115  TYR117  VAL119  GLU333  GLU334  ILE335  ARG336  VAL337 

> <Gold.Protein.RotatedAtoms>
   25.7747   19.2106   -7.1326 H   0  0  0  0  0  0  0  0  0  0  0  0  # atno 510  bound_to 504 
   26.9976   26.0363    3.5283 H   0  0  0  0  0  0  0  0  0  0  0  0  # atno 1667 bound_to 1658
   27.0341   25.5260    1.9839 LP  0  0  0  0  0  0  0  0  0  0  0  0  # atno 5360 bound_to 1658
   28.2295   26.4770    2.5612 LP  0  0  0  0  0  0  0  0  0  0  0  0  # atno 5361 bound_to 1658

> <Gold.Score>
     Fitness  S(hb_ext) S(vdw_ext)  S(hb_int)    S(int)      intcor
     34.33       4.39      22.90       0.00      -1.55      -0.77

> <Gold.Goldscore.Fitness>
34.3326

> <Gold.Goldscore.Internal.Vdw>
-1.9186

> <Gold.Goldscore.Internal.Torsion>
-0.3981

> <Gold.Goldscore.External.Vdw>
22.9028

> <Gold.Goldscore.Internal.HBond>
0.0000

> <Gold.Goldscore.External.HBond>
4.3926

> <Gold.Goldscore.Internal.Correction>
-0.7653

> <Gold.Goldscore.Hbonds>
donor molecule, donor type, donor heavy atom, donor atom, acceptor molecule, acceptor atom, score
      P1  H   443   447       L1    11  0.73

> <Gold.Goldscore.Internal.Vdw.Weighted>
-1.9186

> <Gold.Goldscore.Internal.Torsion.Weighted>
-0.3981

> <Gold.Goldscore.External.Vdw.Weighted>
31.4914

> <Gold.Goldscore.Internal.HBond.Weighted>
0.0000

> <Gold.Goldscore.External.HBond.Weighted>
4.3926

> <Gold.Goldscore.Internal.Correction.Weighted>
-0.7653

> <Gold.Rescore>
     Score     S(PLP)   S(hbond)     S(cho)   S(metal)  DE(clash)   DE(tors)     intcor
     38.12     -39.60       0.00       0.00       0.00       1.13       0.17       ----

> <Gold.PLP.Fitness>
38.1240

> <Gold.PLP.PLP>
-39.6035

> <Gold.PLP.part.hbond>
0.0000

> <Gold.PLP.part.metal>
0.0000

> <Gold.PLP.part.buried>
-4.6146

> <Gold.PLP.part.nonpolar>
-36.0379

> <Gold.PLP.part.repulsive>
0.2860

> <Gold.PLP.ligand.clash>
1.1349

> <Gold.PLP.ligand.torsion>
0.1723

> <Gold.PLP.Chemscore.Hbond>
0.0000

> <Gold.PLP.Chemscore.CHOScore>
0.0000

> <Gold.PLP.Chemscore.Metal>
0.0000

> <Gold.PLP.Chemscore.Internal.Correction>
   9.000000E+99

