#       Name:                CT1002167954
#       Creating user name   hitesit
#       Creation time:       Sun Apr 16 20:16:23 2023


#       File generated by GOLD software.
#

@<TRIPOS>MOLECULE
CT1002167954|ligand_prepared|mol2|1|dock6
    29    30     1
SMALL
NO_CHARGES


@<TRIPOS>ATOM
      1 C1          32.2988  27.9390  -3.5980 C.3            1 RES1               0.0000
      2 C2          32.0063  26.4511  -3.3158 C.ar           1 RES1               0.0000
      3 C3          33.4007  28.3508  -2.6261 C.2            1 RES1               0.0000
      4 C4          32.7006  28.0237  -5.0663 C.2            1 RES1               0.0000
      5 C5          31.0809  28.8671  -3.3816 C.3            1 RES1               0.0000
      6 C6          30.7826  25.8902  -3.6686 C.ar           1 RES1               0.0000
      7 C7          32.9497  25.6278  -2.7068 C.ar           1 RES1               0.0000
      8 N8          34.6549  28.5285  -3.1315 N.am           1 RES1               0.0000
      9 O9          33.1809  28.4792  -1.4280 O.2            1 RES1               0.0000
     10 N10         33.9859  28.3975  -5.3597 N.am           1 RES1               0.0000
     11 O11         31.9207  27.7541  -5.9714 O.2            1 RES1               0.0000
     12 C12         31.4281  30.3475  -3.3952 C.3            1 RES1               0.0000
     13 C13         30.5127  24.5539  -3.4242 C.ar           1 RES1               0.0000
     14 C14         32.6776  24.2917  -2.4631 C.ar           1 RES1               0.0000
     15 C15         34.9900  28.6240  -4.4582 C.2            1 RES1               0.0000
     16 C16         31.4600  23.7537  -2.8218 C.ar           1 RES1               0.0000
     17 O17         36.1353  28.9033  -4.8008 O.2            1 RES1               0.0000
     18 H18         30.3427  28.6703  -4.1689 H              1 RES1               0.0000
     19 H19         30.6170  28.6221  -2.4182 H              1 RES1               0.0000
     20 H20         30.0239  26.5050  -4.1413 H              1 RES1               0.0000
     21 H21         33.9140  26.0297  -2.4151 H              1 RES1               0.0000
     22 H22         35.4138  28.5966  -2.4609 H              1 RES1               0.0000
     23 H23         34.2154  28.5182  -6.3411 H              1 RES1               0.0000
     24 H24         30.5383  30.9538  -3.2391 H              1 RES1               0.0000
     25 H25         32.1414  30.5836  -2.6082 H              1 RES1               0.0000
     26 H26         31.8688  30.6315  -4.3485 H              1 RES1               0.0000
     27 H27         29.5523  24.1356  -3.7072 H              1 RES1               0.0000
     28 H28         33.4259  23.6658  -1.9882 H              1 RES1               0.0000
     29 H29         31.2484  22.7068  -2.6309 H              1 RES1               0.0000
@<TRIPOS>BOND
    1    1    2 1     
    2    1    3 1     
    3    1    4 1     
    4    1    5 1     
    5    2    6 ar    
    6    2    7 ar    
    7    3    8 1     
    8    3    9 2     
    9    4   10 1     
   10    4   11 2     
   11    5   12 1     
   12    5   18 1     
   13    5   19 1     
   14    6   13 ar    
   15    6   20 1     
   16    7   14 ar    
   17    7   21 1     
   18    8   15 1     
   19    8   22 1     
   20   10   15 1     
   21   10   23 1     
   22   12   24 1     
   23   12   25 1     
   24   12   26 1     
   25   13   16 ar    
   26   13   27 1     
   27   14   16 ar    
   28   14   28 1     
   29   15   17 2     
   30   16   29 1     
@<TRIPOS>SUBSTRUCTURE
      1 RES1           1
@<TRIPOS>SET
DONOR_HYDROGENS      STATIC     ATOMS    <user>   **** ""
2 22 23
ATOM$RED        STATIC     ATOMS    COLORGROUP SYSTEM
2 22 23
@<TRIPOS>COMMENT
> <Gold.Version>
2022.3.0

> <Gold.Id.Protein>
unknown|3nx8_clean|pdb

> <Gold.Protein.RotatedTorsions>
[ 1667 1658 1657 1655 ] final   28.36 input   59.99 | X-H torsion
[  510  504  502  499 ] final   77.63 input   60.04 | X-H torsion

> <Gold.Protein.ActiveResidues>
 HIS39   LEU40   ASP41   GLN42   PHE43   GLU44   ARG45   ILE46   LYS47   THR48  
 MET58   LEU59   VAL60   LYS61   HIS62   LYS63   MET71   ILE73   PHE110  ASP112 
 ASN115  TYR117  VAL119  GLU333  GLU334  ILE335  ARG336  VAL337 

> <Gold.Protein.RotatedAtoms>
   25.5819   19.8706   -8.7101 H   0  0  0  0  0  0  0  0  0  0  0  0  # atno 510  bound_to 504 
   27.7745   26.4859    3.4186 H   0  0  0  0  0  0  0  0  0  0  0  0  # atno 1667 bound_to 1658
   26.6099   25.5396    2.7899 LP  0  0  0  0  0  0  0  0  0  0  0  0  # atno 5360 bound_to 1658
   27.8712   26.0104    1.8657 LP  0  0  0  0  0  0  0  0  0  0  0  0  # atno 5361 bound_to 1658

> <Gold.Score>
     Fitness  S(hb_ext) S(vdw_ext)  S(hb_int)    S(int)      intcor
     33.81       0.33      25.04       0.00      -0.95      -0.77

> <Gold.Goldscore.Fitness>
33.8147

> <Gold.Goldscore.Internal.Vdw>
-1.1411

> <Gold.Goldscore.Internal.Torsion>
-0.5698

> <Gold.Goldscore.External.Vdw>
25.0416

> <Gold.Goldscore.Internal.HBond>
0.0000

> <Gold.Goldscore.External.HBond>
0.3281

> <Gold.Goldscore.Internal.Correction>
-0.7653

> <Gold.Goldscore.Hbonds>
donor molecule, donor type, donor heavy atom, donor atom, acceptor molecule, acceptor atom, score
      L1  H     8    22       P1   379  0.16

> <Gold.Goldscore.Internal.Vdw.Weighted>
-1.1411

> <Gold.Goldscore.Internal.Torsion.Weighted>
-0.5698

> <Gold.Goldscore.External.Vdw.Weighted>
34.4323

> <Gold.Goldscore.Internal.HBond.Weighted>
0.0000

> <Gold.Goldscore.External.HBond.Weighted>
0.3281

> <Gold.Goldscore.Internal.Correction.Weighted>
-0.7653

> <Gold.Rescore>
     Score     S(PLP)   S(hbond)     S(cho)   S(metal)  DE(clash)   DE(tors)     intcor
     37.32     -34.38       1.00       0.00       0.00       0.00       0.03       ----

> <Gold.PLP.Fitness>
37.3163

> <Gold.PLP.PLP>
-34.3821

> <Gold.PLP.part.hbond>
-1.9968

> <Gold.PLP.part.metal>
0.0000

> <Gold.PLP.part.buried>
1.2874

> <Gold.PLP.part.nonpolar>
-34.1642

> <Gold.PLP.part.repulsive>
0.4598

> <Gold.PLP.ligand.clash>
0.0000

> <Gold.PLP.ligand.torsion>
0.0329

> <Gold.PLP.Chemscore.Hbond>
1.0000

> <Gold.PLP.Chemscore.CHOScore>
0.0000

> <Gold.PLP.Chemscore.Metal>
0.0000

> <Gold.PLP.Chemscore.Internal.Correction>
   9.000000E+99

