#       Name:                CT1002167954
#       Creating user name   hitesit
#       Creation time:       Sun Apr 16 20:16:46 2023


#       File generated by GOLD software.
#

@<TRIPOS>MOLECULE
CT1002167954|ligand_prepared|mol2|1|dock6
    29    30     1
SMALL
NO_CHARGES


@<TRIPOS>ATOM
      1 C1         123.8102 249.2825 356.2933 C.3            1 RES1               0.0000
      2 C2         122.6412 249.8761 357.1056 C.ar           1 RES1               0.0000
      3 C3         123.8803 247.8034 356.6614 C.2            1 RES1               0.0000
      4 C4         123.4866 249.5440 354.8265 C.2            1 RES1               0.0000
      5 C5         125.1794 249.9312 356.6034 C.3            1 RES1               0.0000
      6 C6         121.4894 249.1304 357.3383 C.ar           1 RES1               0.0000
      7 C7         122.7009 251.1645 357.6300 C.ar           1 RES1               0.0000
      8 N8         123.4420 246.9010 355.7376 N.am           1 RES1               0.0000
      9 O9         124.2770 247.4365 357.7606 O.2            1 RES1               0.0000
     10 N10        123.2452 248.4630 354.0197 N.am           1 RES1               0.0000
     11 O11        123.4220 250.6771 354.3659 O.2            1 RES1               0.0000
     12 C12        126.3625 249.1747 356.0201 C.3            1 RES1               0.0000
     13 C13        120.4366 249.6527 358.0712 C.ar           1 RES1               0.0000
     14 C14        121.6468 251.6850 358.3625 C.ar           1 RES1               0.0000
     15 C15        123.1780 247.1549 354.4157 C.2            1 RES1               0.0000
     16 C16        120.5147 250.9300 358.5841 C.ar           1 RES1               0.0000
     17 O17        122.9017 246.2433 353.6413 O.2            1 RES1               0.0000
     18 H18        125.1837 250.9538 356.2063 H              1 RES1               0.0000
     19 H19        125.3022 249.9937 357.6917 H              1 RES1               0.0000
     20 H20        121.4089 248.1243 356.9405 H              1 RES1               0.0000
     21 H21        123.5812 251.7770 357.4673 H              1 RES1               0.0000
     22 H22        123.2971 245.9493 356.0594 H              1 RES1               0.0000
     23 H23        123.1024 248.6508 353.0324 H              1 RES1               0.0000
     24 H24        127.2980 249.6721 356.2670 H              1 RES1               0.0000
     25 H25        126.4037 248.1609 356.4130 H              1 RES1               0.0000
     26 H26        126.2859 249.1154 354.9364 H              1 RES1               0.0000
     27 H27        119.5473 249.0550 358.2417 H              1 RES1               0.0000
     28 H28        121.7124 252.6909 358.7637 H              1 RES1               0.0000
     29 H29        119.6900 251.3388 359.1585 H              1 RES1               0.0000
@<TRIPOS>BOND
    1    1    2 1     
    2    1    3 1     
    3    1    4 1     
    4    1    5 1     
    5    2    6 ar    
    6    2    7 ar    
    7    3    8 1     
    8    3    9 2     
    9    4   10 1     
   10    4   11 2     
   11    5   12 1     
   12    5   18 1     
   13    5   19 1     
   14    6   13 ar    
   15    6   20 1     
   16    7   14 ar    
   17    7   21 1     
   18    8   15 1     
   19    8   22 1     
   20   10   15 1     
   21   10   23 1     
   22   12   24 1     
   23   12   25 1     
   24   12   26 1     
   25   13   16 ar    
   26   13   27 1     
   27   14   16 ar    
   28   14   28 1     
   29   15   17 2     
   30   16   29 1     
@<TRIPOS>SUBSTRUCTURE
      1 RES1           1
@<TRIPOS>SET
DONOR_HYDROGENS      STATIC     ATOMS    <user>   **** ""
2 22 23
ATOM$RED        STATIC     ATOMS    COLORGROUP SYSTEM
2 22 23
@<TRIPOS>COMMENT
> <Gold.Version>
2022.3.0

> <Gold.Id.Protein>
unknown|5adg_clean|pdb

> <Gold.Protein.RotatedTorsions>
[ 5561 5545 5544 5541 ] final   34.63 input   60.03 | X-H torsion
[ 12878 12857 12856 12854 ] final  -39.09 input   60.00 | X-H torsion
[ 9086 9067 9066 9064 ] final  -96.92 input   60.02 | X-H torsion
[ 8993 8977 8976 8973 ] final -140.03 input   60.01 | X-H torsion

> <Gold.Protein.ActiveResidues>
 TRP311  MET341  HIS342  TRP414  ALA417  ARG419  CYS420  VAL421  GLY422  LEU460 
 SER462  SER482  GLN483  ARG486  ALA502  ASN503  TYR567  GLY568  LEU569  PRO570 
 ALA571  VAL572  SER573  ASN574  MET575  LEU576  PHE589  SER590  GLY591  TRP592 
 TYR593  MET594  GLY595  GLU597  ILE598  ARG601  ARG608  ILE653  VAL654  TRP683 
 PHE709  GLU710  TYR711  GLN712  ASP714  HEM750  H4B760 

> <Gold.Protein.RotatedAtoms>
  127.3387  248.6674  363.2014 H   0  0  0  0  0  0  0  0  0  0  0  0  # atno 5561 bound_to 5545
  116.2054  244.6454  369.2383 H   0  0  0  0  0  0  0  0  0  0  0  0  # atno 8993 bound_to 8977
  123.4912  240.4031  360.8242 H   0  0  0  0  0  0  0  0  0  0  0  0  # atno 9086 bound_to 9067
  121.3246  253.6037  354.9937 H   0  0  0  0  0  0  0  0  0  0  0  0  # atno 12878 bound_to 12857
  128.7595  249.4406  363.0221 LP  0  0  0  0  0  0  0  0  0  0  0  0  # atno 13468 bound_to 5545
  127.8751  249.0371  361.7099 LP  0  0  0  0  0  0  0  0  0  0  0  0  # atno 13469 bound_to 5545
  120.7797  254.5165  353.7614 LP  0  0  0  0  0  0  0  0  0  0  0  0  # atno 13474 bound_to 12857
  119.7535  254.0237  354.9321 LP  0  0  0  0  0  0  0  0  0  0  0  0  # atno 13475 bound_to 12857
  122.7341  241.0768  362.0976 LP  0  0  0  0  0  0  0  0  0  0  0  0  # atno 13500 bound_to 9067
  122.7320  241.8320  360.6498 LP  0  0  0  0  0  0  0  0  0  0  0  0  # atno 13501 bound_to 9067
  115.2107  243.7077  368.3553 LP  0  0  0  0  0  0  0  0  0  0  0  0  # atno 13514 bound_to 8977
  114.9697  245.3214  368.4231 LP  0  0  0  0  0  0  0  0  0  0  0  0  # atno 13515 bound_to 8977

> <Gold.Score>
     Fitness  S(hb_ext) S(vdw_ext)  S(hb_int)    S(int)      intcor
     28.07       6.00      16.27       0.00      -0.31      -0.77

> <Gold.Goldscore.Fitness>
28.0694

> <Gold.Goldscore.Internal.Vdw>
-0.4951

> <Gold.Goldscore.Internal.Torsion>
-0.5778

> <Gold.Goldscore.External.Vdw>
16.2742

> <Gold.Goldscore.Internal.HBond>
0.0000

> <Gold.Goldscore.External.HBond>
6.0000

> <Gold.Goldscore.Internal.Correction>
-0.7653

> <Gold.Goldscore.Hbonds>
donor molecule, donor type, donor heavy atom, donor atom, acceptor molecule, acceptor atom, score
      L1  H    10    23       P1 13407  1.00

> <Gold.Goldscore.Internal.Vdw.Weighted>
-0.4951

> <Gold.Goldscore.Internal.Torsion.Weighted>
-0.5778

> <Gold.Goldscore.External.Vdw.Weighted>
22.3771

> <Gold.Goldscore.Internal.HBond.Weighted>
0.0000

> <Gold.Goldscore.External.HBond.Weighted>
6.0000

> <Gold.Goldscore.Internal.Correction.Weighted>
-0.7653

> <Gold.Rescore>
     Score     S(PLP)   S(hbond)     S(cho)   S(metal)  DE(clash)   DE(tors)     intcor
     19.95     -17.28       0.93       0.00       0.00       0.00       0.06       ----

> <Gold.PLP.Fitness>
19.9454

> <Gold.PLP.PLP>
-17.2782

> <Gold.PLP.part.hbond>
-1.0000

> <Gold.PLP.part.metal>
0.0000

> <Gold.PLP.part.buried>
-2.1695

> <Gold.PLP.part.nonpolar>
-15.2664

> <Gold.PLP.part.repulsive>
0.3782

> <Gold.PLP.ligand.clash>
0.0000

> <Gold.PLP.ligand.torsion>
0.0558

> <Gold.PLP.Chemscore.Hbond>
0.9263

> <Gold.PLP.Chemscore.CHOScore>
0.0000

> <Gold.PLP.Chemscore.Metal>
0.0000

> <Gold.Chemscore.Hbonds>
donor molecule, donor type, donor heavy atom, donor atom, acceptor molecule, acceptor atom, score
      L1  H    10    23       P1 13407  1.00

> <Gold.PLP.Chemscore.Internal.Correction>
   9.000000E+99

