#       Name:                CT1002167954
#       Creating user name   hitesit
#       Creation time:       Sun Apr 16 20:16:43 2023


#       File generated by GOLD software.
#

@<TRIPOS>MOLECULE
CT1002167954|ligand_prepared|mol2|1|dock2
    29    30     1
SMALL
NO_CHARGES


@<TRIPOS>ATOM
      1 C1         117.6239 246.1561 360.1365 C.3            1 RES1               0.0000
      2 C2         118.3310 247.3570 359.4757 C.ar           1 RES1               0.0000
      3 C3         118.2986 245.9534 361.4900 C.2            1 RES1               0.0000
      4 C4         116.1477 246.5269 360.2266 C.2            1 RES1               0.0000
      5 C5         117.7380 244.8421 359.3291 C.3            1 RES1               0.0000
      6 C6         119.4596 247.1669 358.6840 C.ar           1 RES1               0.0000
      7 C7         117.8656 248.6582 359.6460 C.ar           1 RES1               0.0000
      8 N8         117.6067 246.3292 362.6035 N.am           1 RES1               0.0000
      9 O9         119.4360 245.5073 361.5765 O.2            1 RES1               0.0000
     10 N10        115.6013 246.6893 361.4727 N.am           1 RES1               0.0000
     11 O11        115.4569 246.6963 359.2294 O.2            1 RES1               0.0000
     12 C12        116.8157 243.7379 359.8214 C.3            1 RES1               0.0000
     13 C13        120.0982 248.2383 358.0820 C.ar           1 RES1               0.0000
     14 C14        118.5059 249.7283 359.0433 C.ar           1 RES1               0.0000
     15 C15        116.2714 246.6374 362.6646 C.2            1 RES1               0.0000
     16 C16        119.6217 249.5195 358.2608 C.ar           1 RES1               0.0000
     17 O17        115.7215 246.8484 363.7417 O.2            1 RES1               0.0000
     18 H18        117.5068 245.0526 358.2776 H              1 RES1               0.0000
     19 H19        118.7741 244.4854 359.3797 H              1 RES1               0.0000
     20 H20        119.8506 246.1660 358.5339 H              1 RES1               0.0000
     21 H21        116.9902 248.8463 360.2582 H              1 RES1               0.0000
     22 H22        118.1305 246.3865 363.4710 H              1 RES1               0.0000
     23 H23        114.6025 246.8651 361.5158 H              1 RES1               0.0000
     24 H24        116.9357 242.8387 359.2207 H              1 RES1               0.0000
     25 H25        117.0347 243.4854 360.8568 H              1 RES1               0.0000
     26 H26        115.7749 244.0493 359.7612 H              1 RES1               0.0000
     27 H27        120.9768 248.0689 357.4682 H              1 RES1               0.0000
     28 H28        118.1278 250.7350 359.1873 H              1 RES1               0.0000
     29 H29        120.1219 250.3587 357.7888 H              1 RES1               0.0000
@<TRIPOS>BOND
    1    1    2 1     
    2    1    3 1     
    3    1    4 1     
    4    1    5 1     
    5    2    6 ar    
    6    2    7 ar    
    7    3    8 1     
    8    3    9 2     
    9    4   10 1     
   10    4   11 2     
   11    5   12 1     
   12    5   18 1     
   13    5   19 1     
   14    6   13 ar    
   15    6   20 1     
   16    7   14 ar    
   17    7   21 1     
   18    8   15 1     
   19    8   22 1     
   20   10   15 1     
   21   10   23 1     
   22   12   24 1     
   23   12   25 1     
   24   12   26 1     
   25   13   16 ar    
   26   13   27 1     
   27   14   16 ar    
   28   14   28 1     
   29   15   17 2     
   30   16   29 1     
@<TRIPOS>SUBSTRUCTURE
      1 RES1           1
@<TRIPOS>SET
DONOR_HYDROGENS      STATIC     ATOMS    <user>   **** ""
2 22 23
ATOM$RED        STATIC     ATOMS    COLORGROUP SYSTEM
2 22 23
@<TRIPOS>COMMENT
> <Gold.Version>
2022.3.0

> <Gold.Id.Protein>
unknown|5adg_clean|pdb

> <Gold.Protein.RotatedTorsions>
[ 5561 5545 5544 5541 ] final -108.50 input   60.03 | X-H torsion
[ 12878 12857 12856 12854 ] final   83.26 input   60.00 | X-H torsion
[ 9086 9067 9066 9064 ] final   41.00 input   60.02 | X-H torsion
[ 8993 8977 8976 8973 ] final    2.74 input   60.01 | X-H torsion

> <Gold.Protein.ActiveResidues>
 TRP311  MET341  HIS342  TRP414  ALA417  ARG419  CYS420  VAL421  GLY422  LEU460 
 SER462  SER482  GLN483  ARG486  ALA502  ASN503  TYR567  GLY568  LEU569  PRO570 
 ALA571  VAL572  SER573  ASN574  MET575  LEU576  PHE589  SER590  GLY591  TRP592 
 TYR593  MET594  GLY595  GLU597  ILE598  ARG601  ARG608  ILE653  VAL654  TRP683 
 PHE709  GLU710  TYR711  GLN712  ASP714  HEM750  H4B760 

> <Gold.Protein.RotatedAtoms>
  128.8135  249.4923  362.6528 H   0  0  0  0  0  0  0  0  0  0  0  0  # atno 5561 bound_to 5545
  114.7912  245.0493  368.2450 H   0  0  0  0  0  0  0  0  0  0  0  0  # atno 8993 bound_to 8977
  122.6096  241.9103  360.9039 H   0  0  0  0  0  0  0  0  0  0  0  0  # atno 9086 bound_to 9067
  119.7476  254.0468  354.9012 H   0  0  0  0  0  0  0  0  0  0  0  0  # atno 12878 bound_to 12857
  127.5612  248.8615  361.8267 LP  0  0  0  0  0  0  0  0  0  0  0  0  # atno 13468 bound_to 5545
  127.5882  248.7855  363.4577 LP  0  0  0  0  0  0  0  0  0  0  0  0  # atno 13469 bound_to 5545
  121.3043  253.5879  355.0230 LP  0  0  0  0  0  0  0  0  0  0  0  0  # atno 13474 bound_to 12857
  120.8170  254.5060  353.7636 LP  0  0  0  0  0  0  0  0  0  0  0  0  # atno 13475 bound_to 12857
  123.4715  240.5677  360.5830 LP  0  0  0  0  0  0  0  0  0  0  0  0  # atno 13500 bound_to 9067
  122.8822  240.8236  362.0843 LP  0  0  0  0  0  0  0  0  0  0  0  0  # atno 13501 bound_to 9067
  116.0970  244.9995  369.2149 LP  0  0  0  0  0  0  0  0  0  0  0  0  # atno 13514 bound_to 8977
  115.5072  243.6231  368.5635 LP  0  0  0  0  0  0  0  0  0  0  0  0  # atno 13515 bound_to 8977

> <Gold.Score>
     Fitness  S(hb_ext) S(vdw_ext)  S(hb_int)    S(int)      intcor
     58.50      10.17      35.61       0.00      -0.64      -0.77

> <Gold.Goldscore.Fitness>
58.4981

> <Gold.Goldscore.Internal.Vdw>
-0.8235

> <Gold.Goldscore.Internal.Torsion>
-0.5805

> <Gold.Goldscore.External.Vdw>
35.6110

> <Gold.Goldscore.Internal.HBond>
0.0000

> <Gold.Goldscore.External.HBond>
10.1717

> <Gold.Goldscore.Internal.Correction>
-0.7653

> <Gold.Goldscore.Hbonds>
donor molecule, donor type, donor heavy atom, donor atom, acceptor molecule, acceptor atom, score
      P1  H  8444  8467       L1    17  0.09
      P1  M 13289 13530       L1    11  1.00

> <Gold.Goldscore.Internal.Vdw.Weighted>
-0.8235

> <Gold.Goldscore.Internal.Torsion.Weighted>
-0.5805

> <Gold.Goldscore.External.Vdw.Weighted>
48.9651

> <Gold.Goldscore.Internal.HBond.Weighted>
0.0000

> <Gold.Goldscore.External.HBond.Weighted>
10.1717

> <Gold.Goldscore.Internal.Correction.Weighted>
-0.7653

> <Gold.Rescore>
     Score     S(PLP)   S(hbond)     S(cho)   S(metal)  DE(clash)   DE(tors)     intcor
     53.16     -48.61       0.06       0.00       1.00       0.02       0.81       ----

> <Gold.PLP.Fitness>
53.1612

> <Gold.PLP.PLP>
-48.6072

> <Gold.PLP.part.hbond>
-3.0000

> <Gold.PLP.part.metal>
-0.8120

> <Gold.PLP.part.buried>
11.4346

> <Gold.PLP.part.nonpolar>
-62.5382

> <Gold.PLP.part.repulsive>
3.7808

> <Gold.PLP.ligand.clash>
0.0227

> <Gold.PLP.ligand.torsion>
0.8071

> <Gold.PLP.Chemscore.Hbond>
0.0636

> <Gold.PLP.Chemscore.CHOScore>
0.0000

> <Gold.PLP.Chemscore.Metal>
1.0000

> <Gold.Chemscore.Hbonds>
donor molecule, donor type, donor heavy atom, donor atom, acceptor molecule, acceptor atom, score
      P1  M 13289 13289       L1    11  1.00

> <Gold.PLP.Chemscore.Internal.Correction>
   9.000000E+99

