#       Name:                CT1002167954
#       Creating user name   hitesit
#       Creation time:       Sun Apr 16 20:16:45 2023


#       File generated by GOLD software.
#

@<TRIPOS>MOLECULE
CT1002167954|ligand_prepared|mol2|1|dock5
    29    30     1
SMALL
NO_CHARGES


@<TRIPOS>ATOM
      1 C1         125.2622 246.3321 354.8222 C.3            1 RES1               0.0000
      2 C2         124.9319 246.9462 356.1979 C.ar           1 RES1               0.0000
      3 C3         124.7501 244.8952 354.8603 C.2            1 RES1               0.0000
      4 C4         124.5715 247.2114 353.7856 C.2            1 RES1               0.0000
      5 C5         126.7736 246.3065 354.4960 C.3            1 RES1               0.0000
      6 C6         125.7284 246.6725 357.3057 C.ar           1 RES1               0.0000
      7 C7         123.8376 247.7889 356.3738 C.ar           1 RES1               0.0000
      8 N8         123.6191 244.6086 354.1543 N.am           1 RES1               0.0000
      9 O9         125.3078 244.0358 355.5315 O.2            1 RES1               0.0000
     10 N10        123.5553 246.6597 353.0503 N.am           1 RES1               0.0000
     11 O11        124.8869 248.3819 353.6106 O.2            1 RES1               0.0000
     12 C12        127.0869 245.8635 353.0755 C.3            1 RES1               0.0000
     13 C13        125.4432 247.2235 358.5440 C.ar           1 RES1               0.0000
     14 C14        123.5540 248.3387 357.6131 C.ar           1 RES1               0.0000
     15 C15        123.0273 245.4074 353.2091 C.2            1 RES1               0.0000
     16 C16        124.3561 248.0572 358.6984 C.ar           1 RES1               0.0000
     17 O17        122.0769 245.0018 352.5461 O.2            1 RES1               0.0000
     18 H18        127.1855 247.3112 354.6514 H              1 RES1               0.0000
     19 H19        127.2745 245.6267 355.1963 H              1 RES1               0.0000
     20 H20        126.5867 246.0166 357.2040 H              1 RES1               0.0000
     21 H21        123.1920 248.0235 355.5343 H              1 RES1               0.0000
     22 H22        123.1718 243.7180 354.3470 H              1 RES1               0.0000
     23 H23        123.1555 247.2358 352.3164 H              1 RES1               0.0000
     24 H24        128.1605 245.8632 352.8994 H              1 RES1               0.0000
     25 H25        126.7135 244.8578 352.8938 H              1 RES1               0.0000
     26 H26        126.6250 246.5323 352.3522 H              1 RES1               0.0000
     27 H27        126.0768 246.9977 359.3953 H              1 RES1               0.0000
     28 H28        122.6971 248.9939 357.7301 H              1 RES1               0.0000
     29 H29        124.1331 248.4891 359.6684 H              1 RES1               0.0000
@<TRIPOS>BOND
    1    1    2 1     
    2    1    3 1     
    3    1    4 1     
    4    1    5 1     
    5    2    6 ar    
    6    2    7 ar    
    7    3    8 1     
    8    3    9 2     
    9    4   10 1     
   10    4   11 2     
   11    5   12 1     
   12    5   18 1     
   13    5   19 1     
   14    6   13 ar    
   15    6   20 1     
   16    7   14 ar    
   17    7   21 1     
   18    8   15 1     
   19    8   22 1     
   20   10   15 1     
   21   10   23 1     
   22   12   24 1     
   23   12   25 1     
   24   12   26 1     
   25   13   16 ar    
   26   13   27 1     
   27   14   16 ar    
   28   14   28 1     
   29   15   17 2     
   30   16   29 1     
@<TRIPOS>SUBSTRUCTURE
      1 RES1           1
@<TRIPOS>SET
DONOR_HYDROGENS      STATIC     ATOMS    <user>   **** ""
2 22 23
ATOM$RED        STATIC     ATOMS    COLORGROUP SYSTEM
2 22 23
@<TRIPOS>COMMENT
> <Gold.Version>
2022.3.0

> <Gold.Id.Protein>
unknown|5adg_clean|pdb

> <Gold.Protein.RotatedTorsions>
[ 5561 5545 5544 5541 ] final  116.95 input   60.03 | X-H torsion
[ 12878 12857 12856 12854 ] final  179.20 input   60.00 | X-H torsion
[ 9086 9067 9066 9064 ] final   21.29 input   60.02 | X-H torsion
[ 8993 8977 8976 8973 ] final  155.83 input   60.01 | X-H torsion

> <Gold.Protein.ActiveResidues>
 TRP311  MET341  HIS342  TRP414  ALA417  ARG419  CYS420  VAL421  GLY422  LEU460 
 SER462  SER482  GLN483  ARG486  ALA502  ASN503  TYR567  GLY568  LEU569  PRO570 
 ALA571  VAL572  SER573  ASN574  MET575  LEU576  PHE589  SER590  GLY591  TRP592 
 TYR593  MET594  GLY595  GLU597  ILE598  ARG601  ARG608  ILE653  VAL654  TRP683 
 PHE709  GLU710  TYR711  GLN712  ASP714  HEM750  H4B760 

> <Gold.Protein.RotatedAtoms>
  127.3995  248.7683  361.9744 H   0  0  0  0  0  0  0  0  0  0  0  0  # atno 5561 bound_to 5545
  115.9121  243.7638  368.8841 H   0  0  0  0  0  0  0  0  0  0  0  0  # atno 8993 bound_to 8977
  122.7456  241.8134  360.6302 H   0  0  0  0  0  0  0  0  0  0  0  0  # atno 9086 bound_to 9067
  120.4338  254.5716  353.8108 H   0  0  0  0  0  0  0  0  0  0  0  0  # atno 12878 bound_to 12857
  127.7838  248.8856  363.5515 LP  0  0  0  0  0  0  0  0  0  0  0  0  # atno 13468 bound_to 5545
  128.7895  249.4905  362.4160 LP  0  0  0  0  0  0  0  0  0  0  0  0  # atno 13469 bound_to 5545
  119.9323  253.8294  355.1696 LP  0  0  0  0  0  0  0  0  0  0  0  0  # atno 13474 bound_to 12857
  121.4980  253.7360  354.7152 LP  0  0  0  0  0  0  0  0  0  0  0  0  # atno 13475 bound_to 12857
  123.4964  240.3861  360.8487 LP  0  0  0  0  0  0  0  0  0  0  0  0  # atno 13500 bound_to 9067
  122.7204  241.1027  362.0941 LP  0  0  0  0  0  0  0  0  0  0  0  0  # atno 13501 bound_to 9067
  114.7091  244.5383  368.1085 LP  0  0  0  0  0  0  0  0  0  0  0  0  # atno 13514 bound_to 8977
  115.7666  245.3784  369.0265 LP  0  0  0  0  0  0  0  0  0  0  0  0  # atno 13515 bound_to 8977

> <Gold.Score>
     Fitness  S(hb_ext) S(vdw_ext)  S(hb_int)    S(int)      intcor
     32.37       6.40      19.67       0.00      -1.07      -0.77

> <Gold.Goldscore.Fitness>
32.3723

> <Gold.Goldscore.Internal.Vdw>
-1.3935

> <Gold.Goldscore.Internal.Torsion>
-0.4462

> <Gold.Goldscore.External.Vdw>
19.6703

> <Gold.Goldscore.Internal.HBond>
0.0000

> <Gold.Goldscore.External.HBond>
6.4001

> <Gold.Goldscore.Internal.Correction>
-0.7653

> <Gold.Goldscore.Hbonds>
donor molecule, donor type, donor heavy atom, donor atom, acceptor molecule, acceptor atom, score
      P1  H  9507  9542       L1     9  0.07
      L1  H    10    23       P1 13407  1.00

> <Gold.Goldscore.Internal.Vdw.Weighted>
-1.3935

> <Gold.Goldscore.Internal.Torsion.Weighted>
-0.4462

> <Gold.Goldscore.External.Vdw.Weighted>
27.0466

> <Gold.Goldscore.Internal.HBond.Weighted>
0.0000

> <Gold.Goldscore.External.HBond.Weighted>
6.4001

> <Gold.Goldscore.Internal.Correction.Weighted>
-0.7653

> <Gold.Rescore>
     Score     S(PLP)   S(hbond)     S(cho)   S(metal)  DE(clash)   DE(tors)     intcor
     19.28     -16.60       1.48       0.00       0.00       0.00       0.88       ----

> <Gold.PLP.Fitness>
19.2763

> <Gold.PLP.PLP>
-16.5957

> <Gold.PLP.part.hbond>
-2.8767

> <Gold.PLP.part.metal>
0.0000

> <Gold.PLP.part.buried>
-5.8069

> <Gold.PLP.part.nonpolar>
-10.0362

> <Gold.PLP.part.repulsive>
1.5937

> <Gold.PLP.ligand.clash>
0.0000

> <Gold.PLP.ligand.torsion>
0.8829

> <Gold.PLP.Chemscore.Hbond>
1.4821

> <Gold.PLP.Chemscore.CHOScore>
0.0000

> <Gold.PLP.Chemscore.Metal>
0.0000

> <Gold.Chemscore.Hbonds>
donor molecule, donor type, donor heavy atom, donor atom, acceptor molecule, acceptor atom, score
      L1  H    10    23       P1 13407  1.00
      P1  H  9507  9542       L1     9  0.80

> <Gold.PLP.Chemscore.Internal.Correction>
   9.000000E+99

