#       Name:                CT1002167954
#       Creating user name   hitesit
#       Creation time:       Sun Apr 16 20:16:49 2023


#       File generated by GOLD software.
#

@<TRIPOS>MOLECULE
CT1002167954|ligand_prepared|mol2|1|dock9
    29    30     1
SMALL
NO_CHARGES


@<TRIPOS>ATOM
      1 C1         123.7935 245.4508 356.9926 C.3            1 RES1               0.0000
      2 C2         123.5031 246.7576 357.7586 C.ar           1 RES1               0.0000
      3 C3         125.3102 245.3666 356.8484 C.2            1 RES1               0.0000
      4 C4         123.1841 244.3258 357.8217 C.2            1 RES1               0.0000
      5 C5         123.1625 245.4002 355.5816 C.3            1 RES1               0.0000
      6 C6         122.2178 247.2901 357.7895 C.ar           1 RES1               0.0000
      7 C7         124.5079 247.4392 358.4400 C.ar           1 RES1               0.0000
      8 N8         125.9700 244.4636 357.6289 N.am           1 RES1               0.0000
      9 O9         125.9222 246.1088 356.0902 O.2            1 RES1               0.0000
     10 N10        124.0338 243.4090 358.3831 N.am           1 RES1               0.0000
     11 O11        121.9769 244.2345 358.0078 O.2            1 RES1               0.0000
     12 C12        123.6805 244.2603 354.7188 C.3            1 RES1               0.0000
     13 C13        121.9460 248.4601 358.4792 C.ar           1 RES1               0.0000
     14 C14        124.2341 248.6092 359.1289 C.ar           1 RES1               0.0000
     15 C15        125.4012 243.4445 358.3498 C.2            1 RES1               0.0000
     16 C16        122.9537 249.1201 359.1496 C.ar           1 RES1               0.0000
     17 O17        126.0983 242.6137 358.9252 O.2            1 RES1               0.0000
     18 H18        122.0750 245.2991 355.6846 H              1 RES1               0.0000
     19 H19        123.3640 246.3497 355.0704 H              1 RES1               0.0000
     20 H20        121.4125 246.7860 357.2658 H              1 RES1               0.0000
     21 H21        125.5228 247.0563 358.4365 H              1 RES1               0.0000
     22 H22        126.9796 244.5545 357.6816 H              1 RES1               0.0000
     23 H23        123.6075 242.6275 358.8709 H              1 RES1               0.0000
     24 H24        123.2056 244.2709 353.7400 H              1 RES1               0.0000
     25 H25        124.7557 244.3435 354.5746 H              1 RES1               0.0000
     26 H26        123.4744 243.2991 355.1851 H              1 RES1               0.0000
     27 H27        120.9370 248.8588 358.4913 H              1 RES1               0.0000
     28 H28        125.0304 249.1257 359.6546 H              1 RES1               0.0000
     29 H29        122.7406 250.0364 359.6901 H              1 RES1               0.0000
@<TRIPOS>BOND
    1    1    2 1     
    2    1    3 1     
    3    1    4 1     
    4    1    5 1     
    5    2    6 ar    
    6    2    7 ar    
    7    3    8 1     
    8    3    9 2     
    9    4   10 1     
   10    4   11 2     
   11    5   12 1     
   12    5   18 1     
   13    5   19 1     
   14    6   13 ar    
   15    6   20 1     
   16    7   14 ar    
   17    7   21 1     
   18    8   15 1     
   19    8   22 1     
   20   10   15 1     
   21   10   23 1     
   22   12   24 1     
   23   12   25 1     
   24   12   26 1     
   25   13   16 ar    
   26   13   27 1     
   27   14   16 ar    
   28   14   28 1     
   29   15   17 2     
   30   16   29 1     
@<TRIPOS>SUBSTRUCTURE
      1 RES1           1
@<TRIPOS>SET
DONOR_HYDROGENS      STATIC     ATOMS    <user>   **** ""
2 22 23
ATOM$RED        STATIC     ATOMS    COLORGROUP SYSTEM
2 22 23
@<TRIPOS>COMMENT
> <Gold.Version>
2022.3.0

> <Gold.Id.Protein>
unknown|5adg_clean|pdb

> <Gold.Protein.RotatedTorsions>
[ 5561 5545 5544 5541 ] final -130.27 input   60.03 | X-H torsion
[ 12878 12857 12856 12854 ] final  -63.18 input   60.00 | X-H torsion
[ 9086 9067 9066 9064 ] final   92.79 input   60.02 | X-H torsion
[ 8993 8977 8976 8973 ] final  174.60 input   60.01 | X-H torsion

> <Gold.Protein.ActiveResidues>
 TRP311  MET341  HIS342  TRP414  ALA417  ARG419  CYS420  VAL421  GLY422  LEU460 
 SER462  SER482  GLN483  ARG486  ALA502  ASN503  TYR567  GLY568  LEU569  PRO570 
 ALA571  VAL572  SER573  ASN574  MET575  LEU576  PHE589  SER590  GLY591  TRP592 
 TYR593  MET594  GLY595  GLU597  ILE598  ARG601  ARG608  ILE653  VAL654  TRP683 
 PHE709  GLU710  TYR711  GLN712  ASP714  HEM750  H4B760 

> <Gold.Protein.RotatedAtoms>
  128.7490  249.4768  362.3054 H   0  0  0  0  0  0  0  0  0  0  0  0  # atno 5561 bound_to 5545
  116.0833  243.9610  369.0422 H   0  0  0  0  0  0  0  0  0  0  0  0  # atno 8993 bound_to 8977
  122.4875  241.7171  361.6893 H   0  0  0  0  0  0  0  0  0  0  0  0  # atno 9086 bound_to 9067
  121.5035  253.7577  354.6823 H   0  0  0  0  0  0  0  0  0  0  0  0  # atno 12878 bound_to 12857
  127.3280  248.7231  362.0575 LP  0  0  0  0  0  0  0  0  0  0  0  0  # atno 13468 bound_to 5545
  127.8865  248.9395  363.5767 LP  0  0  0  0  0  0  0  0  0  0  0  0  # atno 13469 bound_to 5545
  120.3946  254.5756  353.8163 LP  0  0  0  0  0  0  0  0  0  0  0  0  # atno 13474 bound_to 12857
  119.9584  253.8095  355.1908 LP  0  0  0  0  0  0  0  0  0  0  0  0  # atno 13475 bound_to 12857
  123.1629  241.2678  360.2784 LP  0  0  0  0  0  0  0  0  0  0  0  0  # atno 13500 bound_to 9067
  123.3138  240.3180  361.5981 LP  0  0  0  0  0  0  0  0  0  0  0  0  # atno 13501 bound_to 9067
  114.7766  244.2384  368.1128 LP  0  0  0  0  0  0  0  0  0  0  0  0  # atno 13514 bound_to 8977
  115.5267  245.4798  368.8631 LP  0  0  0  0  0  0  0  0  0  0  0  0  # atno 13515 bound_to 8977

> <Gold.Score>
     Fitness  S(hb_ext) S(vdw_ext)  S(hb_int)    S(int)      intcor
     32.90       6.29      20.36       0.00      -1.38      -0.76

> <Gold.Goldscore.Fitness>
32.9036

> <Gold.Goldscore.Internal.Vdw>
-1.5389

> <Gold.Goldscore.Internal.Torsion>
-0.6052

> <Gold.Goldscore.External.Vdw>
20.3589

> <Gold.Goldscore.Internal.HBond>
0.0000

> <Gold.Goldscore.External.HBond>
6.2892

> <Gold.Goldscore.Internal.Correction>
-0.7650

> <Gold.Goldscore.Hbonds>
donor molecule, donor type, donor heavy atom, donor atom, acceptor molecule, acceptor atom, score
      P1  H  9508  9544       L1    17  1.00
      L1  H    10    23       P1  9067  0.14

> <Gold.Goldscore.Internal.Vdw.Weighted>
-1.5389

> <Gold.Goldscore.Internal.Torsion.Weighted>
-0.6052

> <Gold.Goldscore.External.Vdw.Weighted>
27.9935

> <Gold.Goldscore.Internal.HBond.Weighted>
0.0000

> <Gold.Goldscore.External.HBond.Weighted>
6.2892

> <Gold.Goldscore.Internal.Correction.Weighted>
-0.7650

> <Gold.Rescore>
     Score     S(PLP)   S(hbond)     S(cho)   S(metal)  DE(clash)   DE(tors)     intcor
     20.29     -19.18       0.92       0.00       0.00       1.35       0.15       ----

> <Gold.PLP.Fitness>
20.2943

> <Gold.PLP.PLP>
-19.1809

> <Gold.PLP.part.hbond>
-2.7573

> <Gold.PLP.part.metal>
0.0000

> <Gold.PLP.part.buried>
-0.5997

> <Gold.PLP.part.nonpolar>
-18.1202

> <Gold.PLP.part.repulsive>
1.6661

> <Gold.PLP.ligand.clash>
1.3538

> <Gold.PLP.ligand.torsion>
0.1462

> <Gold.PLP.Chemscore.Hbond>
0.9199

> <Gold.PLP.Chemscore.CHOScore>
0.0000

> <Gold.PLP.Chemscore.Metal>
0.0000

> <Gold.Chemscore.Hbonds>
donor molecule, donor type, donor heavy atom, donor atom, acceptor molecule, acceptor atom, score
      P1  H  9508  9544       L1    17  1.00

> <Gold.PLP.Chemscore.Internal.Correction>
   9.000000E+99

