#       Name:                CT1002167954
#       Creating user name   hitesit
#       Creation time:       Sun Apr 16 20:16:48 2023


#       File generated by GOLD software.
#

@<TRIPOS>MOLECULE
CT1002167954|ligand_prepared|mol2|1|dock8
    29    30     1
SMALL
NO_CHARGES


@<TRIPOS>ATOM
      1 C1         124.9127 247.1515 356.5854 C.3            1 RES1               0.0000
      2 C2         124.3809 248.0730 357.7021 C.ar           1 RES1               0.0000
      3 C3         125.8471 248.0058 355.7337 C.2            1 RES1               0.0000
      4 C4         125.6015 245.9857 357.2862 C.2            1 RES1               0.0000
      5 C5         123.8064 246.5738 355.6723 C.3            1 RES1               0.0000
      6 C6         123.0252 248.0973 358.0151 C.ar           1 RES1               0.0000
      7 C7         125.2328 248.9009 358.4284 C.ar           1 RES1               0.0000
      8 N8         127.1881 247.7906 355.8570 N.am           1 RES1               0.0000
      9 O9         125.4156 248.8820 354.9945 O.2            1 RES1               0.0000
     10 N10        126.9567 245.8538 357.1317 N.am           1 RES1               0.0000
     11 O11        124.9855 245.1899 357.9844 O.2            1 RES1               0.0000
     12 C12        124.3397 245.8397 354.4522 C.3            1 RES1               0.0000
     13 C13        122.5389 248.9173 359.0198 C.ar           1 RES1               0.0000
     14 C14        124.7444 249.7204 359.4326 C.ar           1 RES1               0.0000
     15 C15        127.7857 246.7211 356.4739 C.2            1 RES1               0.0000
     16 C16        123.3981 249.7290 359.7295 C.ar           1 RES1               0.0000
     17 O17        129.0022 246.5635 356.4245 O.2            1 RES1               0.0000
     18 H18        123.1898 245.8819 356.2592 H              1 RES1               0.0000
     19 H19        123.1614 247.3951 355.3362 H              1 RES1               0.0000
     20 H20        122.3335 247.4672 357.4658 H              1 RES1               0.0000
     21 H21        126.2955 248.9115 358.2114 H              1 RES1               0.0000
     22 H22        127.8035 248.4896 355.4532 H              1 RES1               0.0000
     23 H23        127.3873 245.0329 357.5452 H              1 RES1               0.0000
     24 H24        123.5225 245.4546 353.8460 H              1 RES1               0.0000
     25 H25        124.9372 246.5049 353.8323 H              1 RES1               0.0000
     26 H26        124.9654 245.0007 354.7498 H              1 RES1               0.0000
     27 H27        121.4783 248.9214 359.2487 H              1 RES1               0.0000
     28 H28        125.4241 250.3580 359.9881 H              1 RES1               0.0000
     29 H29        123.0169 250.3710 360.5167 H              1 RES1               0.0000
@<TRIPOS>BOND
    1    1    2 1     
    2    1    3 1     
    3    1    4 1     
    4    1    5 1     
    5    2    6 ar    
    6    2    7 ar    
    7    3    8 1     
    8    3    9 2     
    9    4   10 1     
   10    4   11 2     
   11    5   12 1     
   12    5   18 1     
   13    5   19 1     
   14    6   13 ar    
   15    6   20 1     
   16    7   14 ar    
   17    7   21 1     
   18    8   15 1     
   19    8   22 1     
   20   10   15 1     
   21   10   23 1     
   22   12   24 1     
   23   12   25 1     
   24   12   26 1     
   25   13   16 ar    
   26   13   27 1     
   27   14   16 ar    
   28   14   28 1     
   29   15   17 2     
   30   16   29 1     
@<TRIPOS>SUBSTRUCTURE
      1 RES1           1
@<TRIPOS>SET
DONOR_HYDROGENS      STATIC     ATOMS    <user>   **** ""
2 22 23
ATOM$RED        STATIC     ATOMS    COLORGROUP SYSTEM
2 22 23
@<TRIPOS>COMMENT
> <Gold.Version>
2022.3.0

> <Gold.Id.Protein>
unknown|5adg_clean|pdb

> <Gold.Protein.RotatedTorsions>
[ 5561 5545 5544 5541 ] final  114.27 input   60.03 | X-H torsion
[ 12878 12857 12856 12854 ] final  -32.02 input   60.00 | X-H torsion
[ 9086 9067 9066 9064 ] final   52.49 input   60.02 | X-H torsion
[ 8993 8977 8976 8973 ] final   64.12 input   60.01 | X-H torsion

> <Gold.Protein.ActiveResidues>
 TRP311  MET341  HIS342  TRP414  ALA417  ARG419  CYS420  VAL421  GLY422  LEU460 
 SER462  SER482  GLN483  ARG486  ALA502  ASN503  TYR567  GLY568  LEU569  PRO570 
 ALA571  VAL572  SER573  ASN574  MET575  LEU576  PHE589  SER590  GLY591  TRP592 
 TYR593  MET594  GLY595  GLU597  ILE598  ARG601  ARG608  ILE653  VAL654  TRP683 
 PHE709  GLU710  TYR711  GLN712  ASP714  HEM750  H4B760 

> <Gold.Protein.RotatedAtoms>
  127.3732  248.7524  362.0055 H   0  0  0  0  0  0  0  0  0  0  0  0  # atno 5561 bound_to 5545
  114.8452  244.1008  368.1397 H   0  0  0  0  0  0  0  0  0  0  0  0  # atno 8993 bound_to 8977
  122.5498  241.9233  361.0810 H   0  0  0  0  0  0  0  0  0  0  0  0  # atno 9086 bound_to 9067
  121.2468  253.5722  355.0730 H   0  0  0  0  0  0  0  0  0  0  0  0  # atno 12878 bound_to 12857
  127.8216  248.9054  363.5625 LP  0  0  0  0  0  0  0  0  0  0  0  0  # atno 13468 bound_to 5545
  128.7782  249.4867  362.3736 LP  0  0  0  0  0  0  0  0  0  0  0  0  # atno 13469 bound_to 5545
  120.8905  254.4828  353.7720 LP  0  0  0  0  0  0  0  0  0  0  0  0  # atno 13474 bound_to 12857
  119.7210  254.0891  354.8416 LP  0  0  0  0  0  0  0  0  0  0  0  0  # atno 13475 bound_to 12857
  123.4304  240.7041  360.4593 LP  0  0  0  0  0  0  0  0  0  0  0  0  # atno 13500 bound_to 9067
  122.9835  240.6740  362.0296 LP  0  0  0  0  0  0  0  0  0  0  0  0  # atno 13501 bound_to 9067
  115.4007  245.4940  368.7712 LP  0  0  0  0  0  0  0  0  0  0  0  0  # atno 13514 bound_to 8977
  116.1492  244.0835  369.1133 LP  0  0  0  0  0  0  0  0  0  0  0  0  # atno 13515 bound_to 8977

> <Gold.Score>
     Fitness  S(hb_ext) S(vdw_ext)  S(hb_int)    S(int)      intcor
     26.19       4.80      16.03       0.00      -0.66      -0.77

> <Gold.Goldscore.Fitness>
26.1857

> <Gold.Goldscore.Internal.Vdw>
-0.9356

> <Gold.Goldscore.Internal.Torsion>
-0.4922

> <Gold.Goldscore.External.Vdw>
16.0322

> <Gold.Goldscore.Internal.HBond>
0.0000

> <Gold.Goldscore.External.HBond>
4.8040

> <Gold.Goldscore.Internal.Correction>
-0.7653

> <Gold.Goldscore.Hbonds>
donor molecule, donor type, donor heavy atom, donor atom, acceptor molecule, acceptor atom, score
      P1  H  5682  5718       L1    17  0.80

> <Gold.Goldscore.Internal.Vdw.Weighted>
-0.9356

> <Gold.Goldscore.Internal.Torsion.Weighted>
-0.4922

> <Gold.Goldscore.External.Vdw.Weighted>
22.0443

> <Gold.Goldscore.Internal.HBond.Weighted>
0.0000

> <Gold.Goldscore.External.HBond.Weighted>
4.8040

> <Gold.Goldscore.Internal.Correction.Weighted>
-0.7653

> <Gold.Rescore>
     Score     S(PLP)   S(hbond)     S(cho)   S(metal)  DE(clash)   DE(tors)     intcor
     18.45     -18.85       0.00       0.00       0.00       0.00       0.20       ----

> <Gold.PLP.Fitness>
18.4539

> <Gold.PLP.PLP>
-18.8467

> <Gold.PLP.part.hbond>
-0.9498

> <Gold.PLP.part.metal>
0.0000

> <Gold.PLP.part.buried>
-5.3478

> <Gold.PLP.part.nonpolar>
-13.2402

> <Gold.PLP.part.repulsive>
0.4666

> <Gold.PLP.ligand.clash>
0.0000

> <Gold.PLP.ligand.torsion>
0.1964

> <Gold.PLP.Chemscore.Hbond>
0.0000

> <Gold.PLP.Chemscore.CHOScore>
0.0000

> <Gold.PLP.Chemscore.Metal>
0.0000

> <Gold.Chemscore.Hbonds>
donor molecule, donor type, donor heavy atom, donor atom, acceptor molecule, acceptor atom, score
      P1  H  5682  5718       L1    17  0.32

> <Gold.PLP.Chemscore.Internal.Correction>
   9.000000E+99

