#       Name:                CT1002167954
#       Creating user name   hitesit
#       Creation time:       Sun Apr 16 20:16:47 2023


#       File generated by GOLD software.
#

@<TRIPOS>MOLECULE
CT1002167954|ligand_prepared|mol2|1|dock7
    29    30     1
SMALL
NO_CHARGES


@<TRIPOS>ATOM
      1 C1         117.1657 246.4629 360.5498 C.3            1 RES1               0.0000
      2 C2         118.0810 247.4412 359.7857 C.ar           1 RES1               0.0000
      3 C3         116.0942 246.0164 359.5595 C.2            1 RES1               0.0000
      4 C4         118.0649 245.3350 361.0439 C.2            1 RES1               0.0000
      5 C5         116.4677 247.0907 361.7788 C.3            1 RES1               0.0000
      6 C6         119.0951 246.9649 358.9603 C.ar           1 RES1               0.0000
      7 C7         117.9220 248.8202 359.8939 C.ar           1 RES1               0.0000
      8 N8         116.1841 244.7508 359.0593 N.am           1 RES1               0.0000
      9 O9         115.2065 246.7765 359.1928 O.2            1 RES1               0.0000
     10 N10        117.8650 244.0815 360.5277 N.am           1 RES1               0.0000
     11 O11        118.9555 245.5239 361.8633 O.2            1 RES1               0.0000
     12 C12        115.7843 246.0752 362.6809 C.3            1 RES1               0.0000
     13 C13        119.9186 247.8354 358.2659 C.ar           1 RES1               0.0000
     14 C14        118.7468 249.6891 359.1987 C.ar           1 RES1               0.0000
     15 C15        116.9856 243.7445 359.5351 C.2            1 RES1               0.0000
     16 C16        119.7448 249.1979 358.3842 C.ar           1 RES1               0.0000
     17 O17        116.9018 242.6054 359.0850 O.2            1 RES1               0.0000
     18 H18        117.2139 247.6394 362.3666 H              1 RES1               0.0000
     19 H19        115.7193 247.8125 361.4293 H              1 RES1               0.0000
     20 H20        119.2486 245.8959 358.8567 H              1 RES1               0.0000
     21 H21        117.1441 249.2292 360.5297 H              1 RES1               0.0000
     22 H22        115.6014 244.5325 358.2573 H              1 RES1               0.0000
     23 H23        118.4235 243.3300 360.9198 H              1 RES1               0.0000
     24 H24        115.3106 246.5683 363.5272 H              1 RES1               0.0000
     25 H25        115.0182 245.5283 362.1351 H              1 RES1               0.0000
     26 H26        116.5039 245.3562 363.0669 H              1 RES1               0.0000
     27 H27        120.7035 247.4439 357.6272 H              1 RES1               0.0000
     28 H28        118.6067 250.7606 359.2953 H              1 RES1               0.0000
     29 H29        120.3898 249.8797 357.8397 H              1 RES1               0.0000
@<TRIPOS>BOND
    1    1    2 1     
    2    1    3 1     
    3    1    4 1     
    4    1    5 1     
    5    2    6 ar    
    6    2    7 ar    
    7    3    8 1     
    8    3    9 2     
    9    4   10 1     
   10    4   11 2     
   11    5   12 1     
   12    5   18 1     
   13    5   19 1     
   14    6   13 ar    
   15    6   20 1     
   16    7   14 ar    
   17    7   21 1     
   18    8   15 1     
   19    8   22 1     
   20   10   15 1     
   21   10   23 1     
   22   12   24 1     
   23   12   25 1     
   24   12   26 1     
   25   13   16 ar    
   26   13   27 1     
   27   14   16 ar    
   28   14   28 1     
   29   15   17 2     
   30   16   29 1     
@<TRIPOS>SUBSTRUCTURE
      1 RES1           1
@<TRIPOS>SET
DONOR_HYDROGENS      STATIC     ATOMS    <user>   **** ""
2 22 23
ATOM$RED        STATIC     ATOMS    COLORGROUP SYSTEM
2 22 23
@<TRIPOS>COMMENT
> <Gold.Version>
2022.3.0

> <Gold.Id.Protein>
unknown|5adg_clean|pdb

> <Gold.Protein.RotatedTorsions>
[ 5561 5545 5544 5541 ] final   24.73 input   60.03 | X-H torsion
[ 12878 12857 12856 12854 ] final   40.14 input   60.00 | X-H torsion
[ 9086 9067 9066 9064 ] final   52.04 input   60.02 | X-H torsion
[ 8993 8977 8976 8973 ] final -173.45 input   60.01 | X-H torsion

> <Gold.Protein.ActiveResidues>
 TRP311  MET341  HIS342  TRP414  ALA417  ARG419  CYS420  VAL421  GLY422  LEU460 
 SER462  SER482  GLN483  ARG486  ALA502  ASN503  TYR567  GLY568  LEU569  PRO570 
 ALA571  VAL572  SER573  ASN574  MET575  LEU576  PHE589  SER590  GLY591  TRP592 
 TYR593  MET594  GLY595  GLU597  ILE598  ARG601  ARG608  ILE653  VAL654  TRP683 
 PHE709  GLU710  TYR711  GLN712  ASP714  HEM750  H4B760 

> <Gold.Protein.RotatedAtoms>
  127.4355  248.7128  363.3224 H   0  0  0  0  0  0  0  0  0  0  0  0  # atno 5561 bound_to 5545
  116.1590  244.1215  369.1233 H   0  0  0  0  0  0  0  0  0  0  0  0  # atno 8993 bound_to 8977
  122.5518  241.9235  361.0740 H   0  0  0  0  0  0  0  0  0  0  0  0  # atno 9086 bound_to 9067
  120.1745  253.6873  355.3038 H   0  0  0  0  0  0  0  0  0  0  0  0  # atno 12878 bound_to 12857
  128.8016  249.4718  362.8681 LP  0  0  0  0  0  0  0  0  0  0  0  0  # atno 13468 bound_to 5545
  127.7354  248.9601  361.7420 LP  0  0  0  0  0  0  0  0  0  0  0  0  # atno 13469 bound_to 5545
  121.5442  253.8935  354.4493 LP  0  0  0  0  0  0  0  0  0  0  0  0  # atno 13474 bound_to 12857
  120.1472  254.5625  353.9320 LP  0  0  0  0  0  0  0  0  0  0  0  0  # atno 13475 bound_to 12857
  123.4324  240.6985  360.4635 LP  0  0  0  0  0  0  0  0  0  0  0  0  # atno 13500 bound_to 9067
  122.9796  240.6796  362.0324 LP  0  0  0  0  0  0  0  0  0  0  0  0  # atno 13501 bound_to 9067
  114.8584  244.0632  368.1469 LP  0  0  0  0  0  0  0  0  0  0  0  0  # atno 13514 bound_to 8977
  115.3687  245.4935  368.7473 LP  0  0  0  0  0  0  0  0  0  0  0  0  # atno 13515 bound_to 8977

> <Gold.Score>
     Fitness  S(hb_ext) S(vdw_ext)  S(hb_int)    S(int)      intcor
     45.66      10.00      26.03       0.00      -0.14      -0.77

> <Gold.Goldscore.Fitness>
45.6567

> <Gold.Goldscore.Internal.Vdw>
-0.3477

> <Gold.Goldscore.Internal.Torsion>
-0.5578

> <Gold.Goldscore.External.Vdw>
26.0341

> <Gold.Goldscore.Internal.HBond>
0.0000

> <Gold.Goldscore.External.HBond>
10.0000

> <Gold.Goldscore.Internal.Correction>
-0.7653

> <Gold.Goldscore.Hbonds>
donor molecule, donor type, donor heavy atom, donor atom, acceptor molecule, acceptor atom, score
      P1  M 13289 13530       L1     9  1.00

> <Gold.Goldscore.Internal.Vdw.Weighted>
-0.3477

> <Gold.Goldscore.Internal.Torsion.Weighted>
-0.5578

> <Gold.Goldscore.External.Vdw.Weighted>
35.7968

> <Gold.Goldscore.Internal.HBond.Weighted>
0.0000

> <Gold.Goldscore.External.HBond.Weighted>
10.0000

> <Gold.Goldscore.Internal.Correction.Weighted>
-0.7653

> <Gold.Rescore>
     Score     S(PLP)   S(hbond)     S(cho)   S(metal)  DE(clash)   DE(tors)     intcor
     48.51     -44.73       0.00       0.00       1.00       0.00       1.11       ----

> <Gold.PLP.Fitness>
48.5115

> <Gold.PLP.PLP>
-44.7290

> <Gold.PLP.part.hbond>
0.0000

> <Gold.PLP.part.metal>
-1.0000

> <Gold.PLP.part.buried>
4.0519

> <Gold.PLP.part.nonpolar>
-55.3378

> <Gold.PLP.part.repulsive>
5.4828

> <Gold.PLP.ligand.clash>
0.0000

> <Gold.PLP.ligand.torsion>
1.1087

> <Gold.PLP.Chemscore.Hbond>
0.0000

> <Gold.PLP.Chemscore.CHOScore>
0.0000

> <Gold.PLP.Chemscore.Metal>
1.0000

> <Gold.Chemscore.Hbonds>
donor molecule, donor type, donor heavy atom, donor atom, acceptor molecule, acceptor atom, score
      P1  M 13289 13289       L1     9  1.00

> <Gold.PLP.Chemscore.Internal.Correction>
   9.000000E+99

