#       Name:                CT1002167954
#       Creating user name   hitesit
#       Creation time:       Sun Apr 16 20:16:42 2023


#       File generated by GOLD software.
#

@<TRIPOS>MOLECULE
CT1002167954|ligand_prepared|mol2|1|dock1
    29    30     1
SMALL
NO_CHARGES


@<TRIPOS>ATOM
      1 C1         122.3731 248.3635 358.0073 C.3            1 RES1               0.0000
      2 C2         121.2457 247.3473 358.2813 C.ar           1 RES1               0.0000
      3 C3         121.7400 249.5019 357.2126 C.2            1 RES1               0.0000
      4 C4         122.9116 248.7813 359.3712 C.2            1 RES1               0.0000
      5 C5         123.5491 247.7857 357.1859 C.3            1 RES1               0.0000
      6 C6         119.9324 247.7748 358.4517 C.ar           1 RES1               0.0000
      7 C7         121.5027 245.9814 358.3637 C.ar           1 RES1               0.0000
      8 N8         121.5215 250.6808 357.8624 N.am           1 RES1               0.0000
      9 O9         121.4014 249.3547 356.0448 O.2            1 RES1               0.0000
     10 N10        122.7332 250.0829 359.7608 N.am           1 RES1               0.0000
     11 O11        123.4741 247.9909 360.1191 O.2            1 RES1               0.0000
     12 C12        124.5550 248.8330 356.7350 C.3            1 RES1               0.0000
     13 C13        118.9123 246.8694 358.6927 C.ar           1 RES1               0.0000
     14 C14        120.4811 245.0776 358.6050 C.ar           1 RES1               0.0000
     15 C15        122.0355 251.0439 359.0813 C.2            1 RES1               0.0000
     16 C16        119.1858 245.5204 358.7690 C.ar           1 RES1               0.0000
     17 O17        121.8719 252.1779 359.5221 O.2            1 RES1               0.0000
     18 H18        124.0693 247.0352 357.7938 H              1 RES1               0.0000
     19 H19        123.1460 247.2791 356.3004 H              1 RES1               0.0000
     20 H20        119.6983 248.8328 358.3974 H              1 RES1               0.0000
     21 H21        122.5143 245.6104 358.2389 H              1 RES1               0.0000
     22 H22        120.9203 251.3549 357.3992 H              1 RES1               0.0000
     23 H23        123.1602 250.3611 360.6386 H              1 RES1               0.0000
     24 H24        125.3590 248.3746 356.1631 H              1 RES1               0.0000
     25 H25        124.0769 249.5820 356.1071 H              1 RES1               0.0000
     26 H26        124.9947 249.3396 357.5917 H              1 RES1               0.0000
     27 H27        117.8948 247.2231 358.8225 H              1 RES1               0.0000
     28 H28        120.7011 244.0169 358.6649 H              1 RES1               0.0000
     29 H29        118.3865 244.8113 358.9575 H              1 RES1               0.0000
@<TRIPOS>BOND
    1    1    2 1     
    2    1    3 1     
    3    1    4 1     
    4    1    5 1     
    5    2    6 ar    
    6    2    7 ar    
    7    3    8 1     
    8    3    9 2     
    9    4   10 1     
   10    4   11 2     
   11    5   12 1     
   12    5   18 1     
   13    5   19 1     
   14    6   13 ar    
   15    6   20 1     
   16    7   14 ar    
   17    7   21 1     
   18    8   15 1     
   19    8   22 1     
   20   10   15 1     
   21   10   23 1     
   22   12   24 1     
   23   12   25 1     
   24   12   26 1     
   25   13   16 ar    
   26   13   27 1     
   27   14   16 ar    
   28   14   28 1     
   29   15   17 2     
   30   16   29 1     
@<TRIPOS>SUBSTRUCTURE
      1 RES1           1
@<TRIPOS>SET
DONOR_HYDROGENS      STATIC     ATOMS    <user>   **** ""
2 22 23
ATOM$RED        STATIC     ATOMS    COLORGROUP SYSTEM
2 22 23
@<TRIPOS>COMMENT
> <Gold.Version>
2022.3.0

> <Gold.Id.Protein>
unknown|5adg_clean|pdb

> <Gold.Protein.RotatedTorsions>
[ 5561 5545 5544 5541 ] final   93.30 input   60.03 | X-H torsion
[ 12878 12857 12856 12854 ] final  110.80 input   60.00 | X-H torsion
[ 9086 9067 9066 9064 ] final   37.53 input   60.02 | X-H torsion
[ 8993 8977 8976 8973 ] final  151.63 input   60.01 | X-H torsion

> <Gold.Protein.ActiveResidues>
 TRP311  MET341  HIS342  TRP414  ALA417  ARG419  CYS420  VAL421  GLY422  LEU460 
 SER462  SER482  GLN483  ARG486  ALA502  ASN503  TYR567  GLY568  LEU569  PRO570 
 ALA571  VAL572  SER573  ASN574  MET575  LEU576  PHE589  SER590  GLY591  TRP592 
 TYR593  MET594  GLY595  GLU597  ILE598  ARG601  ARG608  ILE653  VAL654  TRP683 
 PHE709  GLU710  TYR711  GLN712  ASP714  HEM750  H4B760 

> <Gold.Protein.RotatedAtoms>
  127.2176  248.6527  362.2920 H   0  0  0  0  0  0  0  0  0  0  0  0  # atno 5561 bound_to 5545
  115.8664  243.7307  368.8450 H   0  0  0  0  0  0  0  0  0  0  0  0  # atno 8993 bound_to 8977
  122.6307  241.9000  360.8523 H   0  0  0  0  0  0  0  0  0  0  0  0  # atno 9086 bound_to 9067
  119.7175  254.2904  354.5291 H   0  0  0  0  0  0  0  0  0  0  0  0  # atno 12878 bound_to 12857
  128.1238  249.0673  363.5788 LP  0  0  0  0  0  0  0  0  0  0  0  0  # atno 13468 bound_to 5545
  128.6326  249.4252  362.0689 LP  0  0  0  0  0  0  0  0  0  0  0  0  # atno 13469 bound_to 5545
  120.9396  253.5168  355.2750 LP  0  0  0  0  0  0  0  0  0  0  0  0  # atno 13474 bound_to 12857
  121.2121  254.3318  353.8864 LP  0  0  0  0  0  0  0  0  0  0  0  0  # atno 13475 bound_to 12857
  123.4802  240.5305  360.6254 LP  0  0  0  0  0  0  0  0  0  0  0  0  # atno 13500 bound_to 9067
  122.8523  240.8712  362.0938 LP  0  0  0  0  0  0  0  0  0  0  0  0  # atno 13501 bound_to 9067
  114.7050  244.6069  368.1159 LP  0  0  0  0  0  0  0  0  0  0  0  0  # atno 13514 bound_to 8977
  115.8167  245.3432  369.0585 LP  0  0  0  0  0  0  0  0  0  0  0  0  # atno 13515 bound_to 8977

> <Gold.Score>
     Fitness  S(hb_ext) S(vdw_ext)  S(hb_int)    S(int)      intcor
     35.07       6.78      20.99       0.00      -0.57      -0.77

> <Gold.Goldscore.Fitness>
35.0665

> <Gold.Goldscore.Internal.Vdw>
-0.8422

> <Gold.Goldscore.Internal.Torsion>
-0.4935

> <Gold.Goldscore.External.Vdw>
20.9879

> <Gold.Goldscore.Internal.HBond>
0.0000

> <Gold.Goldscore.External.HBond>
6.7787

> <Gold.Goldscore.Internal.Correction>
-0.7653

> <Gold.Goldscore.Hbonds>
donor molecule, donor type, donor heavy atom, donor atom, acceptor molecule, acceptor atom, score
      P1  H  5569  5595       L1    11  0.40
      L1  H     8    22       P1 13273  1.00

> <Gold.Goldscore.Internal.Vdw.Weighted>
-0.8422

> <Gold.Goldscore.Internal.Torsion.Weighted>
-0.4935

> <Gold.Goldscore.External.Vdw.Weighted>
28.8583

> <Gold.Goldscore.Internal.HBond.Weighted>
0.0000

> <Gold.Goldscore.External.HBond.Weighted>
6.7787

> <Gold.Goldscore.Internal.Correction.Weighted>
-0.7653

> <Gold.Rescore>
     Score     S(PLP)   S(hbond)     S(cho)   S(metal)  DE(clash)   DE(tors)     intcor
     33.03     -29.86       1.74       0.00       0.00       0.00       1.02       ----

> <Gold.PLP.Fitness>
33.0276

> <Gold.PLP.PLP>
-29.8578

> <Gold.PLP.part.hbond>
-2.0000

> <Gold.PLP.part.metal>
0.0000

> <Gold.PLP.part.buried>
-4.2769

> <Gold.PLP.part.nonpolar>
-26.4922

> <Gold.PLP.part.repulsive>
2.2565

> <Gold.PLP.ligand.clash>
0.0005

> <Gold.PLP.ligand.torsion>
1.0178

> <Gold.PLP.Chemscore.Hbond>
1.7353

> <Gold.PLP.Chemscore.CHOScore>
0.0000

> <Gold.PLP.Chemscore.Metal>
0.0000

> <Gold.Chemscore.Hbonds>
donor molecule, donor type, donor heavy atom, donor atom, acceptor molecule, acceptor atom, score
      L1  H     8    22       P1 13273  1.00
      P1  H  5569  5595       L1    11  1.00

> <Gold.PLP.Chemscore.Internal.Correction>
   9.000000E+99

