#       Name:                CT1002167954
#       Creating user name   hitesit
#       Creation time:       Sun Apr 16 20:16:44 2023


#       File generated by GOLD software.
#

@<TRIPOS>MOLECULE
CT1002167954|ligand_prepared|mol2|1|dock4
    29    30     1
SMALL
NO_CHARGES


@<TRIPOS>ATOM
      1 C1         122.4577 248.6825 358.1094 C.3            1 RES1               0.0000
      2 C2         121.3113 247.6890 358.3882 C.ar           1 RES1               0.0000
      3 C3         121.8753 249.7664 357.2070 C.2            1 RES1               0.0000
      4 C4         122.9233 249.1894 359.4698 C.2            1 RES1               0.0000
      5 C5         123.6735 248.0487 357.3940 C.3            1 RES1               0.0000
      6 C6         121.5812 246.3453 358.6297 C.ar           1 RES1               0.0000
      7 C7         119.9816 248.1012 358.4098 C.ar           1 RES1               0.0000
      8 N8         121.6283 250.9866 357.7638 N.am           1 RES1               0.0000
      9 O9         121.6001 249.5421 356.0347 O.2            1 RES1               0.0000
     10 N10        122.7311 250.5145 359.7614 N.am           1 RES1               0.0000
     11 O11        123.4397 248.4498 360.2984 O.2            1 RES1               0.0000
     12 C12        124.6456 249.0667 356.8188 C.3            1 RES1               0.0000
     13 C13        120.5590 245.4467 358.8864 C.ar           1 RES1               0.0000
     14 C14        118.9609 247.2008 358.6666 C.ar           1 RES1               0.0000
     15 C15        122.0770 251.4293 358.9821 C.2            1 RES1               0.0000
     16 C16        119.2484 245.8738 358.9055 C.ar           1 RES1               0.0000
     17 O17        121.8959 252.5906 359.3368 O.2            1 RES1               0.0000
     18 H18        124.2105 247.4118 358.1077 H              1 RES1               0.0000
     19 H19        123.3104 247.4085 356.5806 H              1 RES1               0.0000
     20 H20        122.6063 245.9903 358.6163 H              1 RES1               0.0000
     21 H21        119.7318 249.1402 358.2236 H              1 RES1               0.0000
     22 H22        121.0571 251.6293 357.2244 H              1 RES1               0.0000
     23 H23        123.1111 250.8500 360.6408 H              1 RES1               0.0000
     24 H24        125.4796 248.5693 356.3282 H              1 RES1               0.0000
     25 H25        124.1510 249.7012 356.0862 H              1 RES1               0.0000
     26 H26        125.0459 249.7044 357.6043 H              1 RES1               0.0000
     27 H27        120.7904 244.4031 359.0725 H              1 RES1               0.0000
     28 H28        117.9307 247.5413 358.6800 H              1 RES1               0.0000
     29 H29        118.4478 245.1697 359.1070 H              1 RES1               0.0000
@<TRIPOS>BOND
    1    1    2 1     
    2    1    3 1     
    3    1    4 1     
    4    1    5 1     
    5    2    6 ar    
    6    2    7 ar    
    7    3    8 1     
    8    3    9 2     
    9    4   10 1     
   10    4   11 2     
   11    5   12 1     
   12    5   18 1     
   13    5   19 1     
   14    6   13 ar    
   15    6   20 1     
   16    7   14 ar    
   17    7   21 1     
   18    8   15 1     
   19    8   22 1     
   20   10   15 1     
   21   10   23 1     
   22   12   24 1     
   23   12   25 1     
   24   12   26 1     
   25   13   16 ar    
   26   13   27 1     
   27   14   16 ar    
   28   14   28 1     
   29   15   17 2     
   30   16   29 1     
@<TRIPOS>SUBSTRUCTURE
      1 RES1           1
@<TRIPOS>SET
DONOR_HYDROGENS      STATIC     ATOMS    <user>   **** ""
2 22 23
ATOM$RED        STATIC     ATOMS    COLORGROUP SYSTEM
2 22 23
@<TRIPOS>COMMENT
> <Gold.Version>
2022.3.0

> <Gold.Id.Protein>
unknown|5adg_clean|pdb

> <Gold.Protein.RotatedTorsions>
[ 5561 5545 5544 5541 ] final  -46.00 input   60.03 | X-H torsion
[ 12878 12857 12856 12854 ] final   71.17 input   60.00 | X-H torsion
[ 9086 9067 9066 9064 ] final    5.31 input   60.02 | X-H torsion
[ 8993 8977 8976 8973 ] final  154.21 input   60.01 | X-H torsion

> <Gold.Protein.ActiveResidues>
 TRP311  MET341  HIS342  TRP414  ALA417  ARG419  CYS420  VAL421  GLY422  LEU460 
 SER462  SER482  GLN483  ARG486  ALA502  ASN503  TYR567  GLY568  LEU569  PRO570 
 ALA571  VAL572  SER573  ASN574  MET575  LEU576  PHE589  SER590  GLY591  TRP592 
 TYR593  MET594  GLY595  GLU597  ILE598  ARG601  ARG608  ILE653  VAL654  TRP683 
 PHE709  GLU710  TYR711  GLN712  ASP714  HEM750  H4B760 

> <Gold.Protein.RotatedAtoms>
  128.3835  249.2148  363.4786 H   0  0  0  0  0  0  0  0  0  0  0  0  # atno 5561 bound_to 5545
  115.8948  243.7505  368.8691 H   0  0  0  0  0  0  0  0  0  0  0  0  # atno 8993 bound_to 8977
  122.8774  241.6729  360.4553 H   0  0  0  0  0  0  0  0  0  0  0  0  # atno 9086 bound_to 9067
  119.8255  253.9366  355.0449 H   0  0  0  0  0  0  0  0  0  0  0  0  # atno 12878 bound_to 12857
  128.4227  249.3240  361.8552 LP  0  0  0  0  0  0  0  0  0  0  0  0  # atno 13468 bound_to 5545
  127.1597  248.6025  362.5976 LP  0  0  0  0  0  0  0  0  0  0  0  0  # atno 13469 bound_to 5545
  121.4192  253.6537  354.8751 LP  0  0  0  0  0  0  0  0  0  0  0  0  # atno 13474 bound_to 12857
  120.6237  254.5512  353.7667 LP  0  0  0  0  0  0  0  0  0  0  0  0  # atno 13475 bound_to 12857
  123.4727  240.2999  361.0950 LP  0  0  0  0  0  0  0  0  0  0  0  0  # atno 13500 bound_to 9067
  122.6115  241.3304  362.0239 LP  0  0  0  0  0  0  0  0  0  0  0  0  # atno 13501 bound_to 9067
  114.7071  244.5648  368.1110 LP  0  0  0  0  0  0  0  0  0  0  0  0  # atno 13514 bound_to 8977
  115.7861  245.3654  369.0391 LP  0  0  0  0  0  0  0  0  0  0  0  0  # atno 13515 bound_to 8977

> <Gold.Score>
     Fitness  S(hb_ext) S(vdw_ext)  S(hb_int)    S(int)      intcor
     34.66       6.71      20.90       0.00      -0.80      -0.77

> <Gold.Goldscore.Fitness>
34.6598

> <Gold.Goldscore.Internal.Vdw>
-0.8806

> <Gold.Goldscore.Internal.Torsion>
-0.6811

> <Gold.Goldscore.External.Vdw>
20.9029

> <Gold.Goldscore.Internal.HBond>
0.0000

> <Gold.Goldscore.External.HBond>
6.7148

> <Gold.Goldscore.Internal.Correction>
-0.7653

> <Gold.Goldscore.Hbonds>
donor molecule, donor type, donor heavy atom, donor atom, acceptor molecule, acceptor atom, score
      P1  H  5569  5595       L1    11  0.34
      L1  H     8    22       P1 13273  1.00
      L1  H    10    23       P1  8505  0.02

> <Gold.Goldscore.Internal.Vdw.Weighted>
-0.8806

> <Gold.Goldscore.Internal.Torsion.Weighted>
-0.6811

> <Gold.Goldscore.External.Vdw.Weighted>
28.7414

> <Gold.Goldscore.Internal.HBond.Weighted>
0.0000

> <Gold.Goldscore.External.HBond.Weighted>
6.7148

> <Gold.Goldscore.Internal.Correction.Weighted>
-0.7653

> <Gold.Rescore>
     Score     S(PLP)   S(hbond)     S(cho)   S(metal)  DE(clash)   DE(tors)     intcor
     33.51     -30.74       1.51       0.00       0.00       0.00       0.88       ----

> <Gold.PLP.Fitness>
33.5131

> <Gold.PLP.PLP>
-30.7377

> <Gold.PLP.part.hbond>
-2.0000

> <Gold.PLP.part.metal>
0.0000

> <Gold.PLP.part.buried>
-2.4864

> <Gold.PLP.part.nonpolar>
-28.5225

> <Gold.PLP.part.repulsive>
2.3366

> <Gold.PLP.ligand.clash>
0.0000

> <Gold.PLP.ligand.torsion>
0.8787

> <Gold.PLP.Chemscore.Hbond>
1.5109

> <Gold.PLP.Chemscore.CHOScore>
0.0000

> <Gold.PLP.Chemscore.Metal>
0.0000

> <Gold.Chemscore.Hbonds>
donor molecule, donor type, donor heavy atom, donor atom, acceptor molecule, acceptor atom, score
      L1  H     8    22       P1 13273  0.99
      P1  H  5569  5595       L1    11  0.99

> <Gold.PLP.Chemscore.Internal.Correction>
   9.000000E+99

