@<TRIPOS>MOLECULE
A:GG5401
    28    30     1     0     1
SMALL
NO_CHARGES
****
Generated from the CSD

@<TRIPOS>ATOM
     1 C1      89.4340  92.3530  10.1300   C.ar      1 GG5401   0.0000
     2 N2      89.5290  92.5490   8.8050   N.ar      1 GG5401   0.0000
     3 C3      89.9100  91.5790   7.9670   C.ar      1 GG5401   0.0000
     4 C4      90.2150  90.3170   8.4690   C.ar      1 GG5401   0.0000
     5 C5      90.1410  90.0940   9.8510   C.ar      1 GG5401   0.0000
     6 C6      89.7170  91.1110  10.6870   C.ar      1 GG5401   0.0000
     7 C7      90.4170  88.7370  10.3820   C.2       1 GG5401   0.0000
     8 C8      90.0840  87.5810   9.6850   C.2       1 GG5401   0.0000
     9 N9      90.4380  86.5550  10.4720   N.pl3     1 GG5401   0.0000
    10 N11     90.9740  86.9570  11.6990   N.2       1 GG5401   0.0000
    11 C12     90.9530  88.2980  11.7090   C.2       1 GG5401   0.0000
    12 C13     91.5090  89.0800  12.8200   C.ar      1 GG5401   0.0000
    13 C14     91.1570  88.7840  14.1330   C.ar      1 GG5401   0.0000
    14 C15     91.7130  89.5050  15.1780   C.ar      1 GG5401   0.0000
    15 C16     92.6620  90.4930  14.9040   C.ar      1 GG5401   0.0000
    16 C17     93.0150  90.7930  13.5920   C.ar      1 GG5401   0.0000
    17 C18     92.4500  90.0610  12.5480   C.ar      1 GG5401   0.0000
    18 F19     93.2100  91.1850  15.9110   F         1 GG5401   0.0000
    19 H1      89.6274  87.5210   8.6982   H         1 GG5401   0.0000
    20 H2      90.3277  85.5824  10.2035   H         1 GG5401   0.0000
    21 H3      89.1318  93.1763  10.7756   H         1 GG5401   0.0000
    22 H4      89.9812  91.7752   6.8982   H         1 GG5401   0.0000
    23 H5      90.5077  89.5124   7.7960   H         1 GG5401   0.0000
    24 H6      92.7479  90.2599  11.5196   H         1 GG5401   0.0000
    25 H7      89.6073  90.9427  11.7573   H         1 GG5401   0.0000
    26 H8      91.4124  89.3029  16.2050   H         1 GG5401   0.0000
    27 H9      90.4450  87.9863  14.3396   H         1 GG5401   0.0000
    28 H10     93.7253  91.5914  13.3824   H         1 GG5401   0.0000
@<TRIPOS>BOND
     1     1     2   ar
     2     2     3   ar
     3     3     4   ar
     4     4     5   ar
     5     1     6   ar
     6     5     6   ar
     7     5     7    1
     8     7     8    2
     9     8     9    1
    10     9    10    1
    11     7    11    1
    12    10    11    2
    13    11    12    1
    14    12    13   ar
    15    13    14   ar
    16    14    15   ar
    17    15    16   ar
    18    12    17   ar
    19    16    17   ar
    20    15    18    1
    21     8    19    1
    22     9    20    1
    23     1    21    1
    24     3    22    1
    25     4    23    1
    26    17    24    1
    27     6    25    1
    28    14    26    1
    29    13    27    1
    30    16    28    1
@<TRIPOS>SUBSTRUCTURE
     1 GG5401      1 GROUP             0 A     GG5     0  
@<TRIPOS>SET
CCDC_LIGAND STATIC ATOMS
28 1 2 3 4 5 6 7 8 9 \
10 11 12 13 14 15 16 17 18 19 \
20 21 22 23 24 25 26 27 28 
