@<TRIPOS>MOLECULE
A:3GF402
    52    56     1     0     1
SMALL
NO_CHARGES
****
Generated from the CSD

@<TRIPOS>ATOM
     1 C1      60.3510  74.9000  17.8450   C.ar      1 3GF402   0.0000
     2 C2      59.4630  74.4400  16.8810   C.ar      1 3GF402   0.0000
     3 C3      59.8580  74.3820  15.5480   C.ar      1 3GF402   0.0000
     4 C4      61.1340  74.7900  15.1520   C.ar      1 3GF402   0.0000
     5 C5      62.0520  75.2630  16.0830   C.ar      1 3GF402   0.0000
     6 C6      61.7040  75.3340  17.4290   C.ar      1 3GF402   0.0000
     7 C7      62.6010  75.7750  18.3820   C.ar      1 3GF402   0.0000
     8 C8      62.2240  75.8170  19.7140   C.ar      1 3GF402   0.0000
     9 C9      60.9420  75.4260  20.1060   C.ar      1 3GF402   0.0000
    10 C10     60.0040  74.9670  19.1760   C.ar      1 3GF402   0.0000
    11 C11     63.2190  76.3050  20.6990   C.ar      1 3GF402   0.0000
    12 N12     63.7320  77.5180  20.4860   N.ar      1 3GF402   0.0000
    13 N13     64.6850  78.0470  21.3460   N.ar      1 3GF402   0.0000
    14 C14     65.1270  77.3960  22.4250   C.ar      1 3GF402   0.0000
    15 C15     64.6210  76.1110  22.6580   C.ar      1 3GF402   0.0000
    16 C16     63.6560  75.5680  21.8060   C.ar      1 3GF402   0.0000
    17 C17     63.2170  74.1800  22.1230   C.ar      1 3GF402   0.0000
    18 N18     66.1090  78.0090  23.2490   N.pl3     1 3GF402   0.0000
    19 C19     63.2510  73.2000  21.1380   C.ar      1 3GF402   0.0000
    20 C20     62.8950  71.8960  21.4570   C.ar      1 3GF402   0.0000
    21 N21     62.5520  71.5710  22.7160   N.ar      1 3GF402   0.0000
    22 C22     62.5140  72.4970  23.6870   C.ar      1 3GF402   0.0000
    23 C23     62.8790  73.8110  23.4250   C.ar      1 3GF402   0.0000
    24 C24     66.7720  79.2270  22.7690   C.3       1 3GF402   0.0000
    25 C25     67.1620  80.0820  23.9620   C.3       1 3GF402   0.0000
    26 N26     67.9910  79.3120  24.8900   N.3       1 3GF402   0.0000
    27 C27     67.1760  78.2600  25.5120   C.3       1 3GF402   0.0000
    28 C28     66.4740  77.3430  24.5140   C.3       1 3GF402   0.0000
    29 C29     68.4330  80.1880  25.9880   C.3       1 3GF402   0.0000
    30 H1      64.9814  75.5324  23.5072   H         1 3GF402   0.0000
    31 H2      63.0430  75.5778  15.7593   H         1 3GF402   0.0000
    32 H3      60.6669  75.4797  21.1583   H         1 3GF402   0.0000
    33 H4      63.6013  76.0886  18.0871   H         1 3GF402   0.0000
    34 H5      59.0093  74.6656  19.5010   H         1 3GF402   0.0000
    35 H6      67.5628  80.5782  26.5138   H         1 3GF402   0.0000
    36 H7      69.0504  79.6182  26.6809   H         1 3GF402   0.0000
    37 H8      69.0126  81.0154  25.5814   H         1 3GF402   0.0000
    38 H9      67.1389  76.5115  24.2850   H         1 3GF402   0.0000
    39 H10     65.5644  76.9635  24.9772   H         1 3GF402   0.0000
    40 H11     66.4171  78.7364  26.1309   H         1 3GF402   0.0000
    41 H12     67.8251  77.6502  26.1386   H         1 3GF402   0.0000
    42 H13     66.2610  80.4139  24.4759   H         1 3GF402   0.0000
    43 H14     67.7221  80.9490  23.6147   H         1 3GF402   0.0000
    44 H15     66.0911  79.7845  22.1275   H         1 3GF402   0.0000
    45 H16     67.6642  78.9588  22.2051   H         1 3GF402   0.0000
    46 H17     62.9011  74.5461  24.2281   H         1 3GF402   0.0000
    47 H18     61.4133  74.7369  14.1008   H         1 3GF402   0.0000
    48 H19     59.1592  74.0116  14.7994   H         1 3GF402   0.0000
    49 H20     58.4605  74.1256  17.1676   H         1 3GF402   0.0000
    50 H21     62.1941  72.2153  24.6891   H         1 3GF402   0.0000
    51 H22     62.8936  71.1311  20.6819   H         1 3GF402   0.0000
    52 H23     63.5547  73.4528  20.1232   H         1 3GF402   0.0000
@<TRIPOS>BOND
     1     1     2   ar
     2     2     3   ar
     3     3     4   ar
     4     4     5   ar
     5     1     6   ar
     6     5     6   ar
     7     6     7   ar
     8     7     8   ar
     9     8     9   ar
    10     1    10   ar
    11     9    10   ar
    12     8    11    1
    13    11    12   ar
    14    12    13   ar
    15    13    14   ar
    16    14    15   ar
    17    11    16   ar
    18    15    16   ar
    19    16    17    1
    20    14    18    1
    21    17    19   ar
    22    19    20   ar
    23    20    21   ar
    24    21    22   ar
    25    17    23   ar
    26    22    23   ar
    27    18    24    1
    28    24    25    1
    29    25    26    1
    30    26    27    1
    31    18    28    1
    32    27    28    1
    33    26    29    1
    34    15    30    1
    35     5    31    1
    36     9    32    1
    37     7    33    1
    38    10    34    1
    39    29    35    1
    40    29    36    1
    41    29    37    1
    42    28    38    1
    43    28    39    1
    44    27    40    1
    45    27    41    1
    46    25    42    1
    47    25    43    1
    48    24    44    1
    49    24    45    1
    50    23    46    1
    51     4    47    1
    52     3    48    1
    53     2    49    1
    54    22    50    1
    55    20    51    1
    56    19    52    1
@<TRIPOS>SUBSTRUCTURE
     1 3GF402      1 GROUP             0 A     3GF     0  
@<TRIPOS>SET
CCDC_LIGAND STATIC ATOMS
52 1 2 3 4 5 6 7 8 9 \
10 11 12 13 14 15 16 17 18 19 \
20 21 22 23 24 25 26 27 28 29 \
30 31 32 33 34 35 36 37 38 39 \
40 41 42 43 44 45 46 47 48 49 \
50 51 52 
