@<TRIPOS>MOLECULE
A:K7U803
    30    31     1     0     1
SMALL
NO_CHARGES
****
Generated from the CSD

@<TRIPOS>ATOM
     1 N01    259.6810 350.7660 -58.6840   N.ar      1 K7U803   0.0000
     2 C02    258.4460 351.3140 -58.6590   C.ar      1 K7U803   0.0000
     3 N02    257.5150 350.8730 -57.7680   N.pl3     1 K7U803   0.0000
     4 C03    258.1460 352.3520 -59.5420   C.ar      1 K7U803   0.0000
     5 C04    259.1180 352.8100 -60.4300   C.ar      1 K7U803   0.0000
     6 C05    260.3650 352.2190 -60.4310   C.ar      1 K7U803   0.0000
     7 C06    260.6350 351.1770 -59.5500   C.ar      1 K7U803   0.0000
     8 C07    258.8410 353.9380 -61.3960   C.3       1 K7U803   0.0000
     9 C08    261.8340 350.6930 -59.5150   C.1       1 K7U803   0.0000
    10 C09    262.9930 350.4430 -59.3900   C.1       1 K7U803   0.0000
    11 C10    264.4260 350.1830 -59.1350   C.3       1 K7U803   0.0000
    12 N11    265.0700 349.3260 -60.1480   N.3       1 K7U803   0.0000
    13 C12    266.1650 349.9630 -60.9090   C.3       1 K7U803   0.0000
    14 C13    265.5080 349.5040 -62.1940   C.3       1 K7U803   0.0000
    15 C14    264.2930 349.0870 -61.3810   C.3       1 K7U803   0.0000
    16 F15    266.1680 348.5080 -62.7570   F         1 K7U803   0.0000
    17 F16    265.2510 350.4750 -63.0500   F         1 K7U803   0.0000
    18 H1     263.4285 349.7385 -61.4999   H         1 K7U803   0.0000
    19 H2     263.9897 348.0512 -61.5265   H         1 K7U803   0.0000
    20 H3     267.1474 349.5292 -60.7284   H         1 K7U803   0.0000
    21 H4     266.2193 351.0447 -60.7952   H         1 K7U803   0.0000
    22 H5     264.5183 349.6957 -58.1655   H         1 K7U803   0.0000
    23 H6     264.9485 351.1382 -59.1124   H         1 K7U803   0.0000
    24 H7     258.5733 354.8350 -60.8395   H         1 K7U803   0.0000
    25 H8     259.7316 354.1327 -61.9917   H         1 K7U803   0.0000
    26 H9     258.0185 353.6594 -62.0531   H         1 K7U803   0.0000
    27 H10    261.1344 352.5669 -61.1186   H         1 K7U803   0.0000
    28 H11    257.1549 352.8032 -59.5374   H         1 K7U803   0.0000
    29 H12    256.5891 351.2885 -57.7540   H         1 K7U803   0.0000
    30 H13    257.7471 350.1288 -57.1180   H         1 K7U803   0.0000
@<TRIPOS>BOND
     1     1     2   ar
     2     2     3    1
     3     2     4   ar
     4     4     5   ar
     5     5     6   ar
     6     1     7   ar
     7     6     7   ar
     8     5     8    1
     9     7     9    1
    10     9    10    3
    11    10    11    1
    12    11    12    1
    13    12    13    1
    14    13    14    1
    15    12    15    1
    16    14    15    1
    17    14    16    1
    18    14    17    1
    19    15    18    1
    20    15    19    1
    21    13    20    1
    22    13    21    1
    23    11    22    1
    24    11    23    1
    25     8    24    1
    26     8    25    1
    27     8    26    1
    28     6    27    1
    29     4    28    1
    30     3    29    1
    31     3    30    1
@<TRIPOS>SUBSTRUCTURE
     1 K7U803      1 GROUP             0 A     K7U     0  
@<TRIPOS>SET
CCDC_LIGAND STATIC ATOMS
30 1 2 3 4 5 6 7 8 9 \
10 11 12 13 14 15 16 17 18 19 \
20 21 22 23 24 25 26 27 28 29 \
30 
