#       Name:                CT1002167954
#       Creating user name   hitesit
#       Creation time:       Sun Apr 16 02:21:24 2023


#       File generated by GOLD software.
#

@<TRIPOS>MOLECULE
CT1002167954|ligand_prepared|mol2|1|dock1
    29    30     1
SMALL
NO_CHARGES


@<TRIPOS>ATOM
      1 C1          18.6374  26.3926  11.1719 C.3            1 RES1               0.0000
      2 C2          17.7516  27.2620  12.0875 C.ar           1 RES1               0.0000
      3 C3          17.7523  25.2528  10.6763 C.2            1 RES1               0.0000
      4 C4          19.1422  27.3139  10.0669 C.2            1 RES1               0.0000
      5 C5          19.8670  25.7848  11.8861 C.3            1 RES1               0.0000
      6 C6          18.3070  28.2927  12.8397 C.ar           1 RES1               0.0000
      7 C7          16.3796  27.0474  12.1882 C.ar           1 RES1               0.0000
      8 N8          17.3305  25.2980   9.3801 N.am           1 RES1               0.0000
      9 O9          17.3974  24.3485  11.4224 O.2            1 RES1               0.0000
     10 N10         18.7231  27.0692   8.7854 N.am           1 RES1               0.0000
     11 O11         19.8860  28.2596  10.2968 O.2            1 RES1               0.0000
     12 C12         20.8396  25.0888  10.9471 C.3            1 RES1               0.0000
     13 C13         17.5190  29.0823  13.6606 C.ar           1 RES1               0.0000
     14 C14         15.5934  27.8381  13.0099 C.ar           1 RES1               0.0000
     15 C15         17.8158  26.1217   8.3964 C.2            1 RES1               0.0000
     16 C16         16.1617  28.8559  13.7459 C.ar           1 RES1               0.0000
     17 O17         17.4473  25.9982   7.2319 O.2            1 RES1               0.0000
     18 H18         20.3989  26.5848  12.4158 H              1 RES1               0.0000
     19 H19         19.5192  25.0613  12.6338 H              1 RES1               0.0000
     20 H20         19.3736  28.4843  12.7874 H              1 RES1               0.0000
     21 H21         15.9109  26.2517  11.6191 H              1 RES1               0.0000
     22 H22         16.5854  24.6606   9.1181 H              1 RES1               0.0000
     23 H23         19.1248  27.6467   8.0537 H              1 RES1               0.0000
     24 H24         21.6835  24.6805  11.4991 H              1 RES1               0.0000
     25 H25         20.3505  24.2709  10.4220 H              1 RES1               0.0000
     26 H26         21.2249  25.7854  10.2053 H              1 RES1               0.0000
     27 H27         17.9713  29.8812  14.2389 H              1 RES1               0.0000
     28 H28         14.5257  27.6559  13.0744 H              1 RES1               0.0000
     29 H29         15.5446  29.4749  14.3887 H              1 RES1               0.0000
@<TRIPOS>BOND
    1    1    2 1     
    2    1    3 1     
    3    1    4 1     
    4    1    5 1     
    5    2    6 ar    
    6    2    7 ar    
    7    3    8 1     
    8    3    9 2     
    9    4   10 1     
   10    4   11 2     
   11    5   12 1     
   12    5   18 1     
   13    5   19 1     
   14    6   13 ar    
   15    6   20 1     
   16    7   14 ar    
   17    7   21 1     
   18    8   15 1     
   19    8   22 1     
   20   10   15 1     
   21   10   23 1     
   22   12   24 1     
   23   12   25 1     
   24   12   26 1     
   25   13   16 ar    
   26   13   27 1     
   27   14   16 ar    
   28   14   28 1     
   29   15   17 2     
   30   16   29 1     
@<TRIPOS>SUBSTRUCTURE
      1 RES1           1
@<TRIPOS>SET
DONOR_HYDROGENS      STATIC     ATOMS    <user>   **** ""
2 22 23
ATOM$RED        STATIC     ATOMS    COLORGROUP SYSTEM
2 22 23
@<TRIPOS>COMMENT
> <Gold.Version>
2022.3.0

> <Gold.Id.Protein>
unknown|4i1b_cavity_clean|pdb

> <Gold.Protein.RotatedTorsions>
[ 1748 1737 1736 1735 ] final -128.55 input   60.00 | X-H torsion
[ 1645 1634 1633 1632 ] final   27.89 input   60.03 | X-H torsion

> <Gold.Protein.ActiveResidues>
 ARG4    LEU6    MET44   PHE46   VAL47   GLN48   GLY49   GLU51   ILE56   PRO57  
 LYS103  GLU105  ASN108  LYS109  LEU110  MET148  PHE150 

> <Gold.Protein.RotatedAtoms>
   16.2486   24.8370    4.0187 H   0  0  0  0  0  0  0  0  0  0  0  0  # atno 1645 bound_to 1634
   17.0905   25.2507    5.3840 H   0  0  0  0  0  0  0  0  0  0  0  0  # atno 1646 bound_to 1634
   17.8357   25.2993    3.9050 H   0  0  0  0  0  0  0  0  0  0  0  0  # atno 1647 bound_to 1634
    8.3115   26.3208   -9.1379 H   0  0  0  0  0  0  0  0  0  0  0  0  # atno 1748 bound_to 1737
    9.7131   25.4414   -9.2378 H   0  0  0  0  0  0  0  0  0  0  0  0  # atno 1749 bound_to 1737
    8.2896   24.6897   -8.8453 H   0  0  0  0  0  0  0  0  0  0  0  0  # atno 1750 bound_to 1737

> <Gold.Score>
     Fitness  S(hb_ext) S(vdw_ext)  S(hb_int)    S(int)      intcor
     19.37       4.59      12.65       0.00      -2.61      -0.76

> <Gold.Goldscore.Fitness>
19.3664

> <Gold.Goldscore.Internal.Vdw>
-2.9083

> <Gold.Goldscore.Internal.Torsion>
-0.4648

> <Gold.Goldscore.External.Vdw>
12.6483

> <Gold.Goldscore.Internal.HBond>
0.0000

> <Gold.Goldscore.External.HBond>
4.5895

> <Gold.Goldscore.Internal.Correction>
-0.7585

> <Gold.Goldscore.Hbonds>
donor molecule, donor type, donor heavy atom, donor atom, acceptor molecule, acceptor atom, score
      P1  H  1634  1646       L1    17  0.76

> <Gold.Goldscore.Internal.Vdw.Weighted>
-2.9083

> <Gold.Goldscore.Internal.Torsion.Weighted>
-0.4648

> <Gold.Goldscore.External.Vdw.Weighted>
17.3915

> <Gold.Goldscore.Internal.HBond.Weighted>
0.0000

> <Gold.Goldscore.External.HBond.Weighted>
4.5895

> <Gold.Goldscore.Internal.Correction.Weighted>
-0.7585

> <Gold.Rescore>
     Score     S(PLP)   S(hbond)     S(cho)   S(metal)  DE(clash)   DE(tors)     intcor
     29.02     -28.19       0.75       0.00       0.00       1.27       0.08       ----

> <Gold.PLP.Fitness>
29.0228

> <Gold.PLP.PLP>
-28.1900

> <Gold.PLP.part.hbond>
-1.0000

> <Gold.PLP.part.metal>
0.0000

> <Gold.PLP.part.buried>
-2.5074

> <Gold.PLP.part.nonpolar>
-25.8163

> <Gold.PLP.part.repulsive>
0.0488

> <Gold.PLP.ligand.clash>
1.2679

> <Gold.PLP.ligand.torsion>
0.0776

> <Gold.PLP.Chemscore.Hbond>
0.7520

> <Gold.PLP.Chemscore.CHOScore>
0.0000

> <Gold.PLP.Chemscore.Metal>
0.0000

> <Gold.Chemscore.Hbonds>
donor molecule, donor type, donor heavy atom, donor atom, acceptor molecule, acceptor atom, score
      P1  H  1634  1646       L1    17  1.00

> <Gold.PLP.Chemscore.Internal.Correction>
   9.000000E+99

