#       Name:                CT1002167954
#       Creating user name   hitesit
#       Creation time:       Sun Apr 16 02:21:29 2023


#       File generated by GOLD software.
#

@<TRIPOS>MOLECULE
CT1002167954|ligand_prepared|mol2|1|dock7
    29    30     1
SMALL
NO_CHARGES


@<TRIPOS>ATOM
      1 C1          19.3884  28.1948  12.1669 C.3            1 RES1               0.0000
      2 C2          18.9569  26.7486  12.4849 C.ar           1 RES1               0.0000
      3 C3          19.2772  28.3520  10.6532 C.2            1 RES1               0.0000
      4 C4          18.4526  29.1028  12.9570 C.2            1 RES1               0.0000
      5 C5          20.8399  28.5210  12.5892 C.3            1 RES1               0.0000
      6 C6          17.6746  26.4786  12.9533 C.ar           1 RES1               0.0000
      7 C7          19.8276  25.6759  12.3127 C.ar           1 RES1               0.0000
      8 N8          18.2380  29.0907  10.1693 N.am           1 RES1               0.0000
      9 O9          20.0665  27.8034   9.8941 O.2            1 RES1               0.0000
     10 N10         17.5932  29.9065  12.2547 N.am           1 RES1               0.0000
     11 O11         18.4401  29.1174  14.1817 O.2            1 RES1               0.0000
     12 C12         21.2046  29.9902  12.4464 C.3            1 RES1               0.0000
     13 C13         17.2760  25.1827  13.2365 C.ar           1 RES1               0.0000
     14 C14         19.4270  24.3807  12.5967 C.ar           1 RES1               0.0000
     15 C15         17.4221  29.9192  10.8972 C.2            1 RES1               0.0000
     16 C16         18.1517  24.1330  13.0580 C.ar           1 RES1               0.0000
     17 O17         16.5900  30.6313  10.3425 O.2            1 RES1               0.0000
     18 H18         20.9785  28.2229  13.6358 H              1 RES1               0.0000
     19 H19         21.5282  27.9252  11.9770 H              1 RES1               0.0000
     20 H20         16.9725  27.2921  13.1023 H              1 RES1               0.0000
     21 H21         20.8361  25.8472  11.9519 H              1 RES1               0.0000
     22 H22         18.0500  29.0207   9.1743 H              1 RES1               0.0000
     23 H23         17.0289  30.5556  12.7937 H              1 RES1               0.0000
     24 H24         22.2330  30.1642  12.7559 H              1 RES1               0.0000
     25 H25         21.1023  30.3143  11.4128 H              1 RES1               0.0000
     26 H26         20.5560  30.6102  13.0618 H              1 RES1               0.0000
     27 H27         16.2717  24.9932  13.6007 H              1 RES1               0.0000
     28 H28         20.1197  23.5577  12.4554 H              1 RES1               0.0000
     29 H29         17.8391  23.1179  13.2796 H              1 RES1               0.0000
@<TRIPOS>BOND
    1    1    2 1     
    2    1    3 1     
    3    1    4 1     
    4    1    5 1     
    5    2    6 ar    
    6    2    7 ar    
    7    3    8 1     
    8    3    9 2     
    9    4   10 1     
   10    4   11 2     
   11    5   12 1     
   12    5   18 1     
   13    5   19 1     
   14    6   13 ar    
   15    6   20 1     
   16    7   14 ar    
   17    7   21 1     
   18    8   15 1     
   19    8   22 1     
   20   10   15 1     
   21   10   23 1     
   22   12   24 1     
   23   12   25 1     
   24   12   26 1     
   25   13   16 ar    
   26   13   27 1     
   27   14   16 ar    
   28   14   28 1     
   29   15   17 2     
   30   16   29 1     
@<TRIPOS>SUBSTRUCTURE
      1 RES1           1
@<TRIPOS>SET
DONOR_HYDROGENS      STATIC     ATOMS    <user>   **** ""
2 22 23
ATOM$RED        STATIC     ATOMS    COLORGROUP SYSTEM
2 22 23
@<TRIPOS>COMMENT
> <Gold.Version>
2022.3.0

> <Gold.Id.Protein>
unknown|4i1b_cavity_clean|pdb

> <Gold.Protein.RotatedTorsions>
[ 1748 1737 1736 1735 ] final  142.74 input   60.00 | X-H torsion
[ 1645 1634 1633 1632 ] final  148.94 input   60.03 | X-H torsion

> <Gold.Protein.ActiveResidues>
 ARG4    LEU6    MET44   PHE46   VAL47   GLN48   GLY49   GLU51   ILE56   PRO57  
 LYS103  GLU105  ASN108  LYS109  LEU110  MET148  PHE150 

> <Gold.Protein.RotatedAtoms>
   17.1078   25.2561    5.3827 H   0  0  0  0  0  0  0  0  0  0  0  0  # atno 1645 bound_to 1634
   17.8269   25.2945    3.8909 H   0  0  0  0  0  0  0  0  0  0  0  0  # atno 1646 bound_to 1634
   16.2411   24.8366    4.0343 H   0  0  0  0  0  0  0  0  0  0  0  0  # atno 1647 bound_to 1634
    7.9392   25.0685   -8.8484 H   0  0  0  0  0  0  0  0  0  0  0  0  # atno 1748 bound_to 1737
    8.8056   26.4244   -9.2467 H   0  0  0  0  0  0  0  0  0  0  0  0  # atno 1749 bound_to 1737
    9.5693   24.9591   -9.1260 H   0  0  0  0  0  0  0  0  0  0  0  0  # atno 1750 bound_to 1737

> <Gold.Score>
     Fitness  S(hb_ext) S(vdw_ext)  S(hb_int)    S(int)      intcor
     19.62       3.54      12.54       0.00      -1.15      -0.76

> <Gold.Goldscore.Fitness>
19.6239

> <Gold.Goldscore.Internal.Vdw>
-1.4530

> <Gold.Goldscore.Internal.Torsion>
-0.4590

> <Gold.Goldscore.External.Vdw>
12.5383

> <Gold.Goldscore.Internal.HBond>
0.0000

> <Gold.Goldscore.External.HBond>
3.5373

> <Gold.Goldscore.Internal.Correction>
-0.7585

> <Gold.Goldscore.Hbonds>
donor molecule, donor type, donor heavy atom, donor atom, acceptor molecule, acceptor atom, score
      P1  H    28    39       L1    11  0.59

> <Gold.Goldscore.Internal.Vdw.Weighted>
-1.4530

> <Gold.Goldscore.Internal.Torsion.Weighted>
-0.4590

> <Gold.Goldscore.External.Vdw.Weighted>
17.2401

> <Gold.Goldscore.Internal.HBond.Weighted>
0.0000

> <Gold.Goldscore.External.HBond.Weighted>
3.5373

> <Gold.Goldscore.Internal.Correction.Weighted>
-0.7585

> <Gold.Rescore>
     Score     S(PLP)   S(hbond)     S(cho)   S(metal)  DE(clash)   DE(tors)     intcor
     17.30     -16.76       0.99       0.00       0.00       0.85       0.80       ----

> <Gold.PLP.Fitness>
17.2986

> <Gold.PLP.PLP>
-16.7642

> <Gold.PLP.part.hbond>
-1.0000

> <Gold.PLP.part.metal>
0.0000

> <Gold.PLP.part.buried>
-1.7620

> <Gold.PLP.part.nonpolar>
-14.7730

> <Gold.PLP.part.repulsive>
0.0036

> <Gold.PLP.ligand.clash>
0.8457

> <Gold.PLP.ligand.torsion>
0.7979

> <Gold.PLP.Chemscore.Hbond>
0.9920

> <Gold.PLP.Chemscore.CHOScore>
0.0000

> <Gold.PLP.Chemscore.Metal>
0.0000

> <Gold.Chemscore.Hbonds>
donor molecule, donor type, donor heavy atom, donor atom, acceptor molecule, acceptor atom, score
      P1  H    28    39       L1    11  0.88

> <Gold.PLP.Chemscore.Internal.Correction>
   9.000000E+99

