#       Name:                CT1002167954
#       Creating user name   hitesit
#       Creation time:       Sun Apr 16 02:21:25 2023


#       File generated by GOLD software.
#

@<TRIPOS>MOLECULE
CT1002167954|ligand_prepared|mol2|1|dock2
    29    30     1
SMALL
NO_CHARGES


@<TRIPOS>ATOM
      1 C1           6.1065  27.3983   0.7439 C.3            1 RES1               0.0000
      2 C2           4.8632  26.9803  -0.0674 C.ar           1 RES1               0.0000
      3 C3           6.3267  26.3043   1.7845 C.2            1 RES1               0.0000
      4 C4           7.2443  27.5390  -0.2612 C.2            1 RES1               0.0000
      5 C5           5.9479  28.7500   1.4783 C.3            1 RES1               0.0000
      6 C6           3.7478  27.8101  -0.1328 C.ar           1 RES1               0.0000
      7 C7           4.8178  25.7714  -0.7567 C.ar           1 RES1               0.0000
      8 N8           7.3668  25.4446   1.5871 N.am           1 RES1               0.0000
      9 O9           5.5753  26.1734   2.7429 O.2            1 RES1               0.0000
     10 N10          8.2945  26.6636  -0.1689 N.am           1 RES1               0.0000
     11 O11          7.2329  28.3893  -1.1427 O.2            1 RES1               0.0000
     12 C12          7.1678  29.1526   2.2919 C.3            1 RES1               0.0000
     13 C13          2.6288  27.4460  -0.8632 C.ar           1 RES1               0.0000
     14 C14          3.6976  25.4091  -1.4863 C.ar           1 RES1               0.0000
     15 C15          8.3928  25.6033   0.6905 C.2            1 RES1               0.0000
     16 C16          2.6030  26.2456  -1.5407 C.ar           1 RES1               0.0000
     17 O17          9.3440  24.8274   0.6768 O.2            1 RES1               0.0000
     18 H18          5.7437  29.5326   0.7372 H              1 RES1               0.0000
     19 H19          5.0814  28.6884   2.1482 H              1 RES1               0.0000
     20 H20          3.7488  28.7575   0.3959 H              1 RES1               0.0000
     21 H21          5.6668  25.0970  -0.7272 H              1 RES1               0.0000
     22 H22          7.3834  24.6062   2.1590 H              1 RES1               0.0000
     23 H23          9.0754  26.8166  -0.7990 H              1 RES1               0.0000
     24 H24          7.0036  30.1077   2.7863 H              1 RES1               0.0000
     25 H25          7.3849  28.4085   3.0555 H              1 RES1               0.0000
     26 H26          8.0433  29.2478   1.6529 H              1 RES1               0.0000
     27 H27          1.7694  28.1072  -0.9017 H              1 RES1               0.0000
     28 H28          3.6815  24.4631  -2.0175 H              1 RES1               0.0000
     29 H29          1.7264  25.9607  -2.1131 H              1 RES1               0.0000
@<TRIPOS>BOND
    1    1    2 1     
    2    1    3 1     
    3    1    4 1     
    4    1    5 1     
    5    2    6 ar    
    6    2    7 ar    
    7    3    8 1     
    8    3    9 2     
    9    4   10 1     
   10    4   11 2     
   11    5   12 1     
   12    5   18 1     
   13    5   19 1     
   14    6   13 ar    
   15    6   20 1     
   16    7   14 ar    
   17    7   21 1     
   18    8   15 1     
   19    8   22 1     
   20   10   15 1     
   21   10   23 1     
   22   12   24 1     
   23   12   25 1     
   24   12   26 1     
   25   13   16 ar    
   26   13   27 1     
   27   14   16 ar    
   28   14   28 1     
   29   15   17 2     
   30   16   29 1     
@<TRIPOS>SUBSTRUCTURE
      1 RES1           1
@<TRIPOS>SET
DONOR_HYDROGENS      STATIC     ATOMS    <user>   **** ""
2 22 23
ATOM$RED        STATIC     ATOMS    COLORGROUP SYSTEM
2 22 23
@<TRIPOS>COMMENT
> <Gold.Version>
2022.3.0

> <Gold.Id.Protein>
unknown|4i1b_cavity_clean|pdb

> <Gold.Protein.RotatedTorsions>
[ 1748 1737 1736 1735 ] final -108.33 input   60.00 | X-H torsion
[ 1645 1634 1633 1632 ] final -151.00 input   60.03 | X-H torsion

> <Gold.Protein.ActiveResidues>
 ARG4    LEU6    MET44   PHE46   VAL47   GLN48   GLY49   GLU51   ILE56   PRO57  
 LYS103  GLU105  ASN108  LYS109  LEU110  MET148  PHE150 

> <Gold.Protein.RotatedAtoms>
   17.8764   25.4218    4.8363 H   0  0  0  0  0  0  0  0  0  0  0  0  # atno 1645 bound_to 1634
   17.0088   25.0017    3.4892 H   0  0  0  0  0  0  0  0  0  0  0  0  # atno 1646 bound_to 1634
   16.2907   24.9637    4.9818 H   0  0  0  0  0  0  0  0  0  0  0  0  # atno 1647 bound_to 1634
    8.6240   26.4193   -9.2122 H   0  0  0  0  0  0  0  0  0  0  0  0  # atno 1748 bound_to 1737
    9.6505   25.1185   -9.1692 H   0  0  0  0  0  0  0  0  0  0  0  0  # atno 1749 bound_to 1737
    8.0397   24.9140   -8.8396 H   0  0  0  0  0  0  0  0  0  0  0  0  # atno 1750 bound_to 1737

> <Gold.Score>
     Fitness  S(hb_ext) S(vdw_ext)  S(hb_int)    S(int)      intcor
     20.17       5.59      11.19       0.00      -0.81      -0.76

> <Gold.Goldscore.Fitness>
20.1708

> <Gold.Goldscore.Internal.Vdw>
-1.1988

> <Gold.Goldscore.Internal.Torsion>
-0.3685

> <Gold.Goldscore.External.Vdw>
11.1916

> <Gold.Goldscore.Internal.HBond>
0.0000

> <Gold.Goldscore.External.HBond>
5.5910

> <Gold.Goldscore.Internal.Correction>
-0.7585

> <Gold.Goldscore.Hbonds>
donor molecule, donor type, donor heavy atom, donor atom, acceptor molecule, acceptor atom, score
      P1  H  1721  1728       L1    11  0.11
      P1  H  2320  2328       L1    17  0.68
      L1  H     8    22       P1  2323  1.00
      L1  H    10    23       P1  1718  1.00

> <Gold.Goldscore.Internal.Vdw.Weighted>
-1.1988

> <Gold.Goldscore.Internal.Torsion.Weighted>
-0.3685

> <Gold.Goldscore.External.Vdw.Weighted>
15.3885

> <Gold.Goldscore.Internal.HBond.Weighted>
0.0000

> <Gold.Goldscore.External.HBond.Weighted>
5.5910

> <Gold.Goldscore.Internal.Correction.Weighted>
-0.7585

> <Gold.Rescore>
     Score     S(PLP)   S(hbond)     S(cho)   S(metal)  DE(clash)   DE(tors)     intcor
     28.92     -16.93       4.00       0.00       0.00       0.00       0.01       ----

> <Gold.PLP.Fitness>
28.9171

> <Gold.PLP.PLP>
-16.9286

> <Gold.PLP.part.hbond>
-4.0000

> <Gold.PLP.part.metal>
0.0000

> <Gold.PLP.part.buried>
-4.8480

> <Gold.PLP.part.nonpolar>
-9.1832

> <Gold.PLP.part.repulsive>
0.4770

> <Gold.PLP.ligand.clash>
0.0000

> <Gold.PLP.ligand.torsion>
0.0057

> <Gold.PLP.Chemscore.Hbond>
4.0000

> <Gold.PLP.Chemscore.CHOScore>
0.0000

> <Gold.PLP.Chemscore.Metal>
0.0000

> <Gold.Chemscore.Hbonds>
donor molecule, donor type, donor heavy atom, donor atom, acceptor molecule, acceptor atom, score
      L1  H     8    22       P1  2323  1.00
      L1  H    10    23       P1  1718  1.00
      P1  H  1721  1728       L1    11  1.00
      P1  H  2320  2328       L1    17  1.00

> <Gold.PLP.Chemscore.Internal.Correction>
   9.000000E+99

