#       Name:                CT1002167954
#       Creating user name   hitesit
#       Creation time:       Sun Apr 16 02:21:26 2023


#       File generated by GOLD software.
#

@<TRIPOS>MOLECULE
CT1002167954|ligand_prepared|mol2|1|dock3
    29    30     1
SMALL
NO_CHARGES


@<TRIPOS>ATOM
      1 C1          11.6095  28.3026   1.8764 C.3            1 RES1               0.0000
      2 C2          12.5990  28.8869   0.8476 C.ar           1 RES1               0.0000
      3 C3          10.2129  28.5354   1.3076 C.2            1 RES1               0.0000
      4 C4          11.9791  26.8321   2.0362 C.2            1 RES1               0.0000
      5 C5          11.6900  28.9696   3.2693 C.3            1 RES1               0.0000
      6 C6          13.1454  28.0811  -0.1468 C.ar           1 RES1               0.0000
      7 C7          12.9721  30.2279   0.8785 C.ar           1 RES1               0.0000
      8 N8           9.5469  27.4560   0.8062 N.am           1 RES1               0.0000
      9 O9           9.7193  29.6555   1.2636 O.2            1 RES1               0.0000
     10 N10         11.0729  25.8932   1.6178 N.am           1 RES1               0.0000
     11 O11         13.0537  26.4781   2.5053 O.2            1 RES1               0.0000
     12 C12         10.8804  28.2542   4.3393 C.3            1 RES1               0.0000
     13 C13         14.0305  28.5978  -1.0784 C.ar           1 RES1               0.0000
     14 C14         13.8576  30.7426  -0.0540 C.ar           1 RES1               0.0000
     15 C15          9.8865  26.1386   0.9819 C.2            1 RES1               0.0000
     16 C16         14.3869  29.9288  -1.0329 C.ar           1 RES1               0.0000
     17 O17          9.1501  25.2394   0.5865 O.2            1 RES1               0.0000
     18 H18         12.7402  29.0032   3.5845 H              1 RES1               0.0000
     19 H19         11.3313  30.0031   3.1872 H              1 RES1               0.0000
     20 H20         12.8787  27.0307  -0.1969 H              1 RES1               0.0000
     21 H21         12.5691  30.8866   1.6403 H              1 RES1               0.0000
     22 H22          8.7200  27.6459   0.2490 H              1 RES1               0.0000
     23 H23         11.3041  24.9212   1.7972 H              1 RES1               0.0000
     24 H24         10.9716  28.7631   5.2966 H              1 RES1               0.0000
     25 H25          9.8266  28.2245   4.0703 H              1 RES1               0.0000
     26 H26         11.2271  27.2306   4.4653 H              1 RES1               0.0000
     27 H27         14.4453  27.9529  -1.8460 H              1 RES1               0.0000
     28 H28         14.1357  31.7906  -0.0140 H              1 RES1               0.0000
     29 H29         15.0800  30.3334  -1.7631 H              1 RES1               0.0000
@<TRIPOS>BOND
    1    1    2 1     
    2    1    3 1     
    3    1    4 1     
    4    1    5 1     
    5    2    6 ar    
    6    2    7 ar    
    7    3    8 1     
    8    3    9 2     
    9    4   10 1     
   10    4   11 2     
   11    5   12 1     
   12    5   18 1     
   13    5   19 1     
   14    6   13 ar    
   15    6   20 1     
   16    7   14 ar    
   17    7   21 1     
   18    8   15 1     
   19    8   22 1     
   20   10   15 1     
   21   10   23 1     
   22   12   24 1     
   23   12   25 1     
   24   12   26 1     
   25   13   16 ar    
   26   13   27 1     
   27   14   16 ar    
   28   14   28 1     
   29   15   17 2     
   30   16   29 1     
@<TRIPOS>SUBSTRUCTURE
      1 RES1           1
@<TRIPOS>SET
DONOR_HYDROGENS      STATIC     ATOMS    <user>   **** ""
2 22 23
ATOM$RED        STATIC     ATOMS    COLORGROUP SYSTEM
2 22 23
@<TRIPOS>COMMENT
> <Gold.Version>
2022.3.0

> <Gold.Id.Protein>
unknown|4i1b_cavity_clean|pdb

> <Gold.Protein.RotatedTorsions>
[ 1748 1737 1736 1735 ] final  148.98 input   60.00 | X-H torsion
[ 1645 1634 1633 1632 ] final  143.11 input   60.03 | X-H torsion

> <Gold.Protein.ActiveResidues>
 ARG4    LEU6    MET44   PHE46   VAL47   GLN48   GLY49   GLU51   ILE56   PRO57  
 LYS103  GLU105  ASN108  LYS109  LEU110  MET148  PHE150 

> <Gold.Protein.RotatedAtoms>
   17.0146   25.2286    5.3863 H   0  0  0  0  0  0  0  0  0  0  0  0  # atno 1645 bound_to 1634
   17.8737   25.3183    3.9728 H   0  0  0  0  0  0  0  0  0  0  0  0  # atno 1646 bound_to 1634
   16.2875   24.8404    3.9489 H   0  0  0  0  0  0  0  0  0  0  0  0  # atno 1647 bound_to 1634
    7.8961   25.1631   -8.8573 H   0  0  0  0  0  0  0  0  0  0  0  0  # atno 1748 bound_to 1737
    8.9078   26.4119   -9.2631 H   0  0  0  0  0  0  0  0  0  0  0  0  # atno 1749 bound_to 1737
    9.5102   24.8770   -9.1007 H   0  0  0  0  0  0  0  0  0  0  0  0  # atno 1750 bound_to 1737

> <Gold.Score>
     Fitness  S(hb_ext) S(vdw_ext)  S(hb_int)    S(int)      intcor
     30.79       2.00      21.41       0.00      -0.66      -0.76

> <Gold.Goldscore.Fitness>
30.7871

> <Gold.Goldscore.Internal.Vdw>
-0.9146

> <Gold.Goldscore.Internal.Torsion>
-0.4994

> <Gold.Goldscore.External.Vdw>
21.4127

> <Gold.Goldscore.Internal.HBond>
0.0000

> <Gold.Goldscore.External.HBond>
2.0000

> <Gold.Goldscore.Internal.Correction>
-0.7585

> <Gold.Goldscore.Hbonds>
donor molecule, donor type, donor heavy atom, donor atom, acceptor molecule, acceptor atom, score
      P1  H  2320  2328       L1    17  1.00

> <Gold.Goldscore.Internal.Vdw.Weighted>
-0.9146

> <Gold.Goldscore.Internal.Torsion.Weighted>
-0.4994

> <Gold.Goldscore.External.Vdw.Weighted>
29.4425

> <Gold.Goldscore.Internal.HBond.Weighted>
0.0000

> <Gold.Goldscore.External.HBond.Weighted>
2.0000

> <Gold.Goldscore.Internal.Correction.Weighted>
-0.7585

> <Gold.Rescore>
     Score     S(PLP)   S(hbond)     S(cho)   S(metal)  DE(clash)   DE(tors)     intcor
     34.06     -33.37       1.00       0.00       0.00       0.00       1.16       ----

> <Gold.PLP.Fitness>
34.0598

> <Gold.PLP.PLP>
-33.3715

> <Gold.PLP.part.hbond>
-2.0000

> <Gold.PLP.part.metal>
0.0000

> <Gold.PLP.part.buried>
-6.6140

> <Gold.PLP.part.nonpolar>
-25.9570

> <Gold.PLP.part.repulsive>
0.3644

> <Gold.PLP.ligand.clash>
0.0000

> <Gold.PLP.ligand.torsion>
1.1558

> <Gold.PLP.Chemscore.Hbond>
1.0000

> <Gold.PLP.Chemscore.CHOScore>
0.0000

> <Gold.PLP.Chemscore.Metal>
0.0000

> <Gold.Chemscore.Hbonds>
donor molecule, donor type, donor heavy atom, donor atom, acceptor molecule, acceptor atom, score
      P1  H  2320  2328       L1    17  0.99

> <Gold.PLP.Chemscore.Internal.Correction>
   9.000000E+99

