#       Name:                CT1002167954
#       Creating user name   hitesit
#       Creation time:       Sun Apr 16 20:16:20 2023


#       File generated by GOLD software.
#

@<TRIPOS>MOLECULE
CT1002167954|ligand_prepared|mol2|1|dock7
    29    30     1
SMALL
NO_CHARGES


@<TRIPOS>ATOM
      1 C1          32.5155  19.8995  58.9443 C.3            1 RES1               0.0000
      2 C2          31.3858  20.7168  59.6035 C.ar           1 RES1               0.0000
      3 C3          33.5078  20.9143  58.3842 C.2            1 RES1               0.0000
      4 C4          33.0900  19.0062  60.0383 C.2            1 RES1               0.0000
      5 C5          32.0366  18.9910  57.7881 C.3            1 RES1               0.0000
      6 C6          30.2584  20.0821  60.1162 C.ar           1 RES1               0.0000
      7 C7          31.4579  22.1033  59.7085 C.ar           1 RES1               0.0000
      8 N8          34.6911  21.0713  59.0437 N.am           1 RES1               0.0000
      9 O9          33.2398  21.5949  57.4017 O.2            1 RES1               0.0000
     10 N10         34.3820  19.2291  60.4367 N.am           1 RES1               0.0000
     11 O11         32.4300  18.1221  60.5704 O.2            1 RES1               0.0000
     12 C12         33.1627  18.2523  57.0821 C.3            1 RES1               0.0000
     13 C13         29.2412  20.8068  60.7148 C.ar           1 RES1               0.0000
     14 C14         30.4394  22.8262  60.3073 C.ar           1 RES1               0.0000
     15 C15         35.1985  20.2410  60.0106 C.2            1 RES1               0.0000
     16 C16         29.3311  22.1792  60.8111 C.ar           1 RES1               0.0000
     17 O17         36.3300  20.4093  60.4560 O.2            1 RES1               0.0000
     18 H18         31.3276  18.2554  58.1875 H              1 RES1               0.0000
     19 H19         31.5030  19.6064  57.0533 H              1 RES1               0.0000
     20 H20         30.1688  19.0031  60.0472 H              1 RES1               0.0000
     21 H21         32.3198  22.6336  59.3181 H              1 RES1               0.0000
     22 H22         35.2505  21.8810  58.7951 H              1 RES1               0.0000
     23 H23         34.7712  18.5805  61.1135 H              1 RES1               0.0000
     24 H24         32.7721  17.6296  56.2799 H              1 RES1               0.0000
     25 H25         33.8736  18.9540  56.6508 H              1 RES1               0.0000
     26 H26         33.6993  17.6110  57.7783 H              1 RES1               0.0000
     27 H27         28.3704  20.2930  61.1085 H              1 RES1               0.0000
     28 H28         30.5141  23.9061  60.3804 H              1 RES1               0.0000
     29 H29         28.5343  22.7467  61.2805 H              1 RES1               0.0000
@<TRIPOS>BOND
    1    1    2 1     
    2    1    3 1     
    3    1    4 1     
    4    1    5 1     
    5    2    6 ar    
    6    2    7 ar    
    7    3    8 1     
    8    3    9 2     
    9    4   10 1     
   10    4   11 2     
   11    5   12 1     
   12    5   18 1     
   13    5   19 1     
   14    6   13 ar    
   15    6   20 1     
   16    7   14 ar    
   17    7   21 1     
   18    8   15 1     
   19    8   22 1     
   20   10   15 1     
   21   10   23 1     
   22   12   24 1     
   23   12   25 1     
   24   12   26 1     
   25   13   16 ar    
   26   13   27 1     
   27   14   16 ar    
   28   14   28 1     
   29   15   17 2     
   30   16   29 1     
@<TRIPOS>SUBSTRUCTURE
      1 RES1           1
@<TRIPOS>SET
DONOR_HYDROGENS      STATIC     ATOMS    <user>   **** ""
2 22 23
ATOM$RED        STATIC     ATOMS    COLORGROUP SYSTEM
2 22 23
@<TRIPOS>COMMENT
> <Gold.Version>
2022.3.0

> <Gold.Id.Protein>
unknown|3l9n_clean|pdb

> <Gold.Protein.RotatedTorsions>
[ 3658 3649 3648 3646 ] final  -35.71 input   60.01 | X-H torsion
[ 3578 3569 3568 3566 ] final  152.44 input   59.99 | X-H torsion
[ 3855 3846 3845 3843 ] final -120.05 input   60.02 | X-H torsion
[ 2581 2570 2569 2568 ] final  -67.69 input   60.01 | X-H torsion
[ 3119 3112 3110 3107 ] final -110.98 input   60.01 | X-H torsion
[ 5145 5136 5135 5133 ] final   72.77 input   59.99 | X-H torsion
[ 1921 1917 1916 1913 ] final   62.28 input   59.98 | X-H torsion
[ 3169 3160 3159 3157 ] final   42.82 input   59.99 | X-H torsion
[  630  627  626  623 ] final  144.11 input   60.00 | X-H torsion

> <Gold.Protein.ActiveResidues>
 LEU49   GLY50   THR51   GLY52   SER53   PHE54   GLY55   LEU82   LYS83   GLN84  
 HIS87   GLY126  GLU127  PHE129  SER130  HIS131  LEU132  ARG133  ARG134  GLY136 
 ARG137  ARG165  ASP166  LEU167  LYS168  PRO169  GLU170  ASN171  MET173  ASP184 
 PHE187  TPO197  LEU198  CYS199  GLY200  THR201  PRO202  GLU203  TYR204  LEU205 
 ILE209  ILE210  VAL226  LEU227  TYR229  GLU230  ALA233  GLY234  TYR235  PRO236 
 PRO237  PHE238  PHE239  ALA240  ASP241  GLN242  PRO243  ILE244  GLN245  ILE246 
 TYR247  LYS249  ARG256  PHE257  PRO258  SER259  ASN326  PHE327  ASP328  ASP329 
 TYR330 

> <Gold.Protein.RotatedAtoms>
   27.7267   26.7325   67.7521 H   0  0  0  0  0  0  0  0  0  0  0  0  # atno 630  bound_to 627 
   42.3909   20.8645   52.6064 H   0  0  0  0  0  0  0  0  0  0  0  0  # atno 1921 bound_to 1917
   30.5657   27.1167   57.5052 H   0  0  0  0  0  0  0  0  0  0  0  0  # atno 2581 bound_to 2570
   29.1992   27.9465   57.0662 H   0  0  0  0  0  0  0  0  0  0  0  0  # atno 2582 bound_to 2570
   29.0704   26.5246   57.9092 H   0  0  0  0  0  0  0  0  0  0  0  0  # atno 2583 bound_to 2570
   28.5465   28.8285   56.7912 H   0  0  0  0  0  0  0  0  0  0  0  0  # atno 3119 bound_to 3112
   33.1100   29.4437   49.3791 H   0  0  0  0  0  0  0  0  0  0  0  0  # atno 3169 bound_to 3160
   35.8939   39.1069   42.2064 H   0  0  0  0  0  0  0  0  0  0  0  0  # atno 3578 bound_to 3569
   39.3015   38.9096   43.0003 H   0  0  0  0  0  0  0  0  0  0  0  0  # atno 3658 bound_to 3649
   24.1229   36.8002   58.8983 H   0  0  0  0  0  0  0  0  0  0  0  0  # atno 3855 bound_to 3846
   38.9433   21.2624   61.1760 H   0  0  0  0  0  0  0  0  0  0  0  0  # atno 5145 bound_to 5136
   40.8494   38.4082   42.9820 LP  0  0  0  0  0  0  0  0  0  0  0  0  # atno 5461 bound_to 3649
   40.4325   39.7500   43.8141 LP  0  0  0  0  0  0  0  0  0  0  0  0  # atno 5462 bound_to 3649
   36.8247   38.4976   43.3939 LP  0  0  0  0  0  0  0  0  0  0  0  0  # atno 5463 bound_to 3569
   35.4163   39.2403   43.7562 LP  0  0  0  0  0  0  0  0  0  0  0  0  # atno 5464 bound_to 3569
   25.6492   37.2643   59.2209 LP  0  0  0  0  0  0  0  0  0  0  0  0  # atno 5513 bound_to 3846
   25.3420   36.2844   57.9513 LP  0  0  0  0  0  0  0  0  0  0  0  0  # atno 5514 bound_to 3846
   27.8990   28.3111   55.3911 LP  0  0  0  0  0  0  0  0  0  0  0  0  # atno 5515 bound_to 3112
   26.9372   28.9109   56.5666 LP  0  0  0  0  0  0  0  0  0  0  0  0  # atno 5516 bound_to 3112
   40.5237   21.3954   60.8126 LP  0  0  0  0  0  0  0  0  0  0  0  0  # atno 5523 bound_to 5136
   39.7679   22.5891   61.6313 LP  0  0  0  0  0  0  0  0  0  0  0  0  # atno 5524 bound_to 5136
   40.9473   21.0283   53.3393 LP  0  0  0  0  0  0  0  0  0  0  0  0  # atno 5533 bound_to 1917
   42.1858   20.3060   54.1211 LP  0  0  0  0  0  0  0  0  0  0  0  0  # atno 5534 bound_to 1917
   32.8317   30.6116   48.2809 LP  0  0  0  0  0  0  0  0  0  0  0  0  # atno 5563 bound_to 3160
   32.3555   29.0779   47.9847 LP  0  0  0  0  0  0  0  0  0  0  0  0  # atno 5564 bound_to 3160
   27.8493   25.1656   68.1744 LP  0  0  0  0  0  0  0  0  0  0  0  0  # atno 5571 bound_to 627 
   27.5483   25.5747   66.6224 LP  0  0  0  0  0  0  0  0  0  0  0  0  # atno 5572 bound_to 627 

> <Gold.Score>
     Fitness  S(hb_ext) S(vdw_ext)  S(hb_int)    S(int)      intcor
     29.07       0.96      21.97       0.00      -2.09      -0.76

> <Gold.Goldscore.Fitness>
29.0722

> <Gold.Goldscore.Internal.Vdw>
-2.4603

> <Gold.Goldscore.Internal.Torsion>
-0.3903

> <Gold.Goldscore.External.Vdw>
21.9683

> <Gold.Goldscore.Internal.HBond>
0.0000

> <Gold.Goldscore.External.HBond>
0.9579

> <Gold.Goldscore.Internal.Correction>
-0.7585

> <Gold.Goldscore.Hbonds>
donor molecule, donor type, donor heavy atom, donor atom, acceptor molecule, acceptor atom, score
      P1  H  5136  5145       L1    17  0.48

> <Gold.Goldscore.Internal.Vdw.Weighted>
-2.4603

> <Gold.Goldscore.Internal.Torsion.Weighted>
-0.3903

> <Gold.Goldscore.External.Vdw.Weighted>
30.2064

> <Gold.Goldscore.Internal.HBond.Weighted>
0.0000

> <Gold.Goldscore.External.HBond.Weighted>
0.9579

> <Gold.Goldscore.Internal.Correction.Weighted>
-0.7585

> <Gold.Rescore>
     Score     S(PLP)   S(hbond)     S(cho)   S(metal)  DE(clash)   DE(tors)     intcor
     20.56     -21.97       0.00       0.00       0.00       1.38       0.01       ----

> <Gold.PLP.Fitness>
20.5625

> <Gold.PLP.PLP>
-21.9697

> <Gold.PLP.part.hbond>
-0.2754

> <Gold.PLP.part.metal>
0.0000

> <Gold.PLP.part.buried>
4.3269

> <Gold.PLP.part.nonpolar>
-28.6740

> <Gold.PLP.part.repulsive>
2.0816

> <Gold.PLP.ligand.clash>
1.3783

> <Gold.PLP.ligand.torsion>
0.0144

> <Gold.PLP.Chemscore.Hbond>
0.0000

> <Gold.PLP.Chemscore.CHOScore>
0.0000

> <Gold.PLP.Chemscore.Metal>
0.0000

> <Gold.PLP.Chemscore.Internal.Correction>
   9.000000E+99

