#       Name:                CT1002167954
#       Creating user name   hitesit
#       Creation time:       Sun Apr 16 20:16:18 2023


#       File generated by GOLD software.
#

@<TRIPOS>MOLECULE
CT1002167954|ligand_prepared|mol2|1|dock6
    29    30     1
SMALL
NO_CHARGES


@<TRIPOS>ATOM
      1 C1          31.4776  18.6372  58.6936 C.3            1 RES1               0.0000
      2 C2          33.0011  18.5472  58.9162 C.ar           1 RES1               0.0000
      3 C3          30.8800  19.1223  60.0111 C.2            1 RES1               0.0000
      4 C4          31.2729  19.5971  57.5268 C.2            1 RES1               0.0000
      5 C5          30.8194  17.2877  58.3231 C.3            1 RES1               0.0000
      6 C6          33.6636  19.5044  59.6788 C.ar           1 RES1               0.0000
      7 C7          33.7557  17.5132  58.3686 C.ar           1 RES1               0.0000
      8 N8          30.4399  20.4119  60.0684 N.am           1 RES1               0.0000
      9 O9          30.8319  18.3965  60.9966 O.2            1 RES1               0.0000
     10 N10         30.6405  20.7867  57.7773 N.am           1 RES1               0.0000
     11 O11         31.6684  19.3413  56.3961 O.2            1 RES1               0.0000
     12 C12         29.3004  17.3079  58.3887 C.3            1 RES1               0.0000
     13 C13         35.0305  19.4291  59.8888 C.ar           1 RES1               0.0000
     14 C14         35.1227  17.4399  58.5797 C.ar           1 RES1               0.0000
     15 C15         30.2421  21.2509  59.0013 C.2            1 RES1               0.0000
     16 C16         35.7609  18.3967  59.3399 C.ar           1 RES1               0.0000
     17 O17         29.7290  22.3556  59.1543 O.2            1 RES1               0.0000
     18 H18         31.1253  17.0132  57.3060 H              1 RES1               0.0000
     19 H19         31.1920  16.5140  59.0057 H              1 RES1               0.0000
     20 H20         33.1058  20.3255  60.1167 H              1 RES1               0.0000
     21 H21         33.2751  16.7499  57.7662 H              1 RES1               0.0000
     22 H22         30.2395  20.7872  60.9900 H              1 RES1               0.0000
     23 H23         30.4488  21.3812  56.9773 H              1 RES1               0.0000
     24 H24         28.8898  16.3370  58.1197 H              1 RES1               0.0000
     25 H25         28.9609  17.5530  59.3930 H              1 RES1               0.0000
     26 H26         28.8946  18.0492  57.7034 H              1 RES1               0.0000
     27 H27         35.5282  20.1854  60.4868 H              1 RES1               0.0000
     28 H28         35.6936  16.6259  58.1452 H              1 RES1               0.0000
     29 H29         36.8316  18.3377  59.5050 H              1 RES1               0.0000
@<TRIPOS>BOND
    1    1    2 1     
    2    1    3 1     
    3    1    4 1     
    4    1    5 1     
    5    2    6 ar    
    6    2    7 ar    
    7    3    8 1     
    8    3    9 2     
    9    4   10 1     
   10    4   11 2     
   11    5   12 1     
   12    5   18 1     
   13    5   19 1     
   14    6   13 ar    
   15    6   20 1     
   16    7   14 ar    
   17    7   21 1     
   18    8   15 1     
   19    8   22 1     
   20   10   15 1     
   21   10   23 1     
   22   12   24 1     
   23   12   25 1     
   24   12   26 1     
   25   13   16 ar    
   26   13   27 1     
   27   14   16 ar    
   28   14   28 1     
   29   15   17 2     
   30   16   29 1     
@<TRIPOS>SUBSTRUCTURE
      1 RES1           1
@<TRIPOS>SET
DONOR_HYDROGENS      STATIC     ATOMS    <user>   **** ""
2 22 23
ATOM$RED        STATIC     ATOMS    COLORGROUP SYSTEM
2 22 23
@<TRIPOS>COMMENT
> <Gold.Version>
2022.3.0

> <Gold.Id.Protein>
unknown|3l9n_clean|pdb

> <Gold.Protein.RotatedTorsions>
[ 3658 3649 3648 3646 ] final  121.75 input   60.01 | X-H torsion
[ 3578 3569 3568 3566 ] final -134.28 input   59.99 | X-H torsion
[ 3855 3846 3845 3843 ] final -163.81 input   60.02 | X-H torsion
[ 2581 2570 2569 2568 ] final   72.57 input   60.01 | X-H torsion
[ 3119 3112 3110 3107 ] final   32.36 input   60.01 | X-H torsion
[ 5145 5136 5135 5133 ] final   78.79 input   59.99 | X-H torsion
[ 1921 1917 1916 1913 ] final -127.65 input   59.98 | X-H torsion
[ 3169 3160 3159 3157 ] final   89.08 input   59.99 | X-H torsion
[  630  627  626  623 ] final  -63.80 input   60.00 | X-H torsion

> <Gold.Protein.ActiveResidues>
 LEU49   GLY50   THR51   GLY52   SER53   PHE54   GLY55   LEU82   LYS83   GLN84  
 HIS87   GLY126  GLU127  PHE129  SER130  HIS131  LEU132  ARG133  ARG134  GLY136 
 ARG137  ARG165  ASP166  LEU167  LYS168  PRO169  GLU170  ASN171  MET173  ASP184 
 PHE187  TPO197  LEU198  CYS199  GLY200  THR201  PRO202  GLU203  TYR204  LEU205 
 ILE209  ILE210  VAL226  LEU227  TYR229  GLU230  ALA233  GLY234  TYR235  PRO236 
 PRO237  PHE238  PHE239  ALA240  ASP241  GLN242  PRO243  ILE244  GLN245  ILE246 
 TYR247  LYS249  ARG256  PHE257  PRO258  SER259  ASN326  PHE327  ASP328  ASP329 
 TYR330 

> <Gold.Protein.RotatedAtoms>
   27.6136   25.1355   66.8919 H   0  0  0  0  0  0  0  0  0  0  0  0  # atno 630  bound_to 627 
   41.4256   20.5344   54.1680 H   0  0  0  0  0  0  0  0  0  0  0  0  # atno 1921 bound_to 1917
   28.9256   27.7817   57.1741 H   0  0  0  0  0  0  0  0  0  0  0  0  # atno 2581 bound_to 2570
   29.3771   26.3997   57.9708 H   0  0  0  0  0  0  0  0  0  0  0  0  # atno 2582 bound_to 2570
   30.5324   27.4055   57.3361 H   0  0  0  0  0  0  0  0  0  0  0  0  # atno 2583 bound_to 2570
   26.8653   28.7750   56.2189 H   0  0  0  0  0  0  0  0  0  0  0  0  # atno 3119 bound_to 3112
   32.8064   28.8910   49.0008 H   0  0  0  0  0  0  0  0  0  0  0  0  # atno 3169 bound_to 3160
   35.2274   39.4010   43.0537 H   0  0  0  0  0  0  0  0  0  0  0  0  # atno 3578 bound_to 3569
   40.9229   39.4198   43.6941 H   0  0  0  0  0  0  0  0  0  0  0  0  # atno 3658 bound_to 3649
   24.4984   37.1845   59.3440 H   0  0  0  0  0  0  0  0  0  0  0  0  # atno 3855 bound_to 3846
   38.9023   21.3369   61.2255 H   0  0  0  0  0  0  0  0  0  0  0  0  # atno 5145 bound_to 5136
   39.3339   39.4043   43.3441 LP  0  0  0  0  0  0  0  0  0  0  0  0  # atno 5461 bound_to 3649
   40.3146   38.2399   42.7532 LP  0  0  0  0  0  0  0  0  0  0  0  0  # atno 5462 bound_to 3649
   36.5335   38.7475   42.3361 LP  0  0  0  0  0  0  0  0  0  0  0  0  # atno 5463 bound_to 3569
   36.3788   38.6944   43.9608 LP  0  0  0  0  0  0  0  0  0  0  0  0  # atno 5464 bound_to 3569
   25.9680   36.9252   58.6945 LP  0  0  0  0  0  0  0  0  0  0  0  0  # atno 5513 bound_to 3846
   24.6453   36.2367   58.0290 LP  0  0  0  0  0  0  0  0  0  0  0  0  # atno 5514 bound_to 3846
   28.2701   28.9533   57.0203 LP  0  0  0  0  0  0  0  0  0  0  0  0  # atno 5515 bound_to 3112
   28.2602   28.3226   55.5140 LP  0  0  0  0  0  0  0  0  0  0  0  0  # atno 5516 bound_to 3112
   40.4690   21.3167   60.7870 LP  0  0  0  0  0  0  0  0  0  0  0  0  # atno 5523 bound_to 5136
   39.8640   22.5927   61.6071 LP  0  0  0  0  0  0  0  0  0  0  0  0  # atno 5524 bound_to 5136
   42.7451   20.4973   53.2162 LP  0  0  0  0  0  0  0  0  0  0  0  0  # atno 5533 bound_to 1917
   41.3603   21.1695   52.6711 LP  0  0  0  0  0  0  0  0  0  0  0  0  # atno 5534 bound_to 1917
   33.1284   30.4850   48.9478 LP  0  0  0  0  0  0  0  0  0  0  0  0  # atno 5563 bound_to 3160
   32.3647   29.7613   47.6990 LP  0  0  0  0  0  0  0  0  0  0  0  0  # atno 5564 bound_to 3160
   27.6298   26.7248   67.2419 LP  0  0  0  0  0  0  0  0  0  0  0  0  # atno 5571 bound_to 627 
   27.8818   25.6236   68.4211 LP  0  0  0  0  0  0  0  0  0  0  0  0  # atno 5572 bound_to 627 

> <Gold.Score>
     Fitness  S(hb_ext) S(vdw_ext)  S(hb_int)    S(int)      intcor
     35.88       0.89      25.66       0.00      -0.28      -0.76

> <Gold.Goldscore.Fitness>
35.8818

> <Gold.Goldscore.Internal.Vdw>
-0.4401

> <Gold.Goldscore.Internal.Torsion>
-0.6005

> <Gold.Goldscore.External.Vdw>
25.6565

> <Gold.Goldscore.Internal.HBond>
0.0000

> <Gold.Goldscore.External.HBond>
0.8861

> <Gold.Goldscore.Internal.Correction>
-0.7585

> <Gold.Goldscore.Hbonds>
donor molecule, donor type, donor heavy atom, donor atom, acceptor molecule, acceptor atom, score
      L1  H    10    23       P1  2620  0.44

> <Gold.Goldscore.Internal.Vdw.Weighted>
-0.4401

> <Gold.Goldscore.Internal.Torsion.Weighted>
-0.6005

> <Gold.Goldscore.External.Vdw.Weighted>
35.2777

> <Gold.Goldscore.Internal.HBond.Weighted>
0.0000

> <Gold.Goldscore.External.HBond.Weighted>
0.8861

> <Gold.Goldscore.Internal.Correction.Weighted>
-0.7585

> <Gold.Rescore>
     Score     S(PLP)   S(hbond)     S(cho)   S(metal)  DE(clash)   DE(tors)     intcor
     36.16     -35.65       1.00       0.00       0.00       0.00       1.25       ----

> <Gold.PLP.Fitness>
36.1558

> <Gold.PLP.PLP>
-35.6521

> <Gold.PLP.part.hbond>
-1.3951

> <Gold.PLP.part.metal>
0.0000

> <Gold.PLP.part.buried>
0.6058

> <Gold.PLP.part.nonpolar>
-35.6558

> <Gold.PLP.part.repulsive>
0.9100

> <Gold.PLP.ligand.clash>
0.0000

> <Gold.PLP.ligand.torsion>
1.2481

> <Gold.PLP.Chemscore.Hbond>
1.0000

> <Gold.PLP.Chemscore.CHOScore>
0.0000

> <Gold.PLP.Chemscore.Metal>
0.0000

> <Gold.Chemscore.Hbonds>
donor molecule, donor type, donor heavy atom, donor atom, acceptor molecule, acceptor atom, score
      L1  H    10    23       P1  2620  1.00

> <Gold.PLP.Chemscore.Internal.Correction>
   9.000000E+99

