#       Name:                CT1002167954
#       Creating user name   hitesit
#       Creation time:       Sun Apr 16 20:16:13 2023


#       File generated by GOLD software.
#

@<TRIPOS>MOLECULE
CT1002167954|ligand_prepared|mol2|1|dock2
    29    30     1
SMALL
NO_CHARGES


@<TRIPOS>ATOM
      1 C1          33.9303  19.7205  59.3083 C.3            1 RES1               0.0000
      2 C2          32.4739  19.9351  59.7683 C.ar           1 RES1               0.0000
      3 C3          33.9474  19.9804  57.8048 C.2            1 RES1               0.0000
      4 C4          34.7810  20.6931  60.1175 C.2            1 RES1               0.0000
      5 C5          34.4627  18.2916  59.5658 C.3            1 RES1               0.0000
      6 C6          31.8186  21.1353  59.5096 C.ar           1 RES1               0.0000
      7 C7          31.7730  18.9430  60.4489 C.ar           1 RES1               0.0000
      8 N8          34.5130  21.1431  57.3710 N.am           1 RES1               0.0000
      9 O9          33.4371  19.1957  57.0148 O.2            1 RES1               0.0000
     10 N10         35.4145  21.7051  59.4450 N.am           1 RES1               0.0000
     11 O11         34.8950  20.6022  61.3337 O.2            1 RES1               0.0000
     12 C12         35.8786  18.0644  59.0600 C.3            1 RES1               0.0000
     13 C13         30.5091  21.3354  59.9139 C.ar           1 RES1               0.0000
     14 C14         30.4635  19.1453  60.8525 C.ar           1 RES1               0.0000
     15 C15         35.2943  21.9924  58.1126 C.2            1 RES1               0.0000
     16 C16         29.8306  20.3406  60.5851 C.ar           1 RES1               0.0000
     17 O17         35.8527  22.9530  57.5906 O.2            1 RES1               0.0000
     18 H18         34.4373  18.0944  60.6447 H              1 RES1               0.0000
     19 H19         33.7938  17.5721  59.0776 H              1 RES1               0.0000
     20 H20         32.3373  21.9306  58.9847 H              1 RES1               0.0000
     21 H21         32.2512  17.9951  60.6710 H              1 RES1               0.0000
     22 H22         34.3389  21.4053  56.4060 H              1 RES1               0.0000
     23 H23         36.0331  22.2992  59.9878 H              1 RES1               0.0000
     24 H24         36.2031  17.0466  59.2659 H              1 RES1               0.0000
     25 H25         35.9352  18.2273  57.9857 H              1 RES1               0.0000
     26 H26         36.5749  18.7465  59.5434 H              1 RES1               0.0000
     27 H27         30.0159  22.2784  59.7023 H              1 RES1               0.0000
     28 H28         29.9336  18.3598  61.3810 H              1 RES1               0.0000
     29 H29         28.8046  20.4975  60.9014 H              1 RES1               0.0000
@<TRIPOS>BOND
    1    1    2 1     
    2    1    3 1     
    3    1    4 1     
    4    1    5 1     
    5    2    6 ar    
    6    2    7 ar    
    7    3    8 1     
    8    3    9 2     
    9    4   10 1     
   10    4   11 2     
   11    5   12 1     
   12    5   18 1     
   13    5   19 1     
   14    6   13 ar    
   15    6   20 1     
   16    7   14 ar    
   17    7   21 1     
   18    8   15 1     
   19    8   22 1     
   20   10   15 1     
   21   10   23 1     
   22   12   24 1     
   23   12   25 1     
   24   12   26 1     
   25   13   16 ar    
   26   13   27 1     
   27   14   16 ar    
   28   14   28 1     
   29   15   17 2     
   30   16   29 1     
@<TRIPOS>SUBSTRUCTURE
      1 RES1           1
@<TRIPOS>SET
DONOR_HYDROGENS      STATIC     ATOMS    <user>   **** ""
2 22 23
ATOM$RED        STATIC     ATOMS    COLORGROUP SYSTEM
2 22 23
@<TRIPOS>COMMENT
> <Gold.Version>
2022.3.0

> <Gold.Id.Protein>
unknown|3l9n_clean|pdb

> <Gold.Protein.RotatedTorsions>
[ 3658 3649 3648 3646 ] final  -36.18 input   60.01 | X-H torsion
[ 3578 3569 3568 3566 ] final   25.27 input   59.99 | X-H torsion
[ 3855 3846 3845 3843 ] final -160.16 input   60.02 | X-H torsion
[ 2581 2570 2569 2568 ] final   33.26 input   60.01 | X-H torsion
[ 3119 3112 3110 3107 ] final  -13.09 input   60.01 | X-H torsion
[ 5145 5136 5135 5133 ] final   80.82 input   59.99 | X-H torsion
[ 1921 1917 1916 1913 ] final  -44.13 input   59.98 | X-H torsion
[ 3169 3160 3159 3157 ] final -165.24 input   59.99 | X-H torsion
[  630  627  626  623 ] final -151.03 input   60.00 | X-H torsion

> <Gold.Protein.ActiveResidues>
 LEU49   GLY50   THR51   GLY52   SER53   PHE54   GLY55   LEU82   LYS83   GLN84  
 HIS87   GLY126  GLU127  PHE129  SER130  HIS131  LEU132  ARG133  ARG134  GLY136 
 ARG137  ARG165  ASP166  LEU167  LYS168  PRO169  GLU170  ASN171  MET173  ASP184 
 PHE187  TPO197  LEU198  CYS199  GLY200  THR201  PRO202  GLU203  TYR204  LEU205 
 ILE209  ILE210  VAL226  LEU227  TYR229  GLU230  ALA233  GLY234  TYR235  PRO236 
 PRO237  PHE238  PHE239  ALA240  ASP241  GLN242  PRO243  ILE244  GLN245  ILE246 
 TYR247  LYS249  ARG256  PHE257  PRO258  SER259  ASN326  PHE327  ASP328  ASP329 
 TYR330 

> <Gold.Protein.RotatedAtoms>
   27.5606   26.4237   66.8110 H   0  0  0  0  0  0  0  0  0  0  0  0  # atno 630  bound_to 627 
   41.0070   21.0945   53.1355 H   0  0  0  0  0  0  0  0  0  0  0  0  # atno 1921 bound_to 1917
   29.5031   28.0171   57.0141 H   0  0  0  0  0  0  0  0  0  0  0  0  # atno 2581 bound_to 2570
   28.8426   26.7174   57.8035 H   0  0  0  0  0  0  0  0  0  0  0  0  # atno 2582 bound_to 2570
   30.4892   26.8527   57.6633 H   0  0  0  0  0  0  0  0  0  0  0  0  # atno 2583 bound_to 2570
   27.1473   29.0057   56.8436 H   0  0  0  0  0  0  0  0  0  0  0  0  # atno 3119 bound_to 3112
   32.3328   29.5329   47.7402 H   0  0  0  0  0  0  0  0  0  0  0  0  # atno 3169 bound_to 3160
   36.7779   38.5115   43.5010 H   0  0  0  0  0  0  0  0  0  0  0  0  # atno 3578 bound_to 3569
   39.3035   38.9033   42.9964 H   0  0  0  0  0  0  0  0  0  0  0  0  # atno 3658 bound_to 3649
   24.4512   37.1586   59.3184 H   0  0  0  0  0  0  0  0  0  0  0  0  # atno 3855 bound_to 3846
   38.8905   21.3631   61.2421 H   0  0  0  0  0  0  0  0  0  0  0  0  # atno 5145 bound_to 5136
   40.8548   38.4123   42.9859 LP  0  0  0  0  0  0  0  0  0  0  0  0  # atno 5461 bound_to 3649
   40.4251   39.7524   43.8142 LP  0  0  0  0  0  0  0  0  0  0  0  0  # atno 5462 bound_to 3649
   35.3541   39.2822   43.6652 LP  0  0  0  0  0  0  0  0  0  0  0  0  # atno 5463 bound_to 3569
   35.9967   39.0554   42.1812 LP  0  0  0  0  0  0  0  0  0  0  0  0  # atno 5464 bound_to 3569
   25.9607   36.9597   58.7429 LP  0  0  0  0  0  0  0  0  0  0  0  0  # atno 5513 bound_to 3846
   24.7001   36.2282   58.0063 LP  0  0  0  0  0  0  0  0  0  0  0  0  # atno 5514 bound_to 3846
   28.7054   28.6869   56.5003 LP  0  0  0  0  0  0  0  0  0  0  0  0  # atno 5515 bound_to 3112
   27.5407   28.3565   55.4045 LP  0  0  0  0  0  0  0  0  0  0  0  0  # atno 5516 bound_to 3112
   40.4488   21.2913   60.7794 LP  0  0  0  0  0  0  0  0  0  0  0  0  # atno 5523 bound_to 5136
   39.8961   22.5917   61.5980 LP  0  0  0  0  0  0  0  0  0  0  0  0  # atno 5524 bound_to 5136
   41.9800   20.3402   54.1997 LP  0  0  0  0  0  0  0  0  0  0  0  0  # atno 5533 bound_to 1917
   42.5470   20.7623   52.7277 LP  0  0  0  0  0  0  0  0  0  0  0  0  # atno 5534 bound_to 1917
   32.9164   29.0136   49.1675 LP  0  0  0  0  0  0  0  0  0  0  0  0  # atno 5563 bound_to 3160
   33.0538   30.5861   48.7493 LP  0  0  0  0  0  0  0  0  0  0  0  0  # atno 5564 bound_to 3160
   27.8599   26.1540   68.3878 LP  0  0  0  0  0  0  0  0  0  0  0  0  # atno 5571 bound_to 627 
   27.7050   24.8973   67.3567 LP  0  0  0  0  0  0  0  0  0  0  0  0  # atno 5572 bound_to 627 

> <Gold.Score>
     Fitness  S(hb_ext) S(vdw_ext)  S(hb_int)    S(int)      intcor
     35.24       0.96      24.98       0.00      -0.06      -0.76

> <Gold.Goldscore.Fitness>
35.2415

> <Gold.Goldscore.Internal.Vdw>
-0.4466

> <Gold.Goldscore.Internal.Torsion>
-0.3771

> <Gold.Goldscore.External.Vdw>
24.9763

> <Gold.Goldscore.Internal.HBond>
0.0000

> <Gold.Goldscore.External.HBond>
0.9579

> <Gold.Goldscore.Internal.Correction>
-0.7650

> <Gold.Goldscore.Hbonds>
donor molecule, donor type, donor heavy atom, donor atom, acceptor molecule, acceptor atom, score
      L1  H     8    22       P1  2601  0.48

> <Gold.Goldscore.Internal.Vdw.Weighted>
-0.4466

> <Gold.Goldscore.Internal.Torsion.Weighted>
-0.3771

> <Gold.Goldscore.External.Vdw.Weighted>
34.3424

> <Gold.Goldscore.Internal.HBond.Weighted>
0.0000

> <Gold.Goldscore.External.HBond.Weighted>
0.9579

> <Gold.Goldscore.Internal.Correction.Weighted>
-0.7650

> <Gold.Rescore>
     Score     S(PLP)   S(hbond)     S(cho)   S(metal)  DE(clash)   DE(tors)     intcor
     35.03     -33.59       0.99       0.00       0.00       0.00       0.77       ----

> <Gold.PLP.Fitness>
35.0282

> <Gold.PLP.PLP>
-33.5946

> <Gold.PLP.part.hbond>
-2.0000

> <Gold.PLP.part.metal>
0.0000

> <Gold.PLP.part.buried>
0.7684

> <Gold.PLP.part.nonpolar>
-32.9446

> <Gold.PLP.part.repulsive>
0.3652

> <Gold.PLP.ligand.clash>
0.0000

> <Gold.PLP.ligand.torsion>
0.7712

> <Gold.PLP.Chemscore.Hbond>
0.9920

> <Gold.PLP.Chemscore.CHOScore>
0.0000

> <Gold.PLP.Chemscore.Metal>
0.0000

> <Gold.Chemscore.Hbonds>
donor molecule, donor type, donor heavy atom, donor atom, acceptor molecule, acceptor atom, score
      L1  H     8    22       P1  2601  0.99

> <Gold.PLP.Chemscore.Internal.Correction>
   9.000000E+99

