#       Name:                CT1002167954
#       Creating user name   hitesit
#       Creation time:       Sun Apr 16 20:16:14 2023


#       File generated by GOLD software.
#

@<TRIPOS>MOLECULE
CT1002167954|ligand_prepared|mol2|1|dock3
    29    30     1
SMALL
NO_CHARGES


@<TRIPOS>ATOM
      1 C1          32.9268  19.3318  58.7540 C.3            1 RES1               0.0000
      2 C2          31.5199  19.3262  59.3860 C.ar           1 RES1               0.0000
      3 C3          33.8776  18.7953  59.8201 C.2            1 RES1               0.0000
      4 C4          32.8370  18.4611  57.5055 C.2            1 RES1               0.0000
      5 C5          33.4129  20.7354  58.3237 C.3            1 RES1               0.0000
      6 C6          30.7523  18.1654  59.3964 C.ar           1 RES1               0.0000
      7 C7          30.9782  20.4713  59.9639 C.ar           1 RES1               0.0000
      8 N8          34.3596  17.5300  59.6578 N.am           1 RES1               0.0000
      9 O9          34.1687  19.4578  60.8083 O.2            1 RES1               0.0000
     10 N10         33.5535  17.2932  57.4843 N.am           1 RES1               0.0000
     11 O11         32.1393  18.7678  56.5467 O.2            1 RES1               0.0000
     12 C12         34.6793  20.7143  57.4822 C.3            1 RES1               0.0000
     13 C13         29.4901  18.1491  59.9664 C.ar           1 RES1               0.0000
     14 C14         29.7157  20.4529  60.5332 C.ar           1 RES1               0.0000
     15 C15         34.2865  16.7731  58.5161 C.2            1 RES1               0.0000
     16 C16         28.9712  19.2925  60.5355 C.ar           1 RES1               0.0000
     17 O17         34.8587  15.6897  58.4400 O.2            1 RES1               0.0000
     18 H18         32.6159  21.2246  57.7501 H              1 RES1               0.0000
     19 H19         33.5964  21.3365  59.2228 H              1 RES1               0.0000
     20 H20         31.1431  17.2565  58.9511 H              1 RES1               0.0000
     21 H21         31.5455  21.3958  59.9726 H              1 RES1               0.0000
     22 H22         34.8168  17.1073  60.4595 H              1 RES1               0.0000
     23 H23         33.5391  16.7624  56.6193 H              1 RES1               0.0000
     24 H24         34.9766  21.7242  57.2075 H              1 RES1               0.0000
     25 H25         35.4997  20.2571  58.0314 H              1 RES1               0.0000
     26 H26         34.5251  20.1458  56.5675 H              1 RES1               0.0000
     27 H27         28.9077  17.2337  59.9645 H              1 RES1               0.0000
     28 H28         29.3110  21.3553  60.9794 H              1 RES1               0.0000
     29 H29         27.9825  19.2794  60.9823 H              1 RES1               0.0000
@<TRIPOS>BOND
    1    1    2 1     
    2    1    3 1     
    3    1    4 1     
    4    1    5 1     
    5    2    6 ar    
    6    2    7 ar    
    7    3    8 1     
    8    3    9 2     
    9    4   10 1     
   10    4   11 2     
   11    5   12 1     
   12    5   18 1     
   13    5   19 1     
   14    6   13 ar    
   15    6   20 1     
   16    7   14 ar    
   17    7   21 1     
   18    8   15 1     
   19    8   22 1     
   20   10   15 1     
   21   10   23 1     
   22   12   24 1     
   23   12   25 1     
   24   12   26 1     
   25   13   16 ar    
   26   13   27 1     
   27   14   16 ar    
   28   14   28 1     
   29   15   17 2     
   30   16   29 1     
@<TRIPOS>SUBSTRUCTURE
      1 RES1           1
@<TRIPOS>SET
DONOR_HYDROGENS      STATIC     ATOMS    <user>   **** ""
2 22 23
ATOM$RED        STATIC     ATOMS    COLORGROUP SYSTEM
2 22 23
@<TRIPOS>COMMENT
> <Gold.Version>
2022.3.0

> <Gold.Id.Protein>
unknown|3l9n_clean|pdb

> <Gold.Protein.RotatedTorsions>
[ 3658 3649 3648 3646 ] final   72.66 input   60.01 | X-H torsion
[ 3578 3569 3568 3566 ] final -124.94 input   59.99 | X-H torsion
[ 3855 3846 3845 3843 ] final  165.14 input   60.02 | X-H torsion
[ 2581 2570 2569 2568 ] final   19.88 input   60.01 | X-H torsion
[ 3119 3112 3110 3107 ] final  -18.73 input   60.01 | X-H torsion
[ 5145 5136 5135 5133 ] final   82.54 input   59.99 | X-H torsion
[ 1921 1917 1916 1913 ] final   41.95 input   59.98 | X-H torsion
[ 3169 3160 3159 3157 ] final  -29.76 input   59.99 | X-H torsion
[  630  627  626  623 ] final   19.35 input   60.00 | X-H torsion

> <Gold.Protein.ActiveResidues>
 LEU49   GLY50   THR51   GLY52   SER53   PHE54   GLY55   LEU82   LYS83   GLN84  
 HIS87   GLY126  GLU127  PHE129  SER130  HIS131  LEU132  ARG133  ARG134  GLY136 
 ARG137  ARG165  ASP166  LEU167  LYS168  PRO169  GLU170  ASN171  MET173  ASP184 
 PHE187  TPO197  LEU198  CYS199  GLY200  THR201  PRO202  GLU203  TYR204  LEU205 
 ILE209  ILE210  VAL226  LEU227  TYR229  GLU230  ALA233  GLY234  TYR235  PRO236 
 PRO237  PHE238  PHE239  ALA240  ASP241  GLN242  PRO243  ILE244  GLN245  ILE246 
 TYR247  LYS249  ARG256  PHE257  PRO258  SER259  ASN326  PHE327  ASP328  ASP329 
 TYR330 

> <Gold.Protein.RotatedAtoms>
   27.8416   25.1170   68.1134 H   0  0  0  0  0  0  0  0  0  0  0  0  # atno 630  bound_to 627 
   42.1102   21.0002   52.4973 H   0  0  0  0  0  0  0  0  0  0  0  0  # atno 1921 bound_to 1917
   29.7262   28.0129   57.0083 H   0  0  0  0  0  0  0  0  0  0  0  0  # atno 2581 bound_to 2570
   28.7317   26.8860   57.7082 H   0  0  0  0  0  0  0  0  0  0  0  0  # atno 2582 bound_to 2570
   30.3770   26.6883   57.7643 H   0  0  0  0  0  0  0  0  0  0  0  0  # atno 2583 bound_to 2570
   27.2159   29.0228   56.9023 H   0  0  0  0  0  0  0  0  0  0  0  0  # atno 3119 bound_to 3112
   33.1289   30.4694   48.9609 H   0  0  0  0  0  0  0  0  0  0  0  0  # atno 3169 bound_to 3160
   35.2238   39.3900   43.2056 H   0  0  0  0  0  0  0  0  0  0  0  0  # atno 3578 bound_to 3569
   40.2459   39.7868   43.8023 H   0  0  0  0  0  0  0  0  0  0  0  0  # atno 3658 bound_to 3649
   24.9667   37.3308   59.4471 H   0  0  0  0  0  0  0  0  0  0  0  0  # atno 3855 bound_to 3846
   38.8814   21.3855   61.2561 H   0  0  0  0  0  0  0  0  0  0  0  0  # atno 5145 bound_to 5136
   39.3623   38.7560   42.9054 LP  0  0  0  0  0  0  0  0  0  0  0  0  # atno 5461 bound_to 3649
   40.9682   38.5186   43.0829 LP  0  0  0  0  0  0  0  0  0  0  0  0  # atno 5462 bound_to 3649
   36.4188   38.8168   42.2614 LP  0  0  0  0  0  0  0  0  0  0  0  0  # atno 5463 bound_to 3569
   36.4971   38.6360   43.8825 LP  0  0  0  0  0  0  0  0  0  0  0  0  # atno 5464 bound_to 3569
   25.8793   36.6223   58.3007 LP  0  0  0  0  0  0  0  0  0  0  0  0  # atno 5513 bound_to 3846
   24.2626   36.3923   58.3190 LP  0  0  0  0  0  0  0  0  0  0  0  0  # atno 5514 bound_to 3846
   28.7236   28.6501   56.4173 LP  0  0  0  0  0  0  0  0  0  0  0  0  # atno 5515 bound_to 3112
   27.4534   28.3762   55.4283 LP  0  0  0  0  0  0  0  0  0  0  0  0  # atno 5516 bound_to 3112
   40.4310   21.2703   60.7734 LP  0  0  0  0  0  0  0  0  0  0  0  0  # atno 5523 bound_to 5136
   39.9230   22.5902   61.5899 LP  0  0  0  0  0  0  0  0  0  0  0  0  # atno 5524 bound_to 5136
   40.9612   20.8979   53.6452 LP  0  0  0  0  0  0  0  0  0  0  0  0  # atno 5533 bound_to 1917
   42.4546   20.2997   53.9251 LP  0  0  0  0  0  0  0  0  0  0  0  0  # atno 5534 bound_to 1917
   32.3685   29.7799   47.6985 LP  0  0  0  0  0  0  0  0  0  0  0  0  # atno 5563 bound_to 3160
   32.7997   28.8762   48.9885 LP  0  0  0  0  0  0  0  0  0  0  0  0  # atno 5564 bound_to 3160
   27.5429   25.6510   66.6053 LP  0  0  0  0  0  0  0  0  0  0  0  0  # atno 5571 bound_to 627 
   27.7391   26.7159   67.8277 LP  0  0  0  0  0  0  0  0  0  0  0  0  # atno 5572 bound_to 627 

> <Gold.Score>
     Fitness  S(hb_ext) S(vdw_ext)  S(hb_int)    S(int)      intcor
     34.56       0.00      25.26       0.00      -0.17      -0.76

> <Gold.Goldscore.Fitness>
34.5571

> <Gold.Goldscore.Internal.Vdw>
-0.3969

> <Gold.Goldscore.Internal.Torsion>
-0.5327

> <Gold.Goldscore.External.Vdw>
25.2568

> <Gold.Goldscore.Internal.HBond>
0.0000

> <Gold.Goldscore.External.HBond>
0.0000

> <Gold.Goldscore.Internal.Correction>
-0.7585

> <Gold.Goldscore.Internal.Vdw.Weighted>
-0.3969

> <Gold.Goldscore.Internal.Torsion.Weighted>
-0.5327

> <Gold.Goldscore.External.Vdw.Weighted>
34.7282

> <Gold.Goldscore.Internal.HBond.Weighted>
0.0000

> <Gold.Goldscore.External.HBond.Weighted>
0.0000

> <Gold.Goldscore.Internal.Correction.Weighted>
-0.7585

> <Gold.Rescore>
     Score     S(PLP)   S(hbond)     S(cho)   S(metal)  DE(clash)   DE(tors)     intcor
     27.49     -29.31       0.00       0.00       0.00       0.00       0.91       ----

> <Gold.PLP.Fitness>
27.4896

> <Gold.PLP.PLP>
-29.3130

> <Gold.PLP.part.hbond>
-1.0000

> <Gold.PLP.part.metal>
0.0000

> <Gold.PLP.part.buried>
2.2589

> <Gold.PLP.part.nonpolar>
-31.9223

> <Gold.PLP.part.repulsive>
0.1591

> <Gold.PLP.ligand.clash>
0.0000

> <Gold.PLP.ligand.torsion>
0.9117

> <Gold.PLP.Chemscore.Hbond>
0.0000

> <Gold.PLP.Chemscore.CHOScore>
0.0000

> <Gold.PLP.Chemscore.Metal>
0.0000

> <Gold.PLP.Chemscore.Internal.Correction>
   9.000000E+99

