#       Name:                CT1002167954
#       Creating user name   hitesit
#       Creation time:       Sun Apr 16 20:16:11 2023


#       File generated by GOLD software.
#

@<TRIPOS>MOLECULE
CT1002167954|ligand_prepared|mol2|1|dock1
    29    30     1
SMALL
NO_CHARGES


@<TRIPOS>ATOM
      1 C1          33.8302  19.6611  59.1530 C.3            1 RES1               0.0000
      2 C2          32.4075  19.9070  59.6952 C.ar           1 RES1               0.0000
      3 C3          33.7315  19.7538  57.6331 C.2            1 RES1               0.0000
      4 C4          34.7179  20.7275  59.7850 C.2            1 RES1               0.0000
      5 C5          34.4095  18.2760  59.5240 C.3            1 RES1               0.0000
      6 C6          31.7408  18.9168  60.4106 C.ar           1 RES1               0.0000
      7 C7          31.7510  21.1177  59.4907 C.ar           1 RES1               0.0000
      8 N8          34.2396  20.8685  57.0338 N.am           1 RES1               0.0000
      9 O9          33.1808  18.8805  56.9741 O.2            1 RES1               0.0000
     10 N10         35.2793  21.6669  58.9603 N.am           1 RES1               0.0000
     11 O11         34.9229  20.7727  60.9917 O.2            1 RES1               0.0000
     12 C12         35.8185  18.0410  59.0027 C.3            1 RES1               0.0000
     13 C13         30.4652  19.1302  60.9062 C.ar           1 RES1               0.0000
     14 C14         30.4752  21.3290  59.9870 C.ar           1 RES1               0.0000
     15 C15         35.0556  21.8040  57.6174 C.2            1 RES1               0.0000
     16 C16         29.8317  20.3364  60.6952 C.ar           1 RES1               0.0000
     17 O17         35.5542  22.7081  56.9531 O.2            1 RES1               0.0000
     18 H18         34.4161  18.1772  60.6165 H              1 RES1               0.0000
     19 H19         33.7496  17.4978  59.1210 H              1 RES1               0.0000
     20 H20         32.2224  17.9603  60.5845 H              1 RES1               0.0000
     21 H21         32.2375  21.9125  58.9356 H              1 RES1               0.0000
     22 H22         33.9897  21.0205  56.0618 H              1 RES1               0.0000
     23 H23         35.9237  22.3249  59.3870 H              1 RES1               0.0000
     24 H24         36.1769  17.0550  59.2908 H              1 RES1               0.0000
     25 H25         35.8441  18.1070  57.9170 H              1 RES1               0.0000
     26 H26         36.5067  18.7823  59.4036 H              1 RES1               0.0000
     27 H27         29.9625  18.3453  61.4617 H              1 RES1               0.0000
     28 H28         29.9803  22.2796  59.8180 H              1 RES1               0.0000
     29 H29         28.8326  20.5034  61.0838 H              1 RES1               0.0000
@<TRIPOS>BOND
    1    1    2 1     
    2    1    3 1     
    3    1    4 1     
    4    1    5 1     
    5    2    6 ar    
    6    2    7 ar    
    7    3    8 1     
    8    3    9 2     
    9    4   10 1     
   10    4   11 2     
   11    5   12 1     
   12    5   18 1     
   13    5   19 1     
   14    6   13 ar    
   15    6   20 1     
   16    7   14 ar    
   17    7   21 1     
   18    8   15 1     
   19    8   22 1     
   20   10   15 1     
   21   10   23 1     
   22   12   24 1     
   23   12   25 1     
   24   12   26 1     
   25   13   16 ar    
   26   13   27 1     
   27   14   16 ar    
   28   14   28 1     
   29   15   17 2     
   30   16   29 1     
@<TRIPOS>SUBSTRUCTURE
      1 RES1           1
@<TRIPOS>SET
DONOR_HYDROGENS      STATIC     ATOMS    <user>   **** ""
2 22 23
ATOM$RED        STATIC     ATOMS    COLORGROUP SYSTEM
2 22 23
@<TRIPOS>COMMENT
> <Gold.Version>
2022.3.0

> <Gold.Id.Protein>
unknown|3l9n_clean|pdb

> <Gold.Protein.RotatedTorsions>
[ 3658 3649 3648 3646 ] final  157.33 input   60.01 | X-H torsion
[ 3578 3569 3568 3566 ] final -110.97 input   59.99 | X-H torsion
[ 3855 3846 3845 3843 ] final -120.83 input   60.02 | X-H torsion
[ 2581 2570 2569 2568 ] final   67.38 input   60.01 | X-H torsion
[ 3119 3112 3110 3107 ] final  -38.95 input   60.01 | X-H torsion
[ 5145 5136 5135 5133 ] final   70.90 input   59.99 | X-H torsion
[ 1921 1917 1916 1913 ] final   96.85 input   59.98 | X-H torsion
[ 3169 3160 3159 3157 ] final -132.02 input   59.99 | X-H torsion
[  630  627  626  623 ] final -149.72 input   60.00 | X-H torsion

> <Gold.Protein.ActiveResidues>
 LEU49   GLY50   THR51   GLY52   SER53   PHE54   GLY55   LEU82   LYS83   GLN84  
 HIS87   GLY126  GLU127  PHE129  SER130  HIS131  LEU132  ARG133  ARG134  GLY136 
 ARG137  ARG165  ASP166  LEU167  LYS168  PRO169  GLU170  ASN171  MET173  ASP184 
 PHE187  TPO197  LEU198  CYS199  GLY200  THR201  PRO202  GLU203  TYR204  LEU205 
 ILE209  ILE210  VAL226  LEU227  TYR229  GLU230  ALA233  GLY234  TYR235  PRO236 
 PRO237  PHE238  PHE239  ALA240  ASP241  GLN242  PRO243  ILE244  GLN245  ILE246 
 TYR247  LYS249  ARG256  PHE257  PRO258  SER259  ASN326  PHE327  ASP328  ASP329 
 TYR330 

> <Gold.Protein.RotatedAtoms>
   27.5586   26.4071   66.7977 H   0  0  0  0  0  0  0  0  0  0  0  0  # atno 630  bound_to 627 
   42.6971   20.6066   52.9927 H   0  0  0  0  0  0  0  0  0  0  0  0  # atno 1921 bound_to 1917
   28.9887   27.8319   57.1422 H   0  0  0  0  0  0  0  0  0  0  0  0  # atno 2581 bound_to 2570
   29.2941   26.4226   57.9604 H   0  0  0  0  0  0  0  0  0  0  0  0  # atno 2582 bound_to 2570
   30.5522   27.3325   57.3784 H   0  0  0  0  0  0  0  0  0  0  0  0  # atno 2583 bound_to 2570
   27.5034   29.0562   57.0581 H   0  0  0  0  0  0  0  0  0  0  0  0  # atno 3119 bound_to 3112
   32.4467   30.0558   47.7414 H   0  0  0  0  0  0  0  0  0  0  0  0  # atno 3169 bound_to 3160
   35.2589   39.3519   43.4274 H   0  0  0  0  0  0  0  0  0  0  0  0  # atno 3578 bound_to 3569
   41.1135   38.9571   43.4170 H   0  0  0  0  0  0  0  0  0  0  0  0  # atno 3658 bound_to 3649
   24.1254   36.8079   58.9083 H   0  0  0  0  0  0  0  0  0  0  0  0  # atno 3855 bound_to 3846
   38.9579   21.2403   61.1607 H   0  0  0  0  0  0  0  0  0  0  0  0  # atno 5145 bound_to 5136
   39.7005   39.7308   43.6458 LP  0  0  0  0  0  0  0  0  0  0  0  0  # atno 5461 bound_to 3649
   39.7560   38.3796   42.7306 LP  0  0  0  0  0  0  0  0  0  0  0  0  # atno 5462 bound_to 3649
   36.2295   38.9266   42.1925 LP  0  0  0  0  0  0  0  0  0  0  0  0  # atno 5463 bound_to 3569
   36.6510   38.5647   43.7281 LP  0  0  0  0  0  0  0  0  0  0  0  0  # atno 5464 bound_to 3569
   25.6589   37.2602   59.2133 LP  0  0  0  0  0  0  0  0  0  0  0  0  # atno 5513 bound_to 3846
   25.3298   36.2807   57.9488 LP  0  0  0  0  0  0  0  0  0  0  0  0  # atno 5514 bound_to 3846
   28.7147   28.5229   56.1117 LP  0  0  0  0  0  0  0  0  0  0  0  0  # atno 5515 bound_to 3112
   27.1726   28.4697   55.5770 LP  0  0  0  0  0  0  0  0  0  0  0  0  # atno 5516 bound_to 3112
   40.5390   21.4205   60.8215 LP  0  0  0  0  0  0  0  0  0  0  0  0  # atno 5523 bound_to 5136
   39.7380   22.5861   61.6379 LP  0  0  0  0  0  0  0  0  0  0  0  0  # atno 5524 bound_to 5136
   41.1736   21.1589   52.8437 LP  0  0  0  0  0  0  0  0  0  0  0  0  # atno 5533 bound_to 1917
   41.6511   20.4352   54.2275 LP  0  0  0  0  0  0  0  0  0  0  0  0  # atno 5534 bound_to 1917
   32.6635   28.7937   48.7452 LP  0  0  0  0  0  0  0  0  0  0  0  0  # atno 5563 bound_to 3160
   33.1920   30.2791   49.1704 LP  0  0  0  0  0  0  0  0  0  0  0  0  # atno 5564 bound_to 3160
   27.8580   26.1740   68.3803 LP  0  0  0  0  0  0  0  0  0  0  0  0  # atno 5571 bound_to 627 
   27.7090   24.8939   67.3775 LP  0  0  0  0  0  0  0  0  0  0  0  0  # atno 5572 bound_to 627 

> <Gold.Score>
     Fitness  S(hb_ext) S(vdw_ext)  S(hb_int)    S(int)      intcor
     35.07       1.12      25.26       0.00      -0.79      -0.77

> <Gold.Goldscore.Fitness>
35.0666

> <Gold.Goldscore.Internal.Vdw>
-1.1914

> <Gold.Goldscore.Internal.Torsion>
-0.3675

> <Gold.Goldscore.External.Vdw>
25.2620

> <Gold.Goldscore.Internal.HBond>
0.0000

> <Gold.Goldscore.External.HBond>
1.1249

> <Gold.Goldscore.Internal.Correction>
-0.7653

> <Gold.Goldscore.Hbonds>
donor molecule, donor type, donor heavy atom, donor atom, acceptor molecule, acceptor atom, score
      L1  H     8    22       P1  2601  0.56

> <Gold.Goldscore.Internal.Vdw.Weighted>
-1.1914

> <Gold.Goldscore.Internal.Torsion.Weighted>
-0.3675

> <Gold.Goldscore.External.Vdw.Weighted>
34.7353

> <Gold.Goldscore.Internal.HBond.Weighted>
0.0000

> <Gold.Goldscore.External.HBond.Weighted>
1.1249

> <Gold.Goldscore.Internal.Correction.Weighted>
-0.7653

> <Gold.Rescore>
     Score     S(PLP)   S(hbond)     S(cho)   S(metal)  DE(clash)   DE(tors)     intcor
     27.82     -25.20       1.00       0.00       0.00       0.00       0.19       ----

> <Gold.PLP.Fitness>
27.8185

> <Gold.PLP.PLP>
-25.2004

> <Gold.PLP.part.hbond>
-1.0107

> <Gold.PLP.part.metal>
0.0000

> <Gold.PLP.part.buried>
7.9978

> <Gold.PLP.part.nonpolar>
-34.2253

> <Gold.PLP.part.repulsive>
0.7875

> <Gold.PLP.ligand.clash>
0.0000

> <Gold.PLP.ligand.torsion>
0.1909

> <Gold.PLP.Chemscore.Hbond>
1.0000

> <Gold.PLP.Chemscore.CHOScore>
0.0000

> <Gold.PLP.Chemscore.Metal>
0.0000

> <Gold.Chemscore.Hbonds>
donor molecule, donor type, donor heavy atom, donor atom, acceptor molecule, acceptor atom, score
      L1  H     8    22       P1  2601  0.21

> <Gold.PLP.Chemscore.Internal.Correction>
   9.000000E+99

