#       Name:                CT1002167954
#       Creating user name   hitesit
#       Creation time:       Sun Apr 16 20:16:23 2023


#       File generated by GOLD software.
#

@<TRIPOS>MOLECULE
CT1002167954|ligand_prepared|mol2|1|dock10
    29    30     1
SMALL
NO_CHARGES


@<TRIPOS>ATOM
      1 C1          33.9266  17.8279  58.7788 C.3            1 RES1               0.0000
      2 C2          32.4557  17.3757  58.8827 C.ar           1 RES1               0.0000
      3 C3          33.9982  18.7834  57.5913 C.2            1 RES1               0.0000
      4 C4          34.2705  18.4720  60.1172 C.2            1 RES1               0.0000
      5 C5          34.9211  16.6685  58.5370 C.3            1 RES1               0.0000
      6 C6          31.5349  18.1218  59.6122 C.ar           1 RES1               0.0000
      7 C7          32.0050  16.2183  58.2535 C.ar           1 RES1               0.0000
      8 N8          34.1340  20.1139  57.8582 N.am           1 RES1               0.0000
      9 O9          33.8972  18.3797  56.4393 O.2            1 RES1               0.0000
     10 N10         34.5489  19.8137  60.1314 N.am           1 RES1               0.0000
     11 O11         34.2865  17.8333  61.1622 O.2            1 RES1               0.0000
     12 C12         36.3790  17.0658  58.7071 C.3            1 RES1               0.0000
     13 C13         30.2107  17.7268  59.7069 C.ar           1 RES1               0.0000
     14 C14         30.6804  15.8250  58.3497 C.ar           1 RES1               0.0000
     15 C15         34.4663  20.6700  59.0674 C.2            1 RES1               0.0000
     16 C16         29.7825  16.5786  59.0754 C.ar           1 RES1               0.0000
     17 O17         34.6792  21.8746  59.1703 O.2            1 RES1               0.0000
     18 H18         34.6926  15.8556  59.2372 H              1 RES1               0.0000
     19 H19         34.7760  16.2853  57.5194 H              1 RES1               0.0000
     20 H20         31.8540  19.0270  60.1179 H              1 RES1               0.0000
     21 H21         32.6939  15.6093  57.6781 H              1 RES1               0.0000
     22 H22         33.9737  20.7547  57.0875 H              1 RES1               0.0000
     23 H23         34.8455  20.2109  61.0172 H              1 RES1               0.0000
     24 H24         37.0339  16.2160  58.5262 H              1 RES1               0.0000
     25 H25         36.6476  17.8554  58.0084 H              1 RES1               0.0000
     26 H26         36.5648  17.4282  59.7160 H              1 RES1               0.0000
     27 H27         29.5083  18.3226  60.2803 H              1 RES1               0.0000
     28 H28         30.3479  14.9202  57.8516 H              1 RES1               0.0000
     29 H29         28.7451  16.2696  59.1494 H              1 RES1               0.0000
@<TRIPOS>BOND
    1    1    2 1     
    2    1    3 1     
    3    1    4 1     
    4    1    5 1     
    5    2    6 ar    
    6    2    7 ar    
    7    3    8 1     
    8    3    9 2     
    9    4   10 1     
   10    4   11 2     
   11    5   12 1     
   12    5   18 1     
   13    5   19 1     
   14    6   13 ar    
   15    6   20 1     
   16    7   14 ar    
   17    7   21 1     
   18    8   15 1     
   19    8   22 1     
   20   10   15 1     
   21   10   23 1     
   22   12   24 1     
   23   12   25 1     
   24   12   26 1     
   25   13   16 ar    
   26   13   27 1     
   27   14   16 ar    
   28   14   28 1     
   29   15   17 2     
   30   16   29 1     
@<TRIPOS>SUBSTRUCTURE
      1 RES1           1
@<TRIPOS>SET
DONOR_HYDROGENS      STATIC     ATOMS    <user>   **** ""
2 22 23
ATOM$RED        STATIC     ATOMS    COLORGROUP SYSTEM
2 22 23
@<TRIPOS>COMMENT
> <Gold.Version>
2022.3.0

> <Gold.Id.Protein>
unknown|3l9n_clean|pdb

> <Gold.Protein.RotatedTorsions>
[ 3658 3649 3648 3646 ] final    9.29 input   60.01 | X-H torsion
[ 3578 3569 3568 3566 ] final   74.70 input   59.99 | X-H torsion
[ 3855 3846 3845 3843 ] final  160.31 input   60.02 | X-H torsion
[ 2581 2570 2569 2568 ] final -120.95 input   60.01 | X-H torsion
[ 3119 3112 3110 3107 ] final  -21.46 input   60.01 | X-H torsion
[ 5145 5136 5135 5133 ] final  101.14 input   59.99 | X-H torsion
[ 1921 1917 1916 1913 ] final  -22.97 input   59.98 | X-H torsion
[ 3169 3160 3159 3157 ] final  -35.06 input   59.99 | X-H torsion
[  630  627  626  623 ] final -115.95 input   60.00 | X-H torsion

> <Gold.Protein.ActiveResidues>
 LEU49   GLY50   THR51   GLY52   SER53   PHE54   GLY55   LEU82   LYS83   GLN84  
 HIS87   GLY126  GLU127  PHE129  SER130  HIS131  LEU132  ARG133  ARG134  GLY136 
 ARG137  ARG165  ASP166  LEU167  LYS168  PRO169  GLU170  ASN171  MET173  ASP184 
 PHE187  TPO197  LEU198  CYS199  GLY200  THR201  PRO202  GLU203  TYR204  LEU205 
 ILE209  ILE210  VAL226  LEU227  TYR229  GLU230  ALA233  GLY234  TYR235  PRO236 
 PRO237  PHE238  PHE239  ALA240  ASP241  GLN242  PRO243  ILE244  GLN245  ILE246 
 TYR247  LYS249  ARG256  PHE257  PRO258  SER259  ASN326  PHE327  ASP328  ASP329 
 TYR330 

> <Gold.Protein.RotatedAtoms>
   27.5365   25.9011   66.5994 H   0  0  0  0  0  0  0  0  0  0  0  0  # atno 630  bound_to 627 
   41.1807   21.1576   52.8456 H   0  0  0  0  0  0  0  0  0  0  0  0  # atno 1921 bound_to 1917
   30.1232   26.4905   57.8904 H   0  0  0  0  0  0  0  0  0  0  0  0  # atno 2581 bound_to 2570
   30.0567   27.9187   57.0509 H   0  0  0  0  0  0  0  0  0  0  0  0  # atno 2582 bound_to 2570
   28.6558   27.1784   57.5394 H   0  0  0  0  0  0  0  0  0  0  0  0  # atno 2583 bound_to 2570
   27.2513   29.0299   56.9286 H   0  0  0  0  0  0  0  0  0  0  0  0  # atno 3119 bound_to 3112
   33.1046   30.5140   48.8908 H   0  0  0  0  0  0  0  0  0  0  0  0  # atno 3169 bound_to 3160
   36.8011   38.5650   42.7204 H   0  0  0  0  0  0  0  0  0  0  0  0  # atno 3578 bound_to 3569
   39.3934   39.4863   43.4154 H   0  0  0  0  0  0  0  0  0  0  0  0  # atno 3658 bound_to 3649
   25.0451   37.3400   59.4435 H   0  0  0  0  0  0  0  0  0  0  0  0  # atno 3855 bound_to 3846
   38.8336   21.6457   61.4029 H   0  0  0  0  0  0  0  0  0  0  0  0  # atno 5145 bound_to 5136
   40.1927   38.2452   42.7310 LP  0  0  0  0  0  0  0  0  0  0  0  0  # atno 5461 bound_to 3649
   40.9966   39.3321   43.6470 LP  0  0  0  0  0  0  0  0  0  0  0  0  # atno 5462 bound_to 3649
   35.9410   38.9269   44.0535 LP  0  0  0  0  0  0  0  0  0  0  0  0  # atno 5463 bound_to 3569
   35.3865   39.3568   42.5789 LP  0  0  0  0  0  0  0  0  0  0  0  0  # atno 5464 bound_to 3569
   25.8420   36.5771   58.2469 LP  0  0  0  0  0  0  0  0  0  0  0  0  # atno 5513 bound_to 3846
   24.2210   36.4283   58.3764 LP  0  0  0  0  0  0  0  0  0  0  0  0  # atno 5514 bound_to 3846
   28.7292   28.6323   56.3763 LP  0  0  0  0  0  0  0  0  0  0  0  0  # atno 5515 bound_to 3112
   27.4121   28.3868   55.4428 LP  0  0  0  0  0  0  0  0  0  0  0  0  # atno 5516 bound_to 3112
   40.2019   21.0732   60.7342 LP  0  0  0  0  0  0  0  0  0  0  0  0  # atno 5523 bound_to 5136
   40.2002   22.5252   61.4813 LP  0  0  0  0  0  0  0  0  0  0  0  0  # atno 5524 bound_to 5136
   41.6485   20.4361   54.2273 LP  0  0  0  0  0  0  0  0  0  0  0  0  # atno 5533 bound_to 1917
   42.7036   20.6029   52.9921 LP  0  0  0  0  0  0  0  0  0  0  0  0  # atno 5534 bound_to 1917
   32.3524   29.6944   47.7035 LP  0  0  0  0  0  0  0  0  0  0  0  0  # atno 5563 bound_to 3160
   32.8403   28.9168   49.0541 LP  0  0  0  0  0  0  0  0  0  0  0  0  # atno 5564 bound_to 3160
   27.7833   26.6023   68.0471 LP  0  0  0  0  0  0  0  0  0  0  0  0  # atno 5571 bound_to 627 
   27.8058   24.9752   67.9104 LP  0  0  0  0  0  0  0  0  0  0  0  0  # atno 5572 bound_to 627 

> <Gold.Score>
     Fitness  S(hb_ext) S(vdw_ext)  S(hb_int)    S(int)      intcor
     37.07       2.00      25.73       0.00      -0.31      -0.76

> <Gold.Goldscore.Fitness>
37.0667

> <Gold.Goldscore.Internal.Vdw>
-0.5018

> <Gold.Goldscore.Internal.Torsion>
-0.5683

> <Gold.Goldscore.External.Vdw>
25.7297

> <Gold.Goldscore.Internal.HBond>
0.0000

> <Gold.Goldscore.External.HBond>
2.0000

> <Gold.Goldscore.Internal.Correction>
-0.7585

> <Gold.Goldscore.Hbonds>
donor molecule, donor type, donor heavy atom, donor atom, acceptor molecule, acceptor atom, score
      L1  H     8    22       P1  2601  1.00

> <Gold.Goldscore.Internal.Vdw.Weighted>
-0.5018

> <Gold.Goldscore.Internal.Torsion.Weighted>
-0.5683

> <Gold.Goldscore.External.Vdw.Weighted>
35.3784

> <Gold.Goldscore.Internal.HBond.Weighted>
0.0000

> <Gold.Goldscore.External.HBond.Weighted>
2.0000

> <Gold.Goldscore.Internal.Correction.Weighted>
-0.7585

> <Gold.Rescore>
     Score     S(PLP)   S(hbond)     S(cho)   S(metal)  DE(clash)   DE(tors)     intcor
     34.74     -32.52       0.98       0.00       0.00       0.00       0.35       ----

> <Gold.PLP.Fitness>
34.7418

> <Gold.PLP.PLP>
-32.5221

> <Gold.PLP.part.hbond>
-1.9070

> <Gold.PLP.part.metal>
0.0000

> <Gold.PLP.part.buried>
0.7125

> <Gold.PLP.part.nonpolar>
-32.0554

> <Gold.PLP.part.repulsive>
0.3405

> <Gold.PLP.ligand.clash>
0.0000

> <Gold.PLP.ligand.torsion>
0.3542

> <Gold.PLP.Chemscore.Hbond>
0.9760

> <Gold.PLP.Chemscore.CHOScore>
0.0000

> <Gold.PLP.Chemscore.Metal>
0.0000

> <Gold.Chemscore.Hbonds>
donor molecule, donor type, donor heavy atom, donor atom, acceptor molecule, acceptor atom, score
      L1  H     8    22       P1  2601  0.70

> <Gold.PLP.Chemscore.Internal.Correction>
   9.000000E+99

