#       Name:                CT1002167954
#       Creating user name   hitesit
#       Creation time:       Sun Apr 16 20:18:47 2023


#       File generated by GOLD software.
#

@<TRIPOS>MOLECULE
CT1002167954|ligand_prepared|mol2|1|dock8
    29    30     1
SMALL
NO_CHARGES


@<TRIPOS>ATOM
      1 C1         110.4935 281.5756 312.6461 C.3            1 RES1               0.0000
      2 C2         109.5986 282.0952 311.5025 C.ar           1 RES1               0.0000
      3 C3         109.8813 280.2545 313.1026 C.2            1 RES1               0.0000
      4 C4         111.8962 281.4428 312.0635 C.2            1 RES1               0.0000
      5 C5         110.5694 282.5280 313.8621 C.3            1 RES1               0.0000
      6 C6         109.5521 283.4529 311.2001 C.ar           1 RES1               0.0000
      7 C7         108.8174 281.2304 310.7406 C.ar           1 RES1               0.0000
      8 N8         110.5260 279.1049 312.7523 N.am           1 RES1               0.0000
      9 O9         108.8278 280.2202 313.7265 O.2            1 RES1               0.0000
     10 N10        112.4323 280.1859 311.9602 N.am           1 RES1               0.0000
     11 O11        112.5355 282.4137 311.6775 O.2            1 RES1               0.0000
     12 C12        111.2031 281.9005 315.0937 C.3            1 RES1               0.0000
     13 C13        108.7558 283.9285 310.1715 C.ar           1 RES1               0.0000
     14 C14        108.0215 281.7082 309.7126 C.ar           1 RES1               0.0000
     15 C15        111.7987 279.0082 312.2498 C.2            1 RES1               0.0000
     16 C16        107.9904 283.0565 309.4268 C.ar           1 RES1               0.0000
     17 O17        112.3279 277.9137 312.0792 O.2            1 RES1               0.0000
     18 H18        111.1492 283.4154 313.5799 H              1 RES1               0.0000
     19 H19        109.5544 282.8576 314.1164 H              1 RES1               0.0000
     20 H20        110.1456 284.1544 311.7768 H              1 RES1               0.0000
     21 H21        108.8252 280.1658 310.9482 H              1 RES1               0.0000
     22 H22        110.0145 278.2369 312.8753 H              1 RES1               0.0000
     23 H23        113.3926 280.1224 311.6378 H              1 RES1               0.0000
     24 H24        111.2315 282.6110 315.9172 H              1 RES1               0.0000
     25 H25        110.6373 281.0293 315.4172 H              1 RES1               0.0000
     26 H26        112.2226 281.5838 314.8840 H              1 RES1               0.0000
     27 H27        108.7338 284.9907 309.9515 H              1 RES1               0.0000
     28 H28        107.4203 281.0184 309.1295 H              1 RES1               0.0000
     29 H29        107.3670 283.4293 308.6209 H              1 RES1               0.0000
@<TRIPOS>BOND
    1    1    2 1     
    2    1    3 1     
    3    1    4 1     
    4    1    5 1     
    5    2    6 ar    
    6    2    7 ar    
    7    3    8 1     
    8    3    9 2     
    9    4   10 1     
   10    4   11 2     
   11    5   12 1     
   12    5   18 1     
   13    5   19 1     
   14    6   13 ar    
   15    6   20 1     
   16    7   14 ar    
   17    7   21 1     
   18    8   15 1     
   19    8   22 1     
   20   10   15 1     
   21   10   23 1     
   22   12   24 1     
   23   12   25 1     
   24   12   26 1     
   25   13   16 ar    
   26   13   27 1     
   27   14   16 ar    
   28   14   28 1     
   29   15   17 2     
   30   16   29 1     
@<TRIPOS>SUBSTRUCTURE
      1 RES1           1
@<TRIPOS>SET
DONOR_HYDROGENS      STATIC     ATOMS    <user>   **** ""
2 22 23
ATOM$RED        STATIC     ATOMS    COLORGROUP SYSTEM
2 22 23
@<TRIPOS>COMMENT
> <Gold.Version>
2022.3.0

> <Gold.Id.Protein>
unknown|5adg_clean|pdb

> <Gold.Protein.RotatedTorsions>
[ 1392 1385 1383 1380 ] final -162.12 input   60.03 | X-H torsion
[ 1421 1409 1410 1411 ] final   -9.54 input  129.35 | X-H torsion
[ 1464 1452 1453 1454 ] final  -92.96 input  108.99 | X-H torsion
[ 1488 1477 1478 1479 ] final  -13.33 input  100.07 | X-H torsion
[ 1529 1510 1511 1512 ] final -118.96 input  113.76 | X-H torsion
[ 1564 1551 1552 1553 ] final  115.83 input  123.58 | X-H torsion
[ 1694 1683 1682 1681 ] final  122.72 input   60.00 | X-H torsion
[ 2447 2428 2429 2430 ] final   30.43 input  119.94 | X-H torsion
[ 2477 2467 2468 2469 ] final  -90.17 input  117.54 | X-H torsion
[ 2324 2316 2317 2318 ] final  -63.49 input  118.58 | X-H torsion
[ 2362 2351 2352 2353 ] final  167.32 input  116.99 | X-H torsion
[ 2407 2383 2384 2385 ] final  -57.57 input  115.65 | X-H torsion
[ 2506 2497 2498 2499 ] final  175.62 input  121.55 | X-H torsion
[ 2572 2558 2559 2560 ] final  162.96 input  118.05 | X-H torsion
[ 2539 2525 2526 2527 ] final   15.66 input  116.25 | X-H torsion
[ 2600 2587 2588 2589 ] final   25.79 input  123.81 | X-H torsion
[ 2706 2698 2699 2700 ] final  108.55 input  119.89 | X-H torsion
[ 2668 2660 2661 2662 ] final  -83.43 input  116.13 | X-H torsion
[ 2640 2631 2632 2633 ] final   60.01 input  117.28 | X-H torsion
[ 2728 2721 2722 2723 ] final   76.00 input   88.34 | X-H torsion
[ 2785 2776 2777 2778 ] final  156.96 input -114.77 | X-H torsion
[ 2608 2595 2594 2593 ] final  117.69 input   60.00 | X-H torsion
[ 1684 1675 1676 1677 ] final  -14.58 input  120.12 | X-H torsion
[ 1635 1616 1617 1618 ] final  -64.88 input  110.97 | X-H torsion
[ 2756 2749 2750 2751 ] final  161.51 input   47.81 | X-H torsion
[ 13465 1382 1381 1380 ] final   87.11 input    0.00 | X-H torsion
[ 13470 1412 1411 1410 ] final  147.38 input    0.00 | X-H torsion
[ 13473 1455 1454 1453 ] final   34.61 input   -0.00 | X-H torsion
[ 13480 1480 1479 1478 ] final  -80.78 input   -0.00 | X-H torsion
[ 13484 1554 1553 1552 ] final  -61.16 input    0.00 | X-H torsion
[ 13496 2319 2318 2317 ] final  -13.37 input   -0.00 | X-H torsion
[ 13499 2431 2430 2429 ] final  -47.32 input    0.00 | X-H torsion
[ 13504 2287 2286 2285 ] final  115.06 input   -0.00 | X-H torsion
[ 13508 2354 2353 2352 ] final -106.43 input    0.00 | X-H torsion
[ 13511 2386 2385 2384 ] final -151.28 input    0.00 | X-H torsion
[ 13513 2470 2469 2468 ] final  130.05 input   -0.00 | X-H torsion
[ 13521 2528 2527 2526 ] final   44.47 input    0.00 | X-H torsion
[ 13523 2561 2560 2559 ] final  -99.35 input   -0.00 | X-H torsion
[ 13527 2663 2662 2661 ] final  -62.73 input    0.00 | X-H torsion
[ 13529 2590 2589 2588 ] final   61.21 input   -0.00 | X-H torsion
[ 13532 2701 2700 2699 ] final  -55.74 input    0.00 | X-H torsion
[ 13535 1513 1512 1511 ] final -152.67 input    0.00 | X-H torsion
[ 13537 2634 2633 2632 ] final  -24.62 input    0.00 | X-H torsion
[ 13540 2779 2778 2777 ] final  -48.59 input    0.00 | X-H torsion

> <Gold.Protein.ActiveResidues>
 THR355  LYS356  ASP357  GLN358  LEU359  PHE360  PRO361  LEU362  ALA363  LYS364 
 ASP368  PHE377  GLY378  HIS382  MET383  GLU384  ARG385  LEU386  GLU387  GLU388 
 VAL389  ASN390  LYS391  GLU392  ILE393  ASP394  THR395  THR396  SER397 

> <Gold.Protein.RotatedAtoms>
  105.0381  275.9505  318.0942 H   0  0  0  0  0  0  0  0  0  0  0  0  # atno 1392 bound_to 1385
  106.8332  275.2939  315.1358 H   0  0  0  0  0  0  0  0  0  0  0  0  # atno 1421 bound_to 1409
  108.7688  277.2047  315.0195 H   0  0  0  0  0  0  0  0  0  0  0  0  # atno 1464 bound_to 1452
  109.2279  276.1832  317.3172 H   0  0  0  0  0  0  0  0  0  0  0  0  # atno 1488 bound_to 1477
  109.8763  273.6547  317.8398 H   0  0  0  0  0  0  0  0  0  0  0  0  # atno 1529 bound_to 1510
  111.9525  275.6780  315.6606 H   0  0  0  0  0  0  0  0  0  0  0  0  # atno 1564 bound_to 1551
  115.8293  274.2559  319.2052 H   0  0  0  0  0  0  0  0  0  0  0  0  # atno 1635 bound_to 1616
  118.3929  272.8322  316.8691 H   0  0  0  0  0  0  0  0  0  0  0  0  # atno 1684 bound_to 1675
  123.5051  278.1713  318.6842 H   0  0  0  0  0  0  0  0  0  0  0  0  # atno 1694 bound_to 1683
  122.7829  279.0054  319.9207 H   0  0  0  0  0  0  0  0  0  0  0  0  # atno 1695 bound_to 1683
  122.2356  277.4959  319.5086 H   0  0  0  0  0  0  0  0  0  0  0  0  # atno 1696 bound_to 1683
  127.1088  276.9439  311.0927 H   0  0  0  0  0  0  0  0  0  0  0  0  # atno 2324 bound_to 2316
  127.1419  278.8270  308.3199 H   0  0  0  0  0  0  0  0  0  0  0  0  # atno 2362 bound_to 2351
  124.4661  276.7957  307.6489 H   0  0  0  0  0  0  0  0  0  0  0  0  # atno 2407 bound_to 2383
  123.1703  276.7579  309.3250 H   0  0  0  0  0  0  0  0  0  0  0  0  # atno 2447 bound_to 2428
  120.9797  278.2428  310.1416 H   0  0  0  0  0  0  0  0  0  0  0  0  # atno 2477 bound_to 2467
  121.3074  277.8639  306.5818 H   0  0  0  0  0  0  0  0  0  0  0  0  # atno 2506 bound_to 2497
  118.8536  276.3426  307.8313 H   0  0  0  0  0  0  0  0  0  0  0  0  # atno 2539 bound_to 2525
  117.7782  276.8476  309.8634 H   0  0  0  0  0  0  0  0  0  0  0  0  # atno 2572 bound_to 2558
  115.8223  277.5380  307.5465 H   0  0  0  0  0  0  0  0  0  0  0  0  # atno 2600 bound_to 2587
  119.9159  281.7852  302.4412 H   0  0  0  0  0  0  0  0  0  0  0  0  # atno 2608 bound_to 2595
  119.8178  282.1368  304.0583 H   0  0  0  0  0  0  0  0  0  0  0  0  # atno 2609 bound_to 2595
  119.7654  280.5599  303.5481 H   0  0  0  0  0  0  0  0  0  0  0  0  # atno 2610 bound_to 2595
  114.9120  276.4666  306.8453 H   0  0  0  0  0  0  0  0  0  0  0  0  # atno 2640 bound_to 2631
  112.7016  274.7417  306.9092 H   0  0  0  0  0  0  0  0  0  0  0  0  # atno 2668 bound_to 2660
  112.0486  277.5382  307.6819 H   0  0  0  0  0  0  0  0  0  0  0  0  # atno 2706 bound_to 2698
  110.7509  277.0452  305.4837 H   0  0  0  0  0  0  0  0  0  0  0  0  # atno 2728 bound_to 2721
  109.4417  275.2550  304.1145 H   0  0  0  0  0  0  0  0  0  0  0  0  # atno 2756 bound_to 2749
  107.1923  274.4473  306.6198 H   0  0  0  0  0  0  0  0  0  0  0  0  # atno 2785 bound_to 2776
  108.5189  273.3956  315.5104 LP  0  0  0  0  0  0  0  0  0  0  0  0  # atno 13465 bound_to 1382
  108.3116  274.7564  316.5618 LP  0  0  0  0  0  0  0  0  0  0  0  0  # atno 13466 bound_to 1382
  106.3189  276.1470  317.1100 LP  0  0  0  0  0  0  0  0  0  0  0  0  # atno 13467 bound_to 1385
  106.0875  274.7256  317.8798 LP  0  0  0  0  0  0  0  0  0  0  0  0  # atno 13468 bound_to 1385
  106.3813  275.0508  313.4633 LP  0  0  0  0  0  0  0  0  0  0  0  0  # atno 13469 bound_to 1409
  110.6638  277.5364  315.4140 LP  0  0  0  0  0  0  0  0  0  0  0  0  # atno 13470 bound_to 1412
  110.7284  276.0010  314.6150 LP  0  0  0  0  0  0  0  0  0  0  0  0  # atno 13471 bound_to 1412
  107.2423  276.8984  315.8226 LP  0  0  0  0  0  0  0  0  0  0  0  0  # atno 13472 bound_to 1452
  110.3904  278.4106  318.9153 LP  0  0  0  0  0  0  0  0  0  0  0  0  # atno 13473 bound_to 1455
  110.9968  276.7886  318.8783 LP  0  0  0  0  0  0  0  0  0  0  0  0  # atno 13474 bound_to 1455
  107.8489  276.3223  318.3821 LP  0  0  0  0  0  0  0  0  0  0  0  0  # atno 13479 bound_to 1477
  112.1858  274.5167  319.1515 LP  0  0  0  0  0  0  0  0  0  0  0  0  # atno 13480 bound_to 1480
  111.5654  272.9004  319.2037 LP  0  0  0  0  0  0  0  0  0  0  0  0  # atno 13481 bound_to 1480
  110.0848  274.9892  316.7292 LP  0  0  0  0  0  0  0  0  0  0  0  0  # atno 13482 bound_to 1510
  112.6481  274.0967  315.8996 LP  0  0  0  0  0  0  0  0  0  0  0  0  # atno 13483 bound_to 1551
  116.3056  274.1260  316.2572 LP  0  0  0  0  0  0  0  0  0  0  0  0  # atno 13484 bound_to 1554
  116.9988  275.6424  316.7260 LP  0  0  0  0  0  0  0  0  0  0  0  0  # atno 13485 bound_to 1554
  124.0552  279.2635  310.3779 LP  0  0  0  0  0  0  0  0  0  0  0  0  # atno 13496 bound_to 2319
  123.9743  279.1579  308.6509 LP  0  0  0  0  0  0  0  0  0  0  0  0  # atno 13497 bound_to 2319
  123.2727  275.4063  310.4296 LP  0  0  0  0  0  0  0  0  0  0  0  0  # atno 13498 bound_to 2428
  119.2081  276.6249  310.2573 LP  0  0  0  0  0  0  0  0  0  0  0  0  # atno 13499 bound_to 2431
  119.0115  278.3446  310.3186 LP  0  0  0  0  0  0  0  0  0  0  0  0  # atno 13500 bound_to 2431
  122.3142  278.2920  309.0127 LP  0  0  0  0  0  0  0  0  0  0  0  0  # atno 13501 bound_to 2467
  125.2782  276.7244  311.8965 LP  0  0  0  0  0  0  0  0  0  0  0  0  # atno 13504 bound_to 2287
  125.4493  275.7440  310.4789 LP  0  0  0  0  0  0  0  0  0  0  0  0  # atno 13505 bound_to 2287
  128.4836  277.9957  310.8430 LP  0  0  0  0  0  0  0  0  0  0  0  0  # atno 13506 bound_to 2316
  125.9529  277.9532  309.2555 LP  0  0  0  0  0  0  0  0  0  0  0  0  # atno 13507 bound_to 2351
  122.5322  277.3698  307.4214 LP  0  0  0  0  0  0  0  0  0  0  0  0  # atno 13508 bound_to 2354
  123.2108  276.9588  305.8817 LP  0  0  0  0  0  0  0  0  0  0  0  0  # atno 13509 bound_to 2354
  125.6996  275.8701  308.4685 LP  0  0  0  0  0  0  0  0  0  0  0  0  # atno 13510 bound_to 2383
  120.6760  275.7126  309.0450 LP  0  0  0  0  0  0  0  0  0  0  0  0  # atno 13511 bound_to 2386
  121.2755  274.2013  308.4476 LP  0  0  0  0  0  0  0  0  0  0  0  0  # atno 13512 bound_to 2386
  118.3200  278.7042  306.1503 LP  0  0  0  0  0  0  0  0  0  0  0  0  # atno 13513 bound_to 2470
  117.9520  278.8480  307.8367 LP  0  0  0  0  0  0  0  0  0  0  0  0  # atno 13514 bound_to 2470
  120.0531  277.6023  307.7727 LP  0  0  0  0  0  0  0  0  0  0  0  0  # atno 13517 bound_to 2497
  116.8304  276.3338  308.4871 LP  0  0  0  0  0  0  0  0  0  0  0  0  # atno 13518 bound_to 2558
  119.4977  274.7637  307.4398 LP  0  0  0  0  0  0  0  0  0  0  0  0  # atno 13519 bound_to 2525
  115.9918  279.2658  307.7649 LP  0  0  0  0  0  0  0  0  0  0  0  0  # atno 13520 bound_to 2587
  115.1322  274.4685  309.2801 LP  0  0  0  0  0  0  0  0  0  0  0  0  # atno 13521 bound_to 2528
  114.7463  275.9246  308.4252 LP  0  0  0  0  0  0  0  0  0  0  0  0  # atno 13522 bound_to 2528
  113.2883  277.4517  308.2930 LP  0  0  0  0  0  0  0  0  0  0  0  0  # atno 13523 bound_to 2561
  113.3729  279.0640  308.9203 LP  0  0  0  0  0  0  0  0  0  0  0  0  # atno 13524 bound_to 2561
  110.6936  276.6536  308.3440 LP  0  0  0  0  0  0  0  0  0  0  0  0  # atno 13525 bound_to 2698
  113.5806  275.7534  308.0281 LP  0  0  0  0  0  0  0  0  0  0  0  0  # atno 13526 bound_to 2660
  108.9946  275.3185  307.7675 LP  0  0  0  0  0  0  0  0  0  0  0  0  # atno 13527 bound_to 2663
  108.7869  276.5571  308.9603 LP  0  0  0  0  0  0  0  0  0  0  0  0  # atno 13528 bound_to 2663
  112.6102  278.1681  304.5425 LP  0  0  0  0  0  0  0  0  0  0  0  0  # atno 13529 bound_to 2590
  112.0682  277.3523  305.9710 LP  0  0  0  0  0  0  0  0  0  0  0  0  # atno 13530 bound_to 2590
  114.6654  277.0267  305.2067 LP  0  0  0  0  0  0  0  0  0  0  0  0  # atno 13531 bound_to 2631
  107.4925  278.0684  307.0566 LP  0  0  0  0  0  0  0  0  0  0  0  0  # atno 13532 bound_to 2701
  107.6526  278.9197  305.5567 LP  0  0  0  0  0  0  0  0  0  0  0  0  # atno 13533 bound_to 2701
  109.4615  278.1377  305.9438 LP  0  0  0  0  0  0  0  0  0  0  0  0  # atno 13534 bound_to 2721
  114.4326  273.5374  316.7398 LP  0  0  0  0  0  0  0  0  0  0  0  0  # atno 13535 bound_to 1513
  113.5330  272.1200  316.3137 LP  0  0  0  0  0  0  0  0  0  0  0  0  # atno 13536 bound_to 1513
  111.3230  274.7009  305.0702 LP  0  0  0  0  0  0  0  0  0  0  0  0  # atno 13537 bound_to 2634
  110.8524  274.1166  306.6313 LP  0  0  0  0  0  0  0  0  0  0  0  0  # atno 13538 bound_to 2634
  108.7682  273.7206  306.8654 LP  0  0  0  0  0  0  0  0  0  0  0  0  # atno 13539 bound_to 2776
  107.7578  272.6226  311.0844 LP  0  0  0  0  0  0  0  0  0  0  0  0  # atno 13540 bound_to 2779
  107.8162  271.0159  310.4399 LP  0  0  0  0  0  0  0  0  0  0  0  0  # atno 13541 bound_to 2779

> <Gold.Score>
     Fitness  S(hb_ext) S(vdw_ext)  S(hb_int)    S(int)      intcor
     21.83       6.00      12.18       0.00      -0.91      -0.76

> <Gold.Goldscore.Fitness>
21.8292

> <Gold.Goldscore.Internal.Vdw>
-1.0697

> <Gold.Goldscore.Internal.Torsion>
-0.6017

> <Gold.Goldscore.External.Vdw>
12.1761

> <Gold.Goldscore.Internal.HBond>
0.0000

> <Gold.Goldscore.External.HBond>
6.0000

> <Gold.Goldscore.Internal.Correction>
-0.7585

> <Gold.Goldscore.Hbonds>
donor molecule, donor type, donor heavy atom, donor atom, acceptor molecule, acceptor atom, score
      L1  H    10    23       P1  2565  1.00

> <Gold.Goldscore.Internal.Vdw.Weighted>
-1.0697

> <Gold.Goldscore.Internal.Torsion.Weighted>
-0.6017

> <Gold.Goldscore.External.Vdw.Weighted>
16.7421

> <Gold.Goldscore.Internal.HBond.Weighted>
0.0000

> <Gold.Goldscore.External.HBond.Weighted>
6.0000

> <Gold.Goldscore.Internal.Correction.Weighted>
-0.7585

> <Gold.Rescore>
     Score     S(PLP)   S(hbond)     S(cho)   S(metal)  DE(clash)   DE(tors)     intcor
     13.22     -11.97       1.00       0.00       0.00       0.99       0.38       ----

> <Gold.PLP.Fitness>
13.2181

> <Gold.PLP.PLP>
-11.9721

> <Gold.PLP.part.hbond>
-1.8081

> <Gold.PLP.part.metal>
0.0000

> <Gold.PLP.part.buried>
-2.7129

> <Gold.PLP.part.nonpolar>
-14.0145

> <Gold.PLP.part.repulsive>
5.0507

> <Gold.PLP.ligand.clash>
0.9931

> <Gold.PLP.ligand.torsion>
0.3804

> <Gold.PLP.Chemscore.Hbond>
1.0000

> <Gold.PLP.Chemscore.CHOScore>
0.0000

> <Gold.PLP.Chemscore.Metal>
0.0000

> <Gold.Chemscore.Hbonds>
donor molecule, donor type, donor heavy atom, donor atom, acceptor molecule, acceptor atom, score
      L1  H    10    23       P1  2565  0.54

> <Gold.PLP.Chemscore.Internal.Correction>
   9.000000E+99

