#       Name:                CT1002167954
#       Creating user name   hitesit
#       Creation time:       Sun Apr 16 20:18:45 2023


#       File generated by GOLD software.
#

@<TRIPOS>MOLECULE
CT1002167954|ligand_prepared|mol2|1|dock5
    29    30     1
SMALL
NO_CHARGES


@<TRIPOS>ATOM
      1 C1         112.1322 281.8023 312.9811 C.3            1 RES1               0.0000
      2 C2         113.5023 282.1157 313.6161 C.ar           1 RES1               0.0000
      3 C3         112.4240 281.1229 311.6463 C.2            1 RES1               0.0000
      4 C4         111.3911 280.9199 313.9794 C.2            1 RES1               0.0000
      5 C5         111.2654 283.0551 312.7154 C.3            1 RES1               0.0000
      6 C6         113.7620 283.3714 314.1571 C.ar           1 RES1               0.0000
      7 C7         114.5137 281.1604 313.6706 C.ar           1 RES1               0.0000
      8 N8         112.2064 279.7793 311.5604 N.am           1 RES1               0.0000
      9 O9         112.8756 281.7494 310.6956 O.2            1 RES1               0.0000
     10 N10        111.1154 279.6283 313.6138 N.am           1 RES1               0.0000
     11 O11        111.0581 281.3263 315.0859 O.2            1 RES1               0.0000
     12 C12        110.0068 282.7706 311.9109 C.3            1 RES1               0.0000
     13 C13        114.9873 283.6606 314.7344 C.ar           1 RES1               0.0000
     14 C14        115.7385 281.4518 314.2481 C.ar           1 RES1               0.0000
     15 C15        111.5165 279.0089 312.4616 C.2            1 RES1               0.0000
     16 C16        115.9761 282.7011 314.7807 C.ar           1 RES1               0.0000
     17 O17        111.2766 277.8278 312.2281 O.2            1 RES1               0.0000
     18 H18        110.9773 283.4957 313.6778 H              1 RES1               0.0000
     19 H19        111.8697 283.7946 312.1756 H              1 RES1               0.0000
     20 H20        112.9968 284.1399 314.1277 H              1 RES1               0.0000
     21 H21        114.3496 280.1712 313.2569 H              1 RES1               0.0000
     22 H22        112.5925 279.3033 310.7512 H              1 RES1               0.0000
     23 H23        110.5594 279.0777 314.2604 H              1 RES1               0.0000
     24 H24        109.4355 283.6829 311.7530 H              1 RES1               0.0000
     25 H25        110.2571 282.3547 310.9372 H              1 RES1               0.0000
     26 H26        109.3700 282.0576 312.4305 H              1 RES1               0.0000
     27 H27        115.1698 284.6458 315.1509 H              1 RES1               0.0000
     28 H28        116.5140 280.6938 314.2818 H              1 RES1               0.0000
     29 H29        116.9358 282.9278 315.2333 H              1 RES1               0.0000
@<TRIPOS>BOND
    1    1    2 1     
    2    1    3 1     
    3    1    4 1     
    4    1    5 1     
    5    2    6 ar    
    6    2    7 ar    
    7    3    8 1     
    8    3    9 2     
    9    4   10 1     
   10    4   11 2     
   11    5   12 1     
   12    5   18 1     
   13    5   19 1     
   14    6   13 ar    
   15    6   20 1     
   16    7   14 ar    
   17    7   21 1     
   18    8   15 1     
   19    8   22 1     
   20   10   15 1     
   21   10   23 1     
   22   12   24 1     
   23   12   25 1     
   24   12   26 1     
   25   13   16 ar    
   26   13   27 1     
   27   14   16 ar    
   28   14   28 1     
   29   15   17 2     
   30   16   29 1     
@<TRIPOS>SUBSTRUCTURE
      1 RES1           1
@<TRIPOS>SET
DONOR_HYDROGENS      STATIC     ATOMS    <user>   **** ""
2 22 23
ATOM$RED        STATIC     ATOMS    COLORGROUP SYSTEM
2 22 23
@<TRIPOS>COMMENT
> <Gold.Version>
2022.3.0

> <Gold.Id.Protein>
unknown|5adg_clean|pdb

> <Gold.Protein.RotatedTorsions>
[ 1392 1385 1383 1380 ] final   31.64 input   60.03 | X-H torsion
[ 1421 1409 1410 1411 ] final  147.15 input  129.35 | X-H torsion
[ 1464 1452 1453 1454 ] final  -89.41 input  108.99 | X-H torsion
[ 1488 1477 1478 1479 ] final -146.56 input  100.07 | X-H torsion
[ 1529 1510 1511 1512 ] final   24.51 input  113.76 | X-H torsion
[ 1564 1551 1552 1553 ] final   45.48 input  123.58 | X-H torsion
[ 1694 1683 1682 1681 ] final -153.14 input   60.00 | X-H torsion
[ 2447 2428 2429 2430 ] final -167.82 input  119.94 | X-H torsion
[ 2477 2467 2468 2469 ] final -126.76 input  117.54 | X-H torsion
[ 2324 2316 2317 2318 ] final  -50.39 input  118.58 | X-H torsion
[ 2362 2351 2352 2353 ] final   13.19 input  116.99 | X-H torsion
[ 2407 2383 2384 2385 ] final   37.04 input  115.65 | X-H torsion
[ 2506 2497 2498 2499 ] final  -58.48 input  121.55 | X-H torsion
[ 2572 2558 2559 2560 ] final  102.50 input  118.05 | X-H torsion
[ 2539 2525 2526 2527 ] final   43.65 input  116.25 | X-H torsion
[ 2600 2587 2588 2589 ] final  -39.44 input  123.81 | X-H torsion
[ 2706 2698 2699 2700 ] final -162.67 input  119.89 | X-H torsion
[ 2668 2660 2661 2662 ] final -122.48 input  116.13 | X-H torsion
[ 2640 2631 2632 2633 ] final  -27.21 input  117.28 | X-H torsion
[ 2728 2721 2722 2723 ] final    5.62 input   88.34 | X-H torsion
[ 2785 2776 2777 2778 ] final -104.76 input -114.77 | X-H torsion
[ 2608 2595 2594 2593 ] final   66.31 input   60.00 | X-H torsion
[ 1684 1675 1676 1677 ] final  173.05 input  120.12 | X-H torsion
[ 1635 1616 1617 1618 ] final -170.39 input  110.97 | X-H torsion
[ 2756 2749 2750 2751 ] final  123.40 input   47.81 | X-H torsion
[ 13465 1382 1381 1380 ] final   11.03 input    0.00 | X-H torsion
[ 13470 1412 1411 1410 ] final  -22.86 input    0.00 | X-H torsion
[ 13473 1455 1454 1453 ] final  113.63 input   -0.00 | X-H torsion
[ 13480 1480 1479 1478 ] final  -97.49 input   -0.00 | X-H torsion
[ 13484 1554 1553 1552 ] final -165.12 input    0.00 | X-H torsion
[ 13496 2319 2318 2317 ] final    4.86 input   -0.00 | X-H torsion
[ 13499 2431 2430 2429 ] final  -82.27 input    0.00 | X-H torsion
[ 13504 2287 2286 2285 ] final  124.45 input   -0.00 | X-H torsion
[ 13508 2354 2353 2352 ] final  -43.65 input    0.00 | X-H torsion
[ 13511 2386 2385 2384 ] final -123.21 input    0.00 | X-H torsion
[ 13513 2470 2469 2468 ] final  -54.30 input   -0.00 | X-H torsion
[ 13521 2528 2527 2526 ] final -155.69 input    0.00 | X-H torsion
[ 13523 2561 2560 2559 ] final   79.83 input   -0.00 | X-H torsion
[ 13527 2663 2662 2661 ] final   87.51 input    0.00 | X-H torsion
[ 13529 2590 2589 2588 ] final   21.47 input   -0.00 | X-H torsion
[ 13532 2701 2700 2699 ] final  -13.82 input    0.00 | X-H torsion
[ 13535 1513 1512 1511 ] final  -98.18 input    0.00 | X-H torsion
[ 13537 2634 2633 2632 ] final -155.88 input    0.00 | X-H torsion
[ 13540 2779 2778 2777 ] final   10.03 input    0.00 | X-H torsion

> <Gold.Protein.ActiveResidues>
 THR355  LYS356  ASP357  GLN358  LEU359  PHE360  PRO361  LEU362  ALA363  LYS364 
 ASP368  PHE377  GLY378  HIS382  MET383  GLU384  ARG385  LEU386  GLU387  GLU388 
 VAL389  ASN390  LYS391  GLU392  ILE393  ASP394  THR395  THR396  SER397 

> <Gold.Protein.RotatedAtoms>
  106.5955  275.4693  317.2012 H   0  0  0  0  0  0  0  0  0  0  0  0  # atno 1392 bound_to 1385
  106.2365  275.3722  313.5035 H   0  0  0  0  0  0  0  0  0  0  0  0  # atno 1421 bound_to 1409
  108.7877  277.1575  315.0412 H   0  0  0  0  0  0  0  0  0  0  0  0  # atno 1464 bound_to 1452
  108.3546  276.7650  318.5552 H   0  0  0  0  0  0  0  0  0  0  0  0  # atno 1488 bound_to 1477
  110.4785  275.0455  317.1072 H   0  0  0  0  0  0  0  0  0  0  0  0  # atno 1529 bound_to 1510
  112.2474  275.3004  316.5497 H   0  0  0  0  0  0  0  0  0  0  0  0  # atno 1564 bound_to 1551
  114.5855  273.9930  319.8055 H   0  0  0  0  0  0  0  0  0  0  0  0  # atno 1635 bound_to 1616
  117.7946  274.1802  315.8908 H   0  0  0  0  0  0  0  0  0  0  0  0  # atno 1684 bound_to 1675
  123.2235  279.0854  319.5372 H   0  0  0  0  0  0  0  0  0  0  0  0  # atno 1694 bound_to 1683
  122.1066  277.9163  319.9005 H   0  0  0  0  0  0  0  0  0  0  0  0  # atno 1695 bound_to 1683
  123.1947  277.6705  318.6743 H   0  0  0  0  0  0  0  0  0  0  0  0  # atno 1696 bound_to 1683
  127.1217  276.9179  310.8924 H   0  0  0  0  0  0  0  0  0  0  0  0  # atno 2324 bound_to 2316
  126.1934  277.6596  309.1587 H   0  0  0  0  0  0  0  0  0  0  0  0  # atno 2362 bound_to 2351
  124.9157  276.6680  308.8573 H   0  0  0  0  0  0  0  0  0  0  0  0  # atno 2407 bound_to 2383
  123.4536  275.5633  310.5716 H   0  0  0  0  0  0  0  0  0  0  0  0  # atno 2447 bound_to 2428
  121.2876  278.6919  310.2549 H   0  0  0  0  0  0  0  0  0  0  0  0  # atno 2477 bound_to 2467
  119.9049  278.1749  307.2402 H   0  0  0  0  0  0  0  0  0  0  0  0  # atno 2506 bound_to 2497
  119.1293  276.2609  308.1501 H   0  0  0  0  0  0  0  0  0  0  0  0  # atno 2539 bound_to 2525
  117.9124  277.2170  309.0627 H   0  0  0  0  0  0  0  0  0  0  0  0  # atno 2572 bound_to 2558
  115.1833  278.0623  308.0301 H   0  0  0  0  0  0  0  0  0  0  0  0  # atno 2600 bound_to 2587
  119.8613  280.9644  302.5523 H   0  0  0  0  0  0  0  0  0  0  0  0  # atno 2608 bound_to 2595
  119.8911  282.4475  303.2925 H   0  0  0  0  0  0  0  0  0  0  0  0  # atno 2609 bound_to 2595
  119.7466  281.0692  304.2031 H   0  0  0  0  0  0  0  0  0  0  0  0  # atno 2610 bound_to 2595
  114.0299  277.1153  306.2988 H   0  0  0  0  0  0  0  0  0  0  0  0  # atno 2640 bound_to 2631
  113.0063  274.4034  307.2829 H   0  0  0  0  0  0  0  0  0  0  0  0  # atno 2668 bound_to 2660
  111.4957  277.5017  308.7898 H   0  0  0  0  0  0  0  0  0  0  0  0  # atno 2706 bound_to 2698
  109.8951  276.7739  305.9837 H   0  0  0  0  0  0  0  0  0  0  0  0  # atno 2728 bound_to 2721
  109.7710  275.1134  304.5705 H   0  0  0  0  0  0  0  0  0  0  0  0  # atno 2756 bound_to 2749
  108.4211  274.7960  307.0625 H   0  0  0  0  0  0  0  0  0  0  0  0  # atno 2785 bound_to 2776
  107.9678  273.4436  316.4232 LP  0  0  0  0  0  0  0  0  0  0  0  0  # atno 13465 bound_to 1382
  108.8626  274.7085  315.6490 LP  0  0  0  0  0  0  0  0  0  0  0  0  # atno 13466 bound_to 1382
  105.4671  274.9173  318.2355 LP  0  0  0  0  0  0  0  0  0  0  0  0  # atno 13467 bound_to 1385
  105.3706  276.4400  317.6537 LP  0  0  0  0  0  0  0  0  0  0  0  0  # atno 13468 bound_to 1385
  106.9599  274.9749  315.0461 LP  0  0  0  0  0  0  0  0  0  0  0  0  # atno 13469 bound_to 1409
  110.7348  276.0800  314.4908 LP  0  0  0  0  0  0  0  0  0  0  0  0  # atno 13470 bound_to 1412
  110.6574  277.4573  315.5382 LP  0  0  0  0  0  0  0  0  0  0  0  0  # atno 13471 bound_to 1412
  107.2241  276.9438  315.8018 LP  0  0  0  0  0  0  0  0  0  0  0  0  # atno 13472 bound_to 1452
  110.2290  277.5855  319.6275 LP  0  0  0  0  0  0  0  0  0  0  0  0  # atno 13473 bound_to 1455
  111.1582  277.6138  318.1661 LP  0  0  0  0  0  0  0  0  0  0  0  0  # atno 13474 bound_to 1455
  108.7021  275.7538  317.1726 LP  0  0  0  0  0  0  0  0  0  0  0  0  # atno 13479 bound_to 1477
  112.2860  274.4321  318.9367 LP  0  0  0  0  0  0  0  0  0  0  0  0  # atno 13480 bound_to 1480
  111.4652  272.9850  319.4185 LP  0  0  0  0  0  0  0  0  0  0  0  0  # atno 13481 bound_to 1480
  109.4989  273.6361  317.4419 LP  0  0  0  0  0  0  0  0  0  0  0  0  # atno 13482 bound_to 1510
  112.3563  274.4703  315.0199 LP  0  0  0  0  0  0  0  0  0  0  0  0  # atno 13483 bound_to 1551
  116.7378  274.8179  317.3509 LP  0  0  0  0  0  0  0  0  0  0  0  0  # atno 13484 bound_to 1554
  116.5666  274.9504  315.6324 LP  0  0  0  0  0  0  0  0  0  0  0  0  # atno 13485 bound_to 1554
  124.1174  279.5234  310.3155 LP  0  0  0  0  0  0  0  0  0  0  0  0  # atno 13496 bound_to 2319
  123.9122  278.8980  308.7133 LP  0  0  0  0  0  0  0  0  0  0  0  0  # atno 13497 bound_to 2319
  122.9969  276.5692  309.2161 LP  0  0  0  0  0  0  0  0  0  0  0  0  # atno 13498 bound_to 2428
  119.1401  276.7918  309.7693 LP  0  0  0  0  0  0  0  0  0  0  0  0  # atno 13499 bound_to 2431
  119.0795  278.1777  310.8065 LP  0  0  0  0  0  0  0  0  0  0  0  0  # atno 13500 bound_to 2431
  122.0144  277.8548  308.9024 LP  0  0  0  0  0  0  0  0  0  0  0  0  # atno 13501 bound_to 2467
  125.2495  276.8298  311.8060 LP  0  0  0  0  0  0  0  0  0  0  0  0  # atno 13504 bound_to 2287
  125.4781  275.6387  310.5694 LP  0  0  0  0  0  0  0  0  0  0  0  0  # atno 13505 bound_to 2287
  128.4711  278.0210  311.0377 LP  0  0  0  0  0  0  0  0  0  0  0  0  # atno 13506 bound_to 2316
  126.8801  279.0944  308.4356 LP  0  0  0  0  0  0  0  0  0  0  0  0  # atno 13507 bound_to 2351
  122.8598  278.0027  306.8680 LP  0  0  0  0  0  0  0  0  0  0  0  0  # atno 13508 bound_to 2354
  122.8832  276.3259  306.4350 LP  0  0  0  0  0  0  0  0  0  0  0  0  # atno 13509 bound_to 2354
  125.2584  275.9954  307.2825 LP  0  0  0  0  0  0  0  0  0  0  0  0  # atno 13510 bound_to 2383
  120.7603  275.7891  308.6407 LP  0  0  0  0  0  0  0  0  0  0  0  0  # atno 13511 bound_to 2386
  121.1912  274.1248  308.8519 LP  0  0  0  0  0  0  0  0  0  0  0  0  # atno 13512 bound_to 2386
  117.9387  278.7838  307.8367 LP  0  0  0  0  0  0  0  0  0  0  0  0  # atno 13513 bound_to 2470
  118.3334  278.7685  306.1503 LP  0  0  0  0  0  0  0  0  0  0  0  0  # atno 13514 bound_to 2470
  121.4159  277.3000  307.1330 LP  0  0  0  0  0  0  0  0  0  0  0  0  # atno 13517 bound_to 2497
  116.6998  275.9742  309.2668 LP  0  0  0  0  0  0  0  0  0  0  0  0  # atno 13518 bound_to 2558
  119.2301  274.8430  307.1302 LP  0  0  0  0  0  0  0  0  0  0  0  0  # atno 13519 bound_to 2525
  116.6114  278.7574  307.2959 LP  0  0  0  0  0  0  0  0  0  0  0  0  # atno 13520 bound_to 2587
  114.7004  276.0168  308.7104 LP  0  0  0  0  0  0  0  0  0  0  0  0  # atno 13521 bound_to 2528
  115.1782  274.3764  308.9949 LP  0  0  0  0  0  0  0  0  0  0  0  0  # atno 13522 bound_to 2528
  113.3742  279.0593  308.9318 LP  0  0  0  0  0  0  0  0  0  0  0  0  # atno 13523 bound_to 2561
  113.2869  277.4563  308.2816 LP  0  0  0  0  0  0  0  0  0  0  0  0  # atno 13524 bound_to 2561
  111.2325  276.6892  307.2642 LP  0  0  0  0  0  0  0  0  0  0  0  0  # atno 13525 bound_to 2698
  113.2816  276.0854  307.6613 LP  0  0  0  0  0  0  0  0  0  0  0  0  # atno 13526 bound_to 2660
  108.8728  276.1877  309.1929 LP  0  0  0  0  0  0  0  0  0  0  0  0  # atno 13527 bound_to 2663
  108.9087  275.6879  307.5349 LP  0  0  0  0  0  0  0  0  0  0  0  0  # atno 13528 bound_to 2663
  112.5363  278.5563  304.9787 LP  0  0  0  0  0  0  0  0  0  0  0  0  # atno 13529 bound_to 2590
  112.1422  276.9640  305.5348 LP  0  0  0  0  0  0  0  0  0  0  0  0  # atno 13530 bound_to 2590
  115.5225  276.3964  305.7376 LP  0  0  0  0  0  0  0  0  0  0  0  0  # atno 13531 bound_to 2631
  107.6185  278.6671  307.1540 LP  0  0  0  0  0  0  0  0  0  0  0  0  # atno 13532 bound_to 2701
  107.5266  278.3209  305.4594 LP  0  0  0  0  0  0  0  0  0  0  0  0  # atno 13533 bound_to 2701
  110.2867  278.3993  305.4617 LP  0  0  0  0  0  0  0  0  0  0  0  0  # atno 13534 bound_to 2721
  114.0070  273.1919  317.3126 LP  0  0  0  0  0  0  0  0  0  0  0  0  # atno 13535 bound_to 1513
  113.9586  272.4655  315.7409 LP  0  0  0  0  0  0  0  0  0  0  0  0  # atno 13536 bound_to 1513
  110.6683  274.7951  306.5026 LP  0  0  0  0  0  0  0  0  0  0  0  0  # atno 13537 bound_to 2634
  111.5070  274.0224  305.1989 LP  0  0  0  0  0  0  0  0  0  0  0  0  # atno 13538 bound_to 2634
  107.5875  273.3856  306.4400 LP  0  0  0  0  0  0  0  0  0  0  0  0  # atno 13539 bound_to 2776
  107.0587  272.2874  310.7411 LP  0  0  0  0  0  0  0  0  0  0  0  0  # atno 13540 bound_to 2779
  108.5153  271.3511  310.7833 LP  0  0  0  0  0  0  0  0  0  0  0  0  # atno 13541 bound_to 2779

> <Gold.Score>
     Fitness  S(hb_ext) S(vdw_ext)  S(hb_int)    S(int)      intcor
     20.30       0.82      14.66       0.00      -0.68      -0.76

> <Gold.Goldscore.Fitness>
20.3017

> <Gold.Goldscore.Internal.Vdw>
-0.9535

> <Gold.Goldscore.Internal.Torsion>
-0.4820

> <Gold.Goldscore.External.Vdw>
14.6592

> <Gold.Goldscore.Internal.HBond>
0.0000

> <Gold.Goldscore.External.HBond>
0.8223

> <Gold.Goldscore.Internal.Correction>
-0.7585

> <Gold.Goldscore.Hbonds>
donor molecule, donor type, donor heavy atom, donor atom, acceptor molecule, acceptor atom, score
      L1  H     8    22       P1  2561  0.39
      L1  H    10    23       P1  1412  0.02

> <Gold.Goldscore.Internal.Vdw.Weighted>
-0.9535

> <Gold.Goldscore.Internal.Torsion.Weighted>
-0.4820

> <Gold.Goldscore.External.Vdw.Weighted>
20.1564

> <Gold.Goldscore.Internal.HBond.Weighted>
0.0000

> <Gold.Goldscore.External.HBond.Weighted>
0.8223

> <Gold.Goldscore.Internal.Correction.Weighted>
-0.7585

> <Gold.Rescore>
     Score     S(PLP)   S(hbond)     S(cho)   S(metal)  DE(clash)   DE(tors)     intcor
     22.21     -17.28       1.67       0.00       0.00       0.00       0.04       ----

> <Gold.PLP.Fitness>
22.2120

> <Gold.PLP.PLP>
-17.2753

> <Gold.PLP.part.hbond>
-2.0000

> <Gold.PLP.part.metal>
0.0000

> <Gold.PLP.part.buried>
-4.8214

> <Gold.PLP.part.nonpolar>
-11.6089

> <Gold.PLP.part.repulsive>
0.5906

> <Gold.PLP.ligand.clash>
0.0000

> <Gold.PLP.ligand.torsion>
0.0396

> <Gold.PLP.Chemscore.Hbond>
1.6720

> <Gold.PLP.Chemscore.CHOScore>
0.0000

> <Gold.PLP.Chemscore.Metal>
0.0000

> <Gold.Chemscore.Hbonds>
donor molecule, donor type, donor heavy atom, donor atom, acceptor molecule, acceptor atom, score
      L1  H    10    23       P1  1412  0.09
      P1  H  2564  2576       L1     9  0.08

> <Gold.PLP.Chemscore.Internal.Correction>
   9.000000E+99

