#       Name:                CT1002167954
#       Creating user name   hitesit
#       Creation time:       Sun Apr 16 20:18:43 2023


#       File generated by GOLD software.
#

@<TRIPOS>MOLECULE
CT1002167954|ligand_prepared|mol2|1|dock2
    29    30     1
SMALL
NO_CHARGES


@<TRIPOS>ATOM
      1 C1         111.9293 281.0728 314.3339 C.3            1 RES1               0.0000
      2 C2         110.5695 281.7986 314.2793 C.ar           1 RES1               0.0000
      3 C3         111.6516 279.6849 314.9039 C.2            1 RES1               0.0000
      4 C4         112.4654 281.0634 312.9066 C.2            1 RES1               0.0000
      5 C5         112.9754 281.7726 315.2326 C.3            1 RES1               0.0000
      6 C6         110.4834 283.1628 314.5409 C.ar           1 RES1               0.0000
      7 C7         109.3951 281.1192 313.9667 C.ar           1 RES1               0.0000
      8 N8         111.6913 278.6285 314.0423 N.am           1 RES1               0.0000
      9 O9         111.3631 279.5246 316.0834 O.2            1 RES1               0.0000
     10 N10        112.5912 279.8533 312.2760 N.am           1 RES1               0.0000
     11 O11        112.7644 282.0943 312.3166 O.2            1 RES1               0.0000
     12 C12        114.2177 280.9355 315.4934 C.3            1 RES1               0.0000
     13 C13        109.2677 283.8244 314.4890 C.ar           1 RES1               0.0000
     14 C14        108.1803 281.7828 313.9156 C.ar           1 RES1               0.0000
     15 C15        112.1995 278.6382 312.7682 C.2            1 RES1               0.0000
     16 C16        108.1156 283.1351 314.1759 C.ar           1 RES1               0.0000
     17 O17        112.2946 277.6004 312.1193 O.2            1 RES1               0.0000
     18 H18        113.2772 282.7135 314.7562 H              1 RES1               0.0000
     19 H19        112.5072 282.0185 316.1937 H              1 RES1               0.0000
     20 H20        111.3791 283.7214 314.7914 H              1 RES1               0.0000
     21 H21        109.4219 280.0549 313.7593 H              1 RES1               0.0000
     22 H22        111.3076 277.7501 314.3762 H              1 RES1               0.0000
     23 H23        113.0163 279.8589 311.3542 H              1 RES1               0.0000
     24 H24        114.9186 281.4729 316.1287 H              1 RES1               0.0000
     25 H25        113.9572 280.0028 315.9894 H              1 RES1               0.0000
     26 H26        114.7227 280.6936 314.5604 H              1 RES1               0.0000
     27 H27        109.2219 284.8885 314.6961 H              1 RES1               0.0000
     28 H28        107.2760 281.2362 313.6694 H              1 RES1               0.0000
     29 H29        107.1634 283.6537 314.1350 H              1 RES1               0.0000
@<TRIPOS>BOND
    1    1    2 1     
    2    1    3 1     
    3    1    4 1     
    4    1    5 1     
    5    2    6 ar    
    6    2    7 ar    
    7    3    8 1     
    8    3    9 2     
    9    4   10 1     
   10    4   11 2     
   11    5   12 1     
   12    5   18 1     
   13    5   19 1     
   14    6   13 ar    
   15    6   20 1     
   16    7   14 ar    
   17    7   21 1     
   18    8   15 1     
   19    8   22 1     
   20   10   15 1     
   21   10   23 1     
   22   12   24 1     
   23   12   25 1     
   24   12   26 1     
   25   13   16 ar    
   26   13   27 1     
   27   14   16 ar    
   28   14   28 1     
   29   15   17 2     
   30   16   29 1     
@<TRIPOS>SUBSTRUCTURE
      1 RES1           1
@<TRIPOS>SET
DONOR_HYDROGENS      STATIC     ATOMS    <user>   **** ""
2 22 23
ATOM$RED        STATIC     ATOMS    COLORGROUP SYSTEM
2 22 23
@<TRIPOS>COMMENT
> <Gold.Version>
2022.3.0

> <Gold.Id.Protein>
unknown|5adg_clean|pdb

> <Gold.Protein.RotatedTorsions>
[ 1392 1385 1383 1380 ] final    8.37 input   60.03 | X-H torsion
[ 1421 1409 1410 1411 ] final -130.92 input  129.35 | X-H torsion
[ 1464 1452 1453 1454 ] final -128.08 input  108.99 | X-H torsion
[ 1488 1477 1478 1479 ] final -104.96 input  100.07 | X-H torsion
[ 1529 1510 1511 1512 ] final -164.55 input  113.76 | X-H torsion
[ 1564 1551 1552 1553 ] final   64.73 input  123.58 | X-H torsion
[ 1694 1683 1682 1681 ] final  136.35 input   60.00 | X-H torsion
[ 2447 2428 2429 2430 ] final  -55.40 input  119.94 | X-H torsion
[ 2477 2467 2468 2469 ] final  160.61 input  117.54 | X-H torsion
[ 2324 2316 2317 2318 ] final    2.54 input  118.58 | X-H torsion
[ 2362 2351 2352 2353 ] final  161.91 input  116.99 | X-H torsion
[ 2407 2383 2384 2385 ] final  -97.73 input  115.65 | X-H torsion
[ 2506 2497 2498 2499 ] final -168.11 input  121.55 | X-H torsion
[ 2572 2558 2559 2560 ] final   63.47 input  118.05 | X-H torsion
[ 2539 2525 2526 2527 ] final  153.16 input  116.25 | X-H torsion
[ 2600 2587 2588 2589 ] final  -91.50 input  123.81 | X-H torsion
[ 2706 2698 2699 2700 ] final  -29.46 input  119.89 | X-H torsion
[ 2668 2660 2661 2662 ] final  -29.87 input  116.13 | X-H torsion
[ 2640 2631 2632 2633 ] final  -72.75 input  117.28 | X-H torsion
[ 2728 2721 2722 2723 ] final -107.53 input   88.34 | X-H torsion
[ 2785 2776 2777 2778 ] final  127.79 input -114.77 | X-H torsion
[ 2608 2595 2594 2593 ] final   69.46 input   60.00 | X-H torsion
[ 1684 1675 1676 1677 ] final  115.37 input  120.12 | X-H torsion
[ 1635 1616 1617 1618 ] final  168.22 input  110.97 | X-H torsion
[ 2756 2749 2750 2751 ] final   -6.81 input   47.81 | X-H torsion
[ 13465 1382 1381 1380 ] final -165.73 input    0.00 | X-H torsion
[ 13470 1412 1411 1410 ] final  -66.63 input    0.00 | X-H torsion
[ 13473 1455 1454 1453 ] final  -26.71 input   -0.00 | X-H torsion
[ 13480 1480 1479 1478 ] final   -7.54 input   -0.00 | X-H torsion
[ 13484 1554 1553 1552 ] final -178.87 input    0.00 | X-H torsion
[ 13496 2319 2318 2317 ] final  -85.97 input   -0.00 | X-H torsion
[ 13499 2431 2430 2429 ] final -174.57 input    0.00 | X-H torsion
[ 13504 2287 2286 2285 ] final  -87.09 input   -0.00 | X-H torsion
[ 13508 2354 2353 2352 ] final -119.81 input    0.00 | X-H torsion
[ 13511 2386 2385 2384 ] final   -8.56 input    0.00 | X-H torsion
[ 13513 2470 2469 2468 ] final  152.22 input   -0.00 | X-H torsion
[ 13521 2528 2527 2526 ] final   40.26 input    0.00 | X-H torsion
[ 13523 2561 2560 2559 ] final   55.80 input   -0.00 | X-H torsion
[ 13527 2663 2662 2661 ] final -122.95 input    0.00 | X-H torsion
[ 13529 2590 2589 2588 ] final  -52.35 input   -0.00 | X-H torsion
[ 13532 2701 2700 2699 ] final   30.75 input    0.00 | X-H torsion
[ 13535 1513 1512 1511 ] final -123.97 input    0.00 | X-H torsion
[ 13537 2634 2633 2632 ] final   81.68 input    0.00 | X-H torsion
[ 13540 2779 2778 2777 ] final -164.10 input    0.00 | X-H torsion

> <Gold.Protein.ActiveResidues>
 THR355  LYS356  ASP357  GLN358  LEU359  PHE360  PRO361  LEU362  ALA363  LYS364 
 ASP368  PHE377  GLY378  HIS382  MET383  GLU384  ARG385  LEU386  GLU387  GLU388 
 VAL389  ASN390  LYS391  GLU392  ILE393  ASP394  THR395  THR396  SER397 

> <Gold.Protein.RotatedAtoms>
  106.5537  275.1357  317.3731 H   0  0  0  0  0  0  0  0  0  0  0  0  # atno 1392 bound_to 1385
  106.8645  274.4500  313.8373 H   0  0  0  0  0  0  0  0  0  0  0  0  # atno 1421 bound_to 1409
  108.4385  277.6137  314.9022 H   0  0  0  0  0  0  0  0  0  0  0  0  # atno 1464 bound_to 1452
  108.9236  276.8930  318.3229 H   0  0  0  0  0  0  0  0  0  0  0  0  # atno 1488 bound_to 1477
  109.4234  273.6445  317.3235 H   0  0  0  0  0  0  0  0  0  0  0  0  # atno 1529 bound_to 1510
  112.1357  275.5067  316.3740 H   0  0  0  0  0  0  0  0  0  0  0  0  # atno 1564 bound_to 1551
  114.3421  273.9039  319.6051 H   0  0  0  0  0  0  0  0  0  0  0  0  # atno 1635 bound_to 1616
  117.5955  274.2198  316.7220 H   0  0  0  0  0  0  0  0  0  0  0  0  # atno 1684 bound_to 1675
  123.5608  278.3779  318.7596 H   0  0  0  0  0  0  0  0  0  0  0  0  # atno 1694 bound_to 1683
  122.6119  278.8915  320.0173 H   0  0  0  0  0  0  0  0  0  0  0  0  # atno 1695 bound_to 1683
  122.3510  277.4029  319.3364 H   0  0  0  0  0  0  0  0  0  0  0  0  # atno 1696 bound_to 1683
  127.4995  277.1023  310.2231 H   0  0  0  0  0  0  0  0  0  0  0  0  # atno 2324 bound_to 2316
  127.1816  278.7544  308.3098 H   0  0  0  0  0  0  0  0  0  0  0  0  # atno 2362 bound_to 2351
  124.7579  276.4425  307.2535 H   0  0  0  0  0  0  0  0  0  0  0  0  # atno 2407 bound_to 2383
  122.6102  275.6901  309.3709 H   0  0  0  0  0  0  0  0  0  0  0  0  # atno 2447 bound_to 2428
  122.1525  278.9824  309.7360 H   0  0  0  0  0  0  0  0  0  0  0  0  # atno 2477 bound_to 2467
  121.1474  278.0411  306.5044 H   0  0  0  0  0  0  0  0  0  0  0  0  # atno 2506 bound_to 2497
  119.7552  274.9639  307.9843 H   0  0  0  0  0  0  0  0  0  0  0  0  # atno 2539 bound_to 2525
  117.6446  277.1151  308.5449 H   0  0  0  0  0  0  0  0  0  0  0  0  # atno 2572 bound_to 2558
  115.2696  278.8329  308.1121 H   0  0  0  0  0  0  0  0  0  0  0  0  # atno 2600 bound_to 2587
  119.8659  281.0089  302.5247 H   0  0  0  0  0  0  0  0  0  0  0  0  # atno 2608 bound_to 2595
  119.8874  282.4494  303.3449 H   0  0  0  0  0  0  0  0  0  0  0  0  # atno 2609 bound_to 2595
  119.7457  281.0228  304.1783 H   0  0  0  0  0  0  0  0  0  0  0  0  # atno 2610 bound_to 2595
  114.1377  277.2160  305.6281 H   0  0  0  0  0  0  0  0  0  0  0  0  # atno 2640 bound_to 2631
  112.6195  275.5265  306.8222 H   0  0  0  0  0  0  0  0  0  0  0  0  # atno 2668 bound_to 2660
  110.7669  276.4956  307.7418 H   0  0  0  0  0  0  0  0  0  0  0  0  # atno 2706 bound_to 2698
  109.4547  278.1936  305.9059 H   0  0  0  0  0  0  0  0  0  0  0  0  # atno 2728 bound_to 2721
  108.6891  275.5306  305.6901 H   0  0  0  0  0  0  0  0  0  0  0  0  # atno 2756 bound_to 2749
  107.1390  274.0173  306.4982 H   0  0  0  0  0  0  0  0  0  0  0  0  # atno 2785 bound_to 2776
  108.8496  274.7382  315.6856 LP  0  0  0  0  0  0  0  0  0  0  0  0  # atno 13465 bound_to 1382
  107.9809  273.4139  316.3866 LP  0  0  0  0  0  0  0  0  0  0  0  0  # atno 13466 bound_to 1382
  105.2143  275.1950  318.2952 LP  0  0  0  0  0  0  0  0  0  0  0  0  # atno 13467 bound_to 1385
  105.6655  276.4983  317.4209 LP  0  0  0  0  0  0  0  0  0  0  0  0  # atno 13468 bound_to 1385
  106.3510  275.8691  314.7224 LP  0  0  0  0  0  0  0  0  0  0  0  0  # atno 13469 bound_to 1409
  110.7001  275.9082  315.1122 LP  0  0  0  0  0  0  0  0  0  0  0  0  # atno 13470 bound_to 1412
  110.6921  277.6291  314.9168 LP  0  0  0  0  0  0  0  0  0  0  0  0  # atno 13471 bound_to 1412
  107.5601  276.5048  315.9355 LP  0  0  0  0  0  0  0  0  0  0  0  0  # atno 13472 bound_to 1452
  110.9117  278.1396  318.2558 LP  0  0  0  0  0  0  0  0  0  0  0  0  # atno 13473 bound_to 1455
  110.4756  277.0597  319.5378 LP  0  0  0  0  0  0  0  0  0  0  0  0  # atno 13474 bound_to 1455
  108.1462  275.6289  317.3995 LP  0  0  0  0  0  0  0  0  0  0  0  0  # atno 13479 bound_to 1477
  111.5877  274.1096  319.8891 LP  0  0  0  0  0  0  0  0  0  0  0  0  # atno 13480 bound_to 1480
  112.1635  273.3075  318.4661 LP  0  0  0  0  0  0  0  0  0  0  0  0  # atno 13481 bound_to 1480
  110.5254  274.9991  317.2315 LP  0  0  0  0  0  0  0  0  0  0  0  0  # atno 13482 bound_to 1510
  112.4668  274.2662  315.1938 LP  0  0  0  0  0  0  0  0  0  0  0  0  # atno 13483 bound_to 1551
  116.8152  275.0096  317.3329 LP  0  0  0  0  0  0  0  0  0  0  0  0  # atno 13484 bound_to 1554
  116.4892  274.7588  315.6504 LP  0  0  0  0  0  0  0  0  0  0  0  0  # atno 13485 bound_to 1554
  123.8312  278.4257  309.8309 LP  0  0  0  0  0  0  0  0  0  0  0  0  # atno 13496 bound_to 2319
  124.1983  279.9956  309.1980 LP  0  0  0  0  0  0  0  0  0  0  0  0  # atno 13497 bound_to 2319
  123.8180  276.4457  310.3849 LP  0  0  0  0  0  0  0  0  0  0  0  0  # atno 13498 bound_to 2428
  118.9805  278.0218  309.6209 LP  0  0  0  0  0  0  0  0  0  0  0  0  # atno 13499 bound_to 2431
  119.2391  276.9478  310.9549 LP  0  0  0  0  0  0  0  0  0  0  0  0  # atno 13500 bound_to 2431
  121.1723  277.5719  309.4076 LP  0  0  0  0  0  0  0  0  0  0  0  0  # atno 13501 bound_to 2467
  125.3740  276.0388  310.3441 LP  0  0  0  0  0  0  0  0  0  0  0  0  # atno 13504 bound_to 2287
  125.3535  276.4297  312.0313 LP  0  0  0  0  0  0  0  0  0  0  0  0  # atno 13505 bound_to 2287
  128.1038  277.8417  311.6883 LP  0  0  0  0  0  0  0  0  0  0  0  0  # atno 13506 bound_to 2316
  125.9141  278.0242  309.2654 LP  0  0  0  0  0  0  0  0  0  0  0  0  # atno 13507 bound_to 2351
  122.5041  277.1705  307.4357 LP  0  0  0  0  0  0  0  0  0  0  0  0  # atno 13508 bound_to 2354
  123.2389  277.1581  305.8673 LP  0  0  0  0  0  0  0  0  0  0  0  0  # atno 13509 bound_to 2354
  125.4133  276.2167  308.8565 LP  0  0  0  0  0  0  0  0  0  0  0  0  # atno 13510 bound_to 2383
  121.2773  274.5687  308.0334 LP  0  0  0  0  0  0  0  0  0  0  0  0  # atno 13511 bound_to 2386
  120.6742  275.3452  309.4593 LP  0  0  0  0  0  0  0  0  0  0  0  0  # atno 13512 bound_to 2386
  118.2372  278.3904  306.2247 LP  0  0  0  0  0  0  0  0  0  0  0  0  # atno 13513 bound_to 2470
  118.0348  279.1619  307.7622 LP  0  0  0  0  0  0  0  0  0  0  0  0  # atno 13514 bound_to 2470
  120.2086  277.4300  307.8480 LP  0  0  0  0  0  0  0  0  0  0  0  0  # atno 13517 bound_to 2497
  116.9605  276.0734  309.7709 LP  0  0  0  0  0  0  0  0  0  0  0  0  # atno 13518 bound_to 2558
  118.6221  276.1026  307.2912 LP  0  0  0  0  0  0  0  0  0  0  0  0  # atno 13519 bound_to 2525
  116.5277  278.0102  307.2164 LP  0  0  0  0  0  0  0  0  0  0  0  0  # atno 13520 bound_to 2587
  115.1440  274.4414  309.2238 LP  0  0  0  0  0  0  0  0  0  0  0  0  # atno 13521 bound_to 2528
  114.7345  275.9518  308.4815 LP  0  0  0  0  0  0  0  0  0  0  0  0  # atno 13522 bound_to 2528
  113.4087  278.8563  309.2278 LP  0  0  0  0  0  0  0  0  0  0  0  0  # atno 13523 bound_to 2561
  113.2525  277.6594  307.9855 LP  0  0  0  0  0  0  0  0  0  0  0  0  # atno 13524 bound_to 2561
  111.9428  277.6697  308.2856 LP  0  0  0  0  0  0  0  0  0  0  0  0  # atno 13525 bound_to 2698
  113.6612  274.9830  308.1135 LP  0  0  0  0  0  0  0  0  0  0  0  0  # atno 13526 bound_to 2660
  108.8162  276.1331  307.5235 LP  0  0  0  0  0  0  0  0  0  0  0  0  # atno 13527 bound_to 2663
  108.9653  275.7425  309.2043 LP  0  0  0  0  0  0  0  0  0  0  0  0  # atno 13528 bound_to 2663
  112.2146  278.2890  305.9312 LP  0  0  0  0  0  0  0  0  0  0  0  0  # atno 13529 bound_to 2590
  112.4639  277.2314  304.5824 LP  0  0  0  0  0  0  0  0  0  0  0  0  # atno 13530 bound_to 2590
  115.4177  276.2985  306.3893 LP  0  0  0  0  0  0  0  0  0  0  0  0  # atno 13531 bound_to 2631
  107.7252  279.1998  306.7849 LP  0  0  0  0  0  0  0  0  0  0  0  0  # atno 13532 bound_to 2701
  107.4199  277.7883  305.8285 LP  0  0  0  0  0  0  0  0  0  0  0  0  # atno 13533 bound_to 2701
  110.7113  277.0306  305.5367 LP  0  0  0  0  0  0  0  0  0  0  0  0  # atno 13534 bound_to 2721
  114.2374  273.4217  317.1042 LP  0  0  0  0  0  0  0  0  0  0  0  0  # atno 13535 bound_to 1513
  113.7281  272.2357  315.9493 LP  0  0  0  0  0  0  0  0  0  0  0  0  # atno 13536 bound_to 1513
  111.3589  273.5875  305.8948 LP  0  0  0  0  0  0  0  0  0  0  0  0  # atno 13537 bound_to 2634
  110.8164  275.2300  305.8067 LP  0  0  0  0  0  0  0  0  0  0  0  0  # atno 13538 bound_to 2634
  108.8194  274.1338  306.9822 LP  0  0  0  0  0  0  0  0  0  0  0  0  # atno 13539 bound_to 2776
  108.5534  271.4207  310.8231 LP  0  0  0  0  0  0  0  0  0  0  0  0  # atno 13540 bound_to 2779
  107.0206  272.2179  310.7013 LP  0  0  0  0  0  0  0  0  0  0  0  0  # atno 13541 bound_to 2779

> <Gold.Score>
     Fitness  S(hb_ext) S(vdw_ext)  S(hb_int)    S(int)      intcor
     24.28       1.46      17.10       0.00      -0.69      -0.76

> <Gold.Goldscore.Fitness>
24.2792

> <Gold.Goldscore.Internal.Vdw>
-0.9020

> <Gold.Goldscore.Internal.Torsion>
-0.5529

> <Gold.Goldscore.External.Vdw>
17.0983

> <Gold.Goldscore.Internal.HBond>
0.0000

> <Gold.Goldscore.External.HBond>
1.4591

> <Gold.Goldscore.Internal.Correction>
-0.7650

> <Gold.Goldscore.Hbonds>
donor molecule, donor type, donor heavy atom, donor atom, acceptor molecule, acceptor atom, score
      L1  H     8    22       P1  1412  0.69
      L1  H    10    23       P1  2565  0.01

> <Gold.Goldscore.Internal.Vdw.Weighted>
-0.9020

> <Gold.Goldscore.Internal.Torsion.Weighted>
-0.5529

> <Gold.Goldscore.External.Vdw.Weighted>
23.5101

> <Gold.Goldscore.Internal.HBond.Weighted>
0.0000

> <Gold.Goldscore.External.HBond.Weighted>
1.4591

> <Gold.Goldscore.Internal.Correction.Weighted>
-0.7650

> <Gold.Rescore>
     Score     S(PLP)   S(hbond)     S(cho)   S(metal)  DE(clash)   DE(tors)     intcor
     21.39     -17.39       1.37       0.00       0.00       0.00       0.05       ----

> <Gold.PLP.Fitness>
21.3933

> <Gold.PLP.PLP>
-17.3937

> <Gold.PLP.part.hbond>
-2.6928

> <Gold.PLP.part.metal>
0.0000

> <Gold.PLP.part.buried>
-3.9637

> <Gold.PLP.part.nonpolar>
-11.7177

> <Gold.PLP.part.repulsive>
0.7073

> <Gold.PLP.ligand.clash>
0.0000

> <Gold.PLP.ligand.torsion>
0.0522

> <Gold.PLP.Chemscore.Hbond>
1.3680

> <Gold.PLP.Chemscore.CHOScore>
0.0000

> <Gold.PLP.Chemscore.Metal>
0.0000

> <Gold.Chemscore.Hbonds>
donor molecule, donor type, donor heavy atom, donor atom, acceptor molecule, acceptor atom, score
      L1  H     8    22       P1  1412  1.00
      L1  H    10    23       P1  2565  0.40

> <Gold.PLP.Chemscore.Internal.Correction>
   9.000000E+99

