#       Name:                CT1002167954
#       Creating user name   hitesit
#       Creation time:       Sun Apr 16 20:18:43 2023


#       File generated by GOLD software.
#

@<TRIPOS>MOLECULE
CT1002167954|ligand_prepared|mol2|1|dock3
    29    30     1
SMALL
NO_CHARGES


@<TRIPOS>ATOM
      1 C1         112.2361 281.2973 313.7863 C.3            1 RES1               0.0000
      2 C2         110.9921 282.1353 314.1453 C.ar           1 RES1               0.0000
      3 C3         111.9354 279.8702 314.2348 C.2            1 RES1               0.0000
      4 C4         112.4326 281.4483 312.2819 C.2            1 RES1               0.0000
      5 C5         113.5312 281.7698 314.4870 C.3            1 RES1               0.0000
      6 C6         109.7179 281.5811 314.0678 C.ar           1 RES1               0.0000
      7 C7         111.1028 283.4607 314.5573 C.ar           1 RES1               0.0000
      8 N8         111.6580 278.9493 313.2679 N.am           1 RES1               0.0000
      9 O9         111.9032 279.5665 315.4209 O.2            1 RES1               0.0000
     10 N10        112.2726 280.3354 311.4985 N.am           1 RES1               0.0000
     11 O11        112.7082 282.5245 311.7660 O.2            1 RES1               0.0000
     12 C12        114.6891 280.7925 314.3591 C.3            1 RES1               0.0000
     13 C13        108.5952 282.3239 314.3933 C.ar           1 RES1               0.0000
     14 C14        109.9786 284.2018 314.8822 C.ar           1 RES1               0.0000
     15 C15        111.8641 279.0994 311.9201 C.2            1 RES1               0.0000
     16 C16        108.7247 283.6345 314.8011 C.ar           1 RES1               0.0000
     17 O17        111.6903 278.1615 311.1472 O.2            1 RES1               0.0000
     18 H18        113.8334 282.7332 314.0582 H              1 RES1               0.0000
     19 H19        113.3191 281.9284 315.5516 H              1 RES1               0.0000
     20 H20        109.5961 280.5520 313.7466 H              1 RES1               0.0000
     21 H21        112.0791 283.9281 314.6275 H              1 RES1               0.0000
     22 H22        111.2605 278.0674 313.5755 H              1 RES1               0.0000
     23 H23        112.4771 280.4378 310.5096 H              1 RES1               0.0000
     24 H24        115.5725 281.1723 314.8681 H              1 RES1               0.0000
     25 H25        114.4323 279.8306 314.7982 H              1 RES1               0.0000
     26 H26        114.9436 280.6307 313.3137 H              1 RES1               0.0000
     27 H27        107.6105 281.8732 314.3266 H              1 RES1               0.0000
     28 H28        110.0853 285.2331 315.2021 H              1 RES1               0.0000
     29 H29        107.8451 284.2161 315.0564 H              1 RES1               0.0000
@<TRIPOS>BOND
    1    1    2 1     
    2    1    3 1     
    3    1    4 1     
    4    1    5 1     
    5    2    6 ar    
    6    2    7 ar    
    7    3    8 1     
    8    3    9 2     
    9    4   10 1     
   10    4   11 2     
   11    5   12 1     
   12    5   18 1     
   13    5   19 1     
   14    6   13 ar    
   15    6   20 1     
   16    7   14 ar    
   17    7   21 1     
   18    8   15 1     
   19    8   22 1     
   20   10   15 1     
   21   10   23 1     
   22   12   24 1     
   23   12   25 1     
   24   12   26 1     
   25   13   16 ar    
   26   13   27 1     
   27   14   16 ar    
   28   14   28 1     
   29   15   17 2     
   30   16   29 1     
@<TRIPOS>SUBSTRUCTURE
      1 RES1           1
@<TRIPOS>SET
DONOR_HYDROGENS      STATIC     ATOMS    <user>   **** ""
2 22 23
ATOM$RED        STATIC     ATOMS    COLORGROUP SYSTEM
2 22 23
@<TRIPOS>COMMENT
> <Gold.Version>
2022.3.0

> <Gold.Id.Protein>
unknown|5adg_clean|pdb

> <Gold.Protein.RotatedTorsions>
[ 1392 1385 1383 1380 ] final -127.25 input   60.03 | X-H torsion
[ 1421 1409 1410 1411 ] final  129.20 input  129.35 | X-H torsion
[ 1464 1452 1453 1454 ] final -131.22 input  108.99 | X-H torsion
[ 1488 1477 1478 1479 ] final   -3.35 input  100.07 | X-H torsion
[ 1529 1510 1511 1512 ] final -145.25 input  113.76 | X-H torsion
[ 1564 1551 1552 1553 ] final  -55.85 input  123.58 | X-H torsion
[ 1694 1683 1682 1681 ] final  102.66 input   60.00 | X-H torsion
[ 2447 2428 2429 2430 ] final  135.19 input  119.94 | X-H torsion
[ 2477 2467 2468 2469 ] final  147.11 input  117.54 | X-H torsion
[ 2324 2316 2317 2318 ] final -170.84 input  118.58 | X-H torsion
[ 2362 2351 2352 2353 ] final   -7.50 input  116.99 | X-H torsion
[ 2407 2383 2384 2385 ] final   90.14 input  115.65 | X-H torsion
[ 2506 2497 2498 2499 ] final    6.60 input  121.55 | X-H torsion
[ 2572 2558 2559 2560 ] final -167.32 input  118.05 | X-H torsion
[ 2539 2525 2526 2527 ] final  -18.32 input  116.25 | X-H torsion
[ 2600 2587 2588 2589 ] final   55.03 input  123.81 | X-H torsion
[ 2706 2698 2699 2700 ] final -149.54 input  119.89 | X-H torsion
[ 2668 2660 2661 2662 ] final  121.78 input  116.13 | X-H torsion
[ 2640 2631 2632 2633 ] final  -87.84 input  117.28 | X-H torsion
[ 2728 2721 2722 2723 ] final -149.00 input   88.34 | X-H torsion
[ 2785 2776 2777 2778 ] final   15.22 input -114.77 | X-H torsion
[ 2608 2595 2594 2593 ] final -114.27 input   60.00 | X-H torsion
[ 1684 1675 1676 1677 ] final  170.68 input  120.12 | X-H torsion
[ 1635 1616 1617 1618 ] final  125.69 input  110.97 | X-H torsion
[ 2756 2749 2750 2751 ] final  102.72 input   47.81 | X-H torsion
[ 13465 1382 1381 1380 ] final   51.26 input    0.00 | X-H torsion
[ 13470 1412 1411 1410 ] final   90.26 input    0.00 | X-H torsion
[ 13473 1455 1454 1453 ] final  -45.89 input   -0.00 | X-H torsion
[ 13480 1480 1479 1478 ] final  111.03 input   -0.00 | X-H torsion
[ 13484 1554 1553 1552 ] final  -92.93 input    0.00 | X-H torsion
[ 13496 2319 2318 2317 ] final  -39.29 input   -0.00 | X-H torsion
[ 13499 2431 2430 2429 ] final   82.66 input    0.00 | X-H torsion
[ 13504 2287 2286 2285 ] final  146.87 input   -0.00 | X-H torsion
[ 13508 2354 2353 2352 ] final   62.73 input    0.00 | X-H torsion
[ 13511 2386 2385 2384 ] final  139.90 input    0.00 | X-H torsion
[ 13513 2470 2469 2468 ] final   28.49 input   -0.00 | X-H torsion
[ 13521 2528 2527 2526 ] final   37.30 input    0.00 | X-H torsion
[ 13523 2561 2560 2559 ] final   17.58 input   -0.00 | X-H torsion
[ 13527 2663 2662 2661 ] final  -15.93 input    0.00 | X-H torsion
[ 13529 2590 2589 2588 ] final   25.17 input   -0.00 | X-H torsion
[ 13532 2701 2700 2699 ] final -131.72 input    0.00 | X-H torsion
[ 13535 1513 1512 1511 ] final -146.98 input    0.00 | X-H torsion
[ 13537 2634 2633 2632 ] final -134.16 input    0.00 | X-H torsion
[ 13540 2779 2778 2777 ] final   52.88 input    0.00 | X-H torsion

> <Gold.Protein.ActiveResidues>
 THR355  LYS356  ASP357  GLN358  LEU359  PHE360  PRO361  LEU362  ALA363  LYS364 
 ASP368  PHE377  GLY378  HIS382  MET383  GLU384  ARG385  LEU386  GLU387  GLU388 
 VAL389  ASN390  LYS391  GLU392  ILE393  ASP394  THR395  THR396  SER397 

> <Gold.Protein.RotatedAtoms>
  105.1013  275.4231  318.2747 H   0  0  0  0  0  0  0  0  0  0  0  0  # atno 1392 bound_to 1385
  106.1595  275.5967  313.6464 H   0  0  0  0  0  0  0  0  0  0  0  0  # atno 1421 bound_to 1409
  108.3986  277.6422  314.9012 H   0  0  0  0  0  0  0  0  0  0  0  0  # atno 1464 bound_to 1452
  109.1459  276.0735  317.2473 H   0  0  0  0  0  0  0  0  0  0  0  0  # atno 1488 bound_to 1477
  109.5865  273.5927  317.5666 H   0  0  0  0  0  0  0  0  0  0  0  0  # atno 1529 bound_to 1510
  112.6451  274.1146  316.0259 H   0  0  0  0  0  0  0  0  0  0  0  0  # atno 1564 bound_to 1551
  114.1478  273.7808  319.0073 H   0  0  0  0  0  0  0  0  0  0  0  0  # atno 1635 bound_to 1616
  117.7789  274.1964  315.9197 H   0  0  0  0  0  0  0  0  0  0  0  0  # atno 1684 bound_to 1675
  123.3565  277.8757  318.6444 H   0  0  0  0  0  0  0  0  0  0  0  0  # atno 1694 bound_to 1683
  123.0379  279.0918  319.7241 H   0  0  0  0  0  0  0  0  0  0  0  0  # atno 1695 bound_to 1683
  122.1292  277.7056  319.7454 H   0  0  0  0  0  0  0  0  0  0  0  0  # atno 1696 bound_to 1683
  128.0299  277.8116  311.7563 H   0  0  0  0  0  0  0  0  0  0  0  0  # atno 2324 bound_to 2316
  125.9799  277.8765  309.2486 H   0  0  0  0  0  0  0  0  0  0  0  0  # atno 2362 bound_to 2351
  125.4965  276.1369  308.8200 H   0  0  0  0  0  0  0  0  0  0  0  0  # atno 2407 bound_to 2383
  123.8167  276.3229  310.4925 H   0  0  0  0  0  0  0  0  0  0  0  0  # atno 2447 bound_to 2428
  122.2645  278.9116  309.5753 H   0  0  0  0  0  0  0  0  0  0  0  0  # atno 2477 bound_to 2467
  120.1325  277.4680  307.8398 H   0  0  0  0  0  0  0  0  0  0  0  0  # atno 2506 bound_to 2497
  118.6251  276.1905  307.3911 H   0  0  0  0  0  0  0  0  0  0  0  0  # atno 2539 bound_to 2525
  117.4982  276.5294  310.0270 H   0  0  0  0  0  0  0  0  0  0  0  0  # atno 2572 bound_to 2558
  116.2020  277.6425  307.3320 H   0  0  0  0  0  0  0  0  0  0  0  0  # atno 2600 bound_to 2587
  119.8061  282.0315  304.1414 H   0  0  0  0  0  0  0  0  0  0  0  0  # atno 2608 bound_to 2595
  119.7742  280.5410  303.4162 H   0  0  0  0  0  0  0  0  0  0  0  0  # atno 2609 bound_to 2595
  119.9187  281.9099  302.4916 H   0  0  0  0  0  0  0  0  0  0  0  0  # atno 2610 bound_to 2595
  114.2698  277.1851  305.4388 H   0  0  0  0  0  0  0  0  0  0  0  0  # atno 2640 bound_to 2631
  113.6861  275.4084  308.1516 H   0  0  0  0  0  0  0  0  0  0  0  0  # atno 2668 bound_to 2660
  111.3363  277.3918  308.8493 H   0  0  0  0  0  0  0  0  0  0  0  0  # atno 2706 bound_to 2698
  109.9325  278.4704  305.5998 H   0  0  0  0  0  0  0  0  0  0  0  0  # atno 2728 bound_to 2721
  109.8141  275.0902  304.8857 H   0  0  0  0  0  0  0  0  0  0  0  0  # atno 2756 bound_to 2749
  108.4229  273.2933  306.6922 H   0  0  0  0  0  0  0  0  0  0  0  0  # atno 2785 bound_to 2776
  108.2142  273.2417  315.9200 LP  0  0  0  0  0  0  0  0  0  0  0  0  # atno 13465 bound_to 1382
  108.6163  274.9104  316.1522 LP  0  0  0  0  0  0  0  0  0  0  0  0  # atno 13466 bound_to 1382
  105.8803  276.4558  317.2875 LP  0  0  0  0  0  0  0  0  0  0  0  0  # atno 13467 bound_to 1385
  106.4625  274.9480  317.5204 LP  0  0  0  0  0  0  0  0  0  0  0  0  # atno 13468 bound_to 1385
  107.0345  274.7572  314.9075 LP  0  0  0  0  0  0  0  0  0  0  0  0  # atno 13469 bound_to 1409
  110.7128  277.5220  314.5876 LP  0  0  0  0  0  0  0  0  0  0  0  0  # atno 13470 bound_to 1412
  110.6794  276.0154  315.4414 LP  0  0  0  0  0  0  0  0  0  0  0  0  # atno 13471 bound_to 1412
  107.5984  276.4774  315.9364 LP  0  0  0  0  0  0  0  0  0  0  0  0  # atno 13472 bound_to 1452
  111.0523  277.9030  318.1692 LP  0  0  0  0  0  0  0  0  0  0  0  0  # atno 13473 bound_to 1455
  110.3349  277.2963  319.6244 LP  0  0  0  0  0  0  0  0  0  0  0  0  # atno 13474 bound_to 1455
  107.9290  276.4294  318.4504 LP  0  0  0  0  0  0  0  0  0  0  0  0  # atno 13479 bound_to 1477
  111.6527  272.8816  319.0494 LP  0  0  0  0  0  0  0  0  0  0  0  0  # atno 13480 bound_to 1480
  112.0986  274.5355  319.3058 LP  0  0  0  0  0  0  0  0  0  0  0  0  # atno 13481 bound_to 1480
  110.3668  275.0495  316.9950 LP  0  0  0  0  0  0  0  0  0  0  0  0  # atno 13482 bound_to 1510
  111.9627  275.6436  315.5382 LP  0  0  0  0  0  0  0  0  0  0  0  0  # atno 13483 bound_to 1551
  116.3586  274.1044  316.7277 LP  0  0  0  0  0  0  0  0  0  0  0  0  # atno 13484 bound_to 1554
  116.9458  275.6640  316.2555 LP  0  0  0  0  0  0  0  0  0  0  0  0  # atno 13485 bound_to 1554
  123.9615  278.8914  310.3177 LP  0  0  0  0  0  0  0  0  0  0  0  0  # atno 13496 bound_to 2319
  124.0680  279.5300  308.7112 LP  0  0  0  0  0  0  0  0  0  0  0  0  # atno 13497 bound_to 2319
  122.6435  275.8298  309.2931 LP  0  0  0  0  0  0  0  0  0  0  0  0  # atno 13498 bound_to 2428
  119.1139  278.0214  310.9677 LP  0  0  0  0  0  0  0  0  0  0  0  0  # atno 13499 bound_to 2431
  119.1058  276.9481  309.6082 LP  0  0  0  0  0  0  0  0  0  0  0  0  # atno 13500 bound_to 2431
  121.0632  277.6409  309.5641 LP  0  0  0  0  0  0  0  0  0  0  0  0  # atno 13501 bound_to 2467
  125.1946  277.0122  311.5284 LP  0  0  0  0  0  0  0  0  0  0  0  0  # atno 13504 bound_to 2287
  125.5329  275.4562  310.8469 LP  0  0  0  0  0  0  0  0  0  0  0  0  # atno 13505 bound_to 2287
  127.5882  277.1522  310.1979 LP  0  0  0  0  0  0  0  0  0  0  0  0  # atno 13506 bound_to 2316
  127.0888  278.8824  308.3477 LP  0  0  0  0  0  0  0  0  0  0  0  0  # atno 13507 bound_to 2351
  123.2351  277.1198  305.8668 LP  0  0  0  0  0  0  0  0  0  0  0  0  # atno 13508 bound_to 2354
  122.5079  277.2088  307.4363 LP  0  0  0  0  0  0  0  0  0  0  0  0  # atno 13509 bound_to 2354
  124.6884  276.5167  307.3191 LP  0  0  0  0  0  0  0  0  0  0  0  0  # atno 13510 bound_to 2383
  120.7704  274.9022  309.5859 LP  0  0  0  0  0  0  0  0  0  0  0  0  # atno 13511 bound_to 2386
  121.1812  275.0117  307.9068 LP  0  0  0  0  0  0  0  0  0  0  0  0  # atno 13512 bound_to 2386
  118.2788  279.6192  307.1310 LP  0  0  0  0  0  0  0  0  0  0  0  0  # atno 13513 bound_to 2470
  117.9932  277.9331  306.8560 LP  0  0  0  0  0  0  0  0  0  0  0  0  # atno 13514 bound_to 2470
  121.1948  277.9869  306.5504 LP  0  0  0  0  0  0  0  0  0  0  0  0  # atno 13517 bound_to 2497
  117.1031  276.6437  308.3278 LP  0  0  0  0  0  0  0  0  0  0  0  0  # atno 13518 bound_to 2558
  119.7197  274.9113  307.8673 LP  0  0  0  0  0  0  0  0  0  0  0  0  # atno 13519 bound_to 2525
  115.6237  279.1645  307.9729 LP  0  0  0  0  0  0  0  0  0  0  0  0  # atno 13520 bound_to 2587
  115.1516  274.4247  309.1830 LP  0  0  0  0  0  0  0  0  0  0  0  0  # atno 13521 bound_to 2528
  114.7269  275.9685  308.5223 LP  0  0  0  0  0  0  0  0  0  0  0  0  # atno 13522 bound_to 2528
  113.4339  278.3407  309.4625 LP  0  0  0  0  0  0  0  0  0  0  0  0  # atno 13523 bound_to 2561
  113.2272  278.1750  307.7508 LP  0  0  0  0  0  0  0  0  0  0  0  0  # atno 13524 bound_to 2561
  111.3879  276.7962  307.2062 LP  0  0  0  0  0  0  0  0  0  0  0  0  # atno 13525 bound_to 2698
  112.6143  275.0989  306.8086 LP  0  0  0  0  0  0  0  0  0  0  0  0  # atno 13526 bound_to 2660
  109.0678  275.0915  308.4127 LP  0  0  0  0  0  0  0  0  0  0  0  0  # atno 13527 bound_to 2663
  108.7137  276.7842  308.3151 LP  0  0  0  0  0  0  0  0  0  0  0  0  # atno 13528 bound_to 2663
  112.5479  278.5341  304.9288 LP  0  0  0  0  0  0  0  0  0  0  0  0  # atno 13529 bound_to 2590
  112.1306  276.9863  305.5847 LP  0  0  0  0  0  0  0  0  0  0  0  0  # atno 13530 bound_to 2590
  115.2893  276.3286  306.5732 LP  0  0  0  0  0  0  0  0  0  0  0  0  # atno 13531 bound_to 2631
  107.4000  277.6796  306.0682 LP  0  0  0  0  0  0  0  0  0  0  0  0  # atno 13532 bound_to 2701
  107.7451  279.3085  306.5452 LP  0  0  0  0  0  0  0  0  0  0  0  0  # atno 13533 bound_to 2701
  110.2506  276.7637  305.8318 LP  0  0  0  0  0  0  0  0  0  0  0  0  # atno 13534 bound_to 2721
  114.4015  273.5280  316.8194 LP  0  0  0  0  0  0  0  0  0  0  0  0  # atno 13535 bound_to 1513
  113.5641  272.1294  316.2342 LP  0  0  0  0  0  0  0  0  0  0  0  0  # atno 13536 bound_to 1513
  110.6778  275.0368  306.2838 LP  0  0  0  0  0  0  0  0  0  0  0  0  # atno 13537 bound_to 2634
  111.4976  273.7807  305.4177 LP  0  0  0  0  0  0  0  0  0  0  0  0  # atno 13538 bound_to 2634
  107.5858  274.8296  306.7958 LP  0  0  0  0  0  0  0  0  0  0  0  0  # atno 13539 bound_to 2776
  106.9742  271.7167  310.4813 LP  0  0  0  0  0  0  0  0  0  0  0  0  # atno 13540 bound_to 2779
  108.5997  271.9218  311.0431 LP  0  0  0  0  0  0  0  0  0  0  0  0  # atno 13541 bound_to 2779

> <Gold.Score>
     Fitness  S(hb_ext) S(vdw_ext)  S(hb_int)    S(int)      intcor
     24.57       2.96      15.99       0.00      -0.38      -0.76

> <Gold.Goldscore.Fitness>
24.5680

> <Gold.Goldscore.Internal.Vdw>
-0.5628

> <Gold.Goldscore.Internal.Torsion>
-0.5805

> <Gold.Goldscore.External.Vdw>
15.9908

> <Gold.Goldscore.Internal.HBond>
0.0000

> <Gold.Goldscore.External.HBond>
2.9590

> <Gold.Goldscore.Internal.Correction>
-0.7650

> <Gold.Goldscore.Hbonds>
donor molecule, donor type, donor heavy atom, donor atom, acceptor molecule, acceptor atom, score
      P1  H  2698  2706       L1    17  0.37
      L1  H     8    22       P1  1412  0.48
      L1  H    10    23       P1  2705  0.21

> <Gold.Goldscore.Internal.Vdw.Weighted>
-0.5628

> <Gold.Goldscore.Internal.Torsion.Weighted>
-0.5805

> <Gold.Goldscore.External.Vdw.Weighted>
21.9873

> <Gold.Goldscore.Internal.HBond.Weighted>
0.0000

> <Gold.Goldscore.External.HBond.Weighted>
2.9590

> <Gold.Goldscore.Internal.Correction.Weighted>
-0.7650

> <Gold.Rescore>
     Score     S(PLP)   S(hbond)     S(cho)   S(metal)  DE(clash)   DE(tors)     intcor
     18.75     -14.81       1.54       0.00       0.00       0.00       0.34       ----

> <Gold.PLP.Fitness>
18.7544

> <Gold.PLP.PLP>
-14.8067

> <Gold.PLP.part.hbond>
-2.6592

> <Gold.PLP.part.metal>
0.0000

> <Gold.PLP.part.buried>
-2.2087

> <Gold.PLP.part.nonpolar>
-11.5075

> <Gold.PLP.part.repulsive>
0.5231

> <Gold.PLP.ligand.clash>
0.0000

> <Gold.PLP.ligand.torsion>
0.3417

> <Gold.PLP.Chemscore.Hbond>
1.5438

> <Gold.PLP.Chemscore.CHOScore>
0.0000

> <Gold.PLP.Chemscore.Metal>
0.0000

> <Gold.Chemscore.Hbonds>
donor molecule, donor type, donor heavy atom, donor atom, acceptor molecule, acceptor atom, score
      L1  H     8    22       P1  1412  0.76
      L1  H    10    23       P1  2704  0.10
      P1  H  2698  2706       L1    17  0.13

> <Gold.PLP.Chemscore.Internal.Correction>
   9.000000E+99

