#       Name:                CT1002167954
#       Creating user name   hitesit
#       Creation time:       Sun Apr 16 20:18:46 2023


#       File generated by GOLD software.
#

@<TRIPOS>MOLECULE
CT1002167954|ligand_prepared|mol2|1|dock7
    29    30     1
SMALL
NO_CHARGES


@<TRIPOS>ATOM
      1 C1         110.6763 282.0307 312.6439 C.3            1 RES1               0.0000
      2 C2         109.6787 282.2697 311.4921 C.ar           1 RES1               0.0000
      3 C3         110.0688 280.9365 313.5167 C.2            1 RES1               0.0000
      4 C4         111.9979 281.6429 311.9900 C.2            1 RES1               0.0000
      5 C5         110.9261 283.2782 313.5230 C.3            1 RES1               0.0000
      6 C6         109.7997 283.3860 310.6700 C.ar           1 RES1               0.0000
      7 C7         108.6358 281.3829 311.2382 C.ar           1 RES1               0.0000
      8 N8         110.6246 279.6929 313.4491 N.am           1 RES1               0.0000
      9 O9         109.0920 281.1517 314.2238 O.2            1 RES1               0.0000
     10 N10        112.4696 280.3735 312.1992 N.am           1 RES1               0.0000
     11 O11        112.6267 282.4199 311.2820 O.2            1 RES1               0.0000
     12 C12        111.8270 283.0148 314.7193 C.3            1 RES1               0.0000
     13 C13        108.9122 283.6063 309.6298 C.ar           1 RES1               0.0000
     14 C14        107.7491 281.6052 310.1976 C.ar           1 RES1               0.0000
     15 C15        111.8276 279.3711 312.8739 C.2            1 RES1               0.0000
     16 C16        107.8867 282.7160 309.3926 C.ar           1 RES1               0.0000
     17 O17        112.2912 278.2387 312.9731 O.2            1 RES1               0.0000
     18 H18        111.3811 284.0611 312.9039 H              1 RES1               0.0000
     19 H19        109.9610 283.6548 313.8840 H              1 RES1               0.0000
     20 H20        110.5990 284.0989 310.8430 H              1 RES1               0.0000
     21 H21        108.5076 280.5028 311.8592 H              1 RES1               0.0000
     22 H22        110.0969 278.9318 313.8646 H              1 RES1               0.0000
     23 H23        113.3842 280.1556 311.8165 H              1 RES1               0.0000
     24 H24        111.9695 283.9224 315.3021 H              1 RES1               0.0000
     25 H25        111.3927 282.2588 315.3702 H              1 RES1               0.0000
     26 H26        112.8044 282.6627 314.3959 H              1 RES1               0.0000
     27 H27        109.0239 284.4828 309.0001 H              1 RES1               0.0000
     28 H28        106.9431 280.9022 310.0149 H              1 RES1               0.0000
     29 H29        107.1917 282.8887 308.5775 H              1 RES1               0.0000
@<TRIPOS>BOND
    1    1    2 1     
    2    1    3 1     
    3    1    4 1     
    4    1    5 1     
    5    2    6 ar    
    6    2    7 ar    
    7    3    8 1     
    8    3    9 2     
    9    4   10 1     
   10    4   11 2     
   11    5   12 1     
   12    5   18 1     
   13    5   19 1     
   14    6   13 ar    
   15    6   20 1     
   16    7   14 ar    
   17    7   21 1     
   18    8   15 1     
   19    8   22 1     
   20   10   15 1     
   21   10   23 1     
   22   12   24 1     
   23   12   25 1     
   24   12   26 1     
   25   13   16 ar    
   26   13   27 1     
   27   14   16 ar    
   28   14   28 1     
   29   15   17 2     
   30   16   29 1     
@<TRIPOS>SUBSTRUCTURE
      1 RES1           1
@<TRIPOS>SET
DONOR_HYDROGENS      STATIC     ATOMS    <user>   **** ""
2 22 23
ATOM$RED        STATIC     ATOMS    COLORGROUP SYSTEM
2 22 23
@<TRIPOS>COMMENT
> <Gold.Version>
2022.3.0

> <Gold.Id.Protein>
unknown|5adg_clean|pdb

> <Gold.Protein.RotatedTorsions>
[ 1392 1385 1383 1380 ] final   -7.38 input   60.03 | X-H torsion
[ 1421 1409 1410 1411 ] final  -44.20 input  129.35 | X-H torsion
[ 1464 1452 1453 1454 ] final  166.98 input  108.99 | X-H torsion
[ 1488 1477 1478 1479 ] final   -2.33 input  100.07 | X-H torsion
[ 1529 1510 1511 1512 ] final -151.51 input  113.76 | X-H torsion
[ 1564 1551 1552 1553 ] final  138.23 input  123.58 | X-H torsion
[ 1694 1683 1682 1681 ] final   54.69 input   60.00 | X-H torsion
[ 2447 2428 2429 2430 ] final   90.46 input  119.94 | X-H torsion
[ 2477 2467 2468 2469 ] final   45.92 input  117.54 | X-H torsion
[ 2324 2316 2317 2318 ] final  -26.43 input  118.58 | X-H torsion
[ 2362 2351 2352 2353 ] final  157.71 input  116.99 | X-H torsion
[ 2407 2383 2384 2385 ] final -114.75 input  115.65 | X-H torsion
[ 2506 2497 2498 2499 ] final   -0.83 input  121.55 | X-H torsion
[ 2572 2558 2559 2560 ] final   94.33 input  118.05 | X-H torsion
[ 2539 2525 2526 2527 ] final   81.12 input  116.25 | X-H torsion
[ 2600 2587 2588 2589 ] final  -68.64 input  123.81 | X-H torsion
[ 2706 2698 2699 2700 ] final  157.94 input  119.89 | X-H torsion
[ 2668 2660 2661 2662 ] final  116.01 input  116.13 | X-H torsion
[ 2640 2631 2632 2633 ] final   14.36 input  117.28 | X-H torsion
[ 2728 2721 2722 2723 ] final  -51.21 input   88.34 | X-H torsion
[ 2785 2776 2777 2778 ] final  -11.23 input -114.77 | X-H torsion
[ 2608 2595 2594 2593 ] final -170.95 input   60.00 | X-H torsion
[ 1684 1675 1676 1677 ] final  161.15 input  120.12 | X-H torsion
[ 1635 1616 1617 1618 ] final  164.19 input  110.97 | X-H torsion
[ 2756 2749 2750 2751 ] final   71.52 input   47.81 | X-H torsion
[ 13465 1382 1381 1380 ] final  143.36 input    0.00 | X-H torsion
[ 13470 1412 1411 1410 ] final  -69.38 input    0.00 | X-H torsion
[ 13473 1455 1454 1453 ] final    7.12 input   -0.00 | X-H torsion
[ 13480 1480 1479 1478 ] final   18.51 input   -0.00 | X-H torsion
[ 13484 1554 1553 1552 ] final  109.68 input    0.00 | X-H torsion
[ 13496 2319 2318 2317 ] final   84.54 input   -0.00 | X-H torsion
[ 13499 2431 2430 2429 ] final -104.51 input    0.00 | X-H torsion
[ 13504 2287 2286 2285 ] final   82.89 input   -0.00 | X-H torsion
[ 13508 2354 2353 2352 ] final  -40.64 input    0.00 | X-H torsion
[ 13511 2386 2385 2384 ] final   76.65 input    0.00 | X-H torsion
[ 13513 2470 2469 2468 ] final  -51.43 input   -0.00 | X-H torsion
[ 13521 2528 2527 2526 ] final  -46.99 input    0.00 | X-H torsion
[ 13523 2561 2560 2559 ] final   -6.83 input   -0.00 | X-H torsion
[ 13527 2663 2662 2661 ] final -161.70 input    0.00 | X-H torsion
[ 13529 2590 2589 2588 ] final -159.90 input   -0.00 | X-H torsion
[ 13532 2701 2700 2699 ] final  -26.32 input    0.00 | X-H torsion
[ 13535 1513 1512 1511 ] final  -23.68 input    0.00 | X-H torsion
[ 13537 2634 2633 2632 ] final   51.92 input    0.00 | X-H torsion
[ 13540 2779 2778 2777 ] final  151.28 input    0.00 | X-H torsion

> <Gold.Protein.ActiveResidues>
 THR355  LYS356  ASP357  GLN358  LEU359  PHE360  PRO361  LEU362  ALA363  LYS364 
 ASP368  PHE377  GLY378  HIS382  MET383  GLU384  ARG385  LEU386  GLU387  GLU388 
 VAL389  ASN390  LYS391  GLU392  ILE393  ASP394  THR395  THR396  SER397 

> <Gold.Protein.RotatedAtoms>
  106.4556  274.9506  317.5213 H   0  0  0  0  0  0  0  0  0  0  0  0  # atno 1392 bound_to 1385
  107.0395  274.8314  314.9825 H   0  0  0  0  0  0  0  0  0  0  0  0  # atno 1421 bound_to 1409
  107.5364  277.7767  315.1826 H   0  0  0  0  0  0  0  0  0  0  0  0  # atno 1464 bound_to 1452
  109.1364  276.0626  317.2412 H   0  0  0  0  0  0  0  0  0  0  0  0  # atno 1488 bound_to 1477
  109.5276  273.6005  317.4900 H   0  0  0  0  0  0  0  0  0  0  0  0  # atno 1529 bound_to 1510
  111.9512  275.5564  315.3426 H   0  0  0  0  0  0  0  0  0  0  0  0  # atno 1564 bound_to 1551
  114.3055  273.8884  319.5573 H   0  0  0  0  0  0  0  0  0  0  0  0  # atno 1635 bound_to 1616
  117.7207  274.2497  316.0442 H   0  0  0  0  0  0  0  0  0  0  0  0  # atno 1684 bound_to 1675
  122.7970  277.3969  318.8936 H   0  0  0  0  0  0  0  0  0  0  0  0  # atno 1694 bound_to 1683
  123.4992  278.8783  319.1354 H   0  0  0  0  0  0  0  0  0  0  0  0  # atno 1695 bound_to 1683
  122.2279  278.3989  320.0850 H   0  0  0  0  0  0  0  0  0  0  0  0  # atno 1696 bound_to 1683
  127.2351  276.9463  310.5433 H   0  0  0  0  0  0  0  0  0  0  0  0  # atno 2324 bound_to 2316
  127.2085  278.6957  308.3049 H   0  0  0  0  0  0  0  0  0  0  0  0  # atno 2362 bound_to 2351
  124.9403  276.2652  307.1960 H   0  0  0  0  0  0  0  0  0  0  0  0  # atno 2407 bound_to 2383
  123.7194  276.7939  310.0199 H   0  0  0  0  0  0  0  0  0  0  0  0  # atno 2447 bound_to 2428
  121.9343  277.7742  308.8885 H   0  0  0  0  0  0  0  0  0  0  0  0  # atno 2477 bound_to 2467
  120.0603  277.5496  307.8030 H   0  0  0  0  0  0  0  0  0  0  0  0  # atno 2506 bound_to 2497
  119.5031  275.8966  308.3794 H   0  0  0  0  0  0  0  0  0  0  0  0  # atno 2539 bound_to 2525
  117.8768  277.2192  308.9416 H   0  0  0  0  0  0  0  0  0  0  0  0  # atno 2572 bound_to 2558
  115.1566  278.4996  308.1231 H   0  0  0  0  0  0  0  0  0  0  0  0  # atno 2600 bound_to 2587
  119.8882  282.4498  303.3385 H   0  0  0  0  0  0  0  0  0  0  0  0  # atno 2608 bound_to 2595
  119.7461  281.0295  304.1818 H   0  0  0  0  0  0  0  0  0  0  0  0  # atno 2609 bound_to 2595
  119.8648  281.0034  302.5280 H   0  0  0  0  0  0  0  0  0  0  0  0  # atno 2610 bound_to 2595
  114.3293  276.8252  306.7706 H   0  0  0  0  0  0  0  0  0  0  0  0  # atno 2640 bound_to 2631
  113.6727  275.4947  308.1366 H   0  0  0  0  0  0  0  0  0  0  0  0  # atno 2668 bound_to 2660
  111.9002  277.6858  308.3915 H   0  0  0  0  0  0  0  0  0  0  0  0  # atno 2706 bound_to 2698
  109.3363  277.3935  306.1389 H   0  0  0  0  0  0  0  0  0  0  0  0  # atno 2728 bound_to 2721
  109.6804  275.1359  305.3422 H   0  0  0  0  0  0  0  0  0  0  0  0  # atno 2756 bound_to 2749
  108.7093  273.5462  306.8378 H   0  0  0  0  0  0  0  0  0  0  0  0  # atno 2785 bound_to 2776
  108.8774  274.0995  315.3041 LP  0  0  0  0  0  0  0  0  0  0  0  0  # atno 13465 bound_to 1382
  107.9531  274.0526  316.7681 LP  0  0  0  0  0  0  0  0  0  0  0  0  # atno 13466 bound_to 1382
  105.0966  275.4246  318.2803 LP  0  0  0  0  0  0  0  0  0  0  0  0  # atno 13467 bound_to 1385
  105.8821  276.4551  317.2865 LP  0  0  0  0  0  0  0  0  0  0  0  0  # atno 13468 bound_to 1385
  106.1813  275.4993  313.6120 LP  0  0  0  0  0  0  0  0  0  0  0  0  # atno 13469 bound_to 1409
  110.6976  275.9138  315.1532 LP  0  0  0  0  0  0  0  0  0  0  0  0  # atno 13470 bound_to 1412
  110.6946  277.6235  314.8758 LP  0  0  0  0  0  0  0  0  0  0  0  0  # atno 13471 bound_to 1412
  108.4278  276.3481  315.6657 LP  0  0  0  0  0  0  0  0  0  0  0  0  # atno 13472 bound_to 1452
  110.6159  278.3984  318.5713 LP  0  0  0  0  0  0  0  0  0  0  0  0  # atno 13473 bound_to 1455
  110.7713  276.8009  319.2223 LP  0  0  0  0  0  0  0  0  0  0  0  0  # atno 13474 bound_to 1455
  107.9383  276.4402  318.4564 LP  0  0  0  0  0  0  0  0  0  0  0  0  # atno 13479 bound_to 1477
  111.4366  273.7512  319.9229 LP  0  0  0  0  0  0  0  0  0  0  0  0  # atno 13480 bound_to 1480
  112.3147  273.6659  318.4324 LP  0  0  0  0  0  0  0  0  0  0  0  0  # atno 13481 bound_to 1480
  110.4240  275.0419  317.0695 LP  0  0  0  0  0  0  0  0  0  0  0  0  # atno 13482 bound_to 1510
  112.6494  274.2170  316.2143 LP  0  0  0  0  0  0  0  0  0  0  0  0  # atno 13483 bound_to 1551
  116.9941  275.6736  316.5914 LP  0  0  0  0  0  0  0  0  0  0  0  0  # atno 13484 bound_to 1554
  116.3103  274.0948  316.3918 LP  0  0  0  0  0  0  0  0  0  0  0  0  # atno 13485 bound_to 1554
  124.2123  280.0346  309.3352 LP  0  0  0  0  0  0  0  0  0  0  0  0  # atno 13496 bound_to 2319
  123.8172  278.3867  309.6936 LP  0  0  0  0  0  0  0  0  0  0  0  0  # atno 13497 bound_to 2319
  122.7382  275.3713  309.7531 LP  0  0  0  0  0  0  0  0  0  0  0  0  # atno 13498 bound_to 2428
  119.0893  277.0363  309.5474 LP  0  0  0  0  0  0  0  0  0  0  0  0  # atno 13499 bound_to 2431
  119.1303  277.9332  311.0285 LP  0  0  0  0  0  0  0  0  0  0  0  0  # atno 13500 bound_to 2431
  121.3848  278.7483  310.2328 LP  0  0  0  0  0  0  0  0  0  0  0  0  # atno 13501 bound_to 2467
  125.3888  276.2841  312.0519 LP  0  0  0  0  0  0  0  0  0  0  0  0  # atno 13504 bound_to 2287
  125.3388  276.1844  310.3235 LP  0  0  0  0  0  0  0  0  0  0  0  0  # atno 13505 bound_to 2287
  128.3608  277.9934  311.3770 LP  0  0  0  0  0  0  0  0  0  0  0  0  # atno 13506 bound_to 2316
  125.8878  278.0816  309.2701 LP  0  0  0  0  0  0  0  0  0  0  0  0  # atno 13507 bound_to 2351
  122.8794  278.0121  306.8282 LP  0  0  0  0  0  0  0  0  0  0  0  0  # atno 13508 bound_to 2354
  122.8635  276.3165  306.4749 LP  0  0  0  0  0  0  0  0  0  0  0  0  # atno 13509 bound_to 2354
  125.2343  276.3907  308.9129 LP  0  0  0  0  0  0  0  0  0  0  0  0  # atno 13510 bound_to 2383
  121.0993  274.1897  309.1286 LP  0  0  0  0  0  0  0  0  0  0  0  0  # atno 13511 bound_to 2386
  120.8522  275.7242  308.3641 LP  0  0  0  0  0  0  0  0  0  0  0  0  # atno 13512 bound_to 2386
  117.9474  278.8262  307.8372 LP  0  0  0  0  0  0  0  0  0  0  0  0  # atno 13513 bound_to 2470
  118.3247  278.7260  306.1497 LP  0  0  0  0  0  0  0  0  0  0  0  0  # atno 13514 bound_to 2470
  121.2649  277.9076  306.5861 LP  0  0  0  0  0  0  0  0  0  0  0  0  # atno 13517 bound_to 2497
  116.7344  275.9721  309.3846 LP  0  0  0  0  0  0  0  0  0  0  0  0  # atno 13518 bound_to 2558
  118.8671  275.1968  306.9074 LP  0  0  0  0  0  0  0  0  0  0  0  0  # atno 13519 bound_to 2525
  116.6374  278.3334  307.2058 LP  0  0  0  0  0  0  0  0  0  0  0  0  # atno 13520 bound_to 2587
  115.1019  274.8186  308.0907 LP  0  0  0  0  0  0  0  0  0  0  0  0  # atno 13521 bound_to 2528
  114.7766  275.5746  309.6147 LP  0  0  0  0  0  0  0  0  0  0  0  0  # atno 13522 bound_to 2528
  113.4268  277.9771  309.4202 LP  0  0  0  0  0  0  0  0  0  0  0  0  # atno 13523 bound_to 2561
  113.2344  278.5386  307.7931 LP  0  0  0  0  0  0  0  0  0  0  0  0  # atno 13524 bound_to 2561
  110.8383  276.5097  307.6524 LP  0  0  0  0  0  0  0  0  0  0  0  0  # atno 13525 bound_to 2698
  112.6275  275.0142  306.8234 LP  0  0  0  0  0  0  0  0  0  0  0  0  # atno 13526 bound_to 2660
  108.7310  276.6068  307.8376 LP  0  0  0  0  0  0  0  0  0  0  0  0  # atno 13527 bound_to 2663
  109.0505  275.2689  308.8902 LP  0  0  0  0  0  0  0  0  0  0  0  0  # atno 13528 bound_to 2663
  112.1467  276.9566  305.5160 LP  0  0  0  0  0  0  0  0  0  0  0  0  # atno 13529 bound_to 2590
  112.5317  278.5638  304.9976 LP  0  0  0  0  0  0  0  0  0  0  0  0  # atno 13530 bound_to 2590
  115.2315  276.6782  305.2792 LP  0  0  0  0  0  0  0  0  0  0  0  0  # atno 13531 bound_to 2631
  107.5804  278.4833  307.1726 LP  0  0  0  0  0  0  0  0  0  0  0  0  # atno 13532 bound_to 2701
  107.5647  278.5047  305.4408 LP  0  0  0  0  0  0  0  0  0  0  0  0  # atno 13533 bound_to 2701
  110.8254  277.8019  305.3121 LP  0  0  0  0  0  0  0  0  0  0  0  0  # atno 13534 bound_to 2721
  113.4733  272.3364  317.0249 LP  0  0  0  0  0  0  0  0  0  0  0  0  # atno 13535 bound_to 1513
  114.4922  273.3210  316.0286 LP  0  0  0  0  0  0  0  0  0  0  0  0  # atno 13536 bound_to 1513
  111.4842  273.7277  305.4917 LP  0  0  0  0  0  0  0  0  0  0  0  0  # atno 13537 bound_to 2634
  110.6911  275.0898  306.2098 LP  0  0  0  0  0  0  0  0  0  0  0  0  # atno 13538 bound_to 2634
  107.3106  274.5865  306.6559 LP  0  0  0  0  0  0  0  0  0  0  0  0  # atno 13539 bound_to 2776
  108.0983  271.0439  310.5343 LP  0  0  0  0  0  0  0  0  0  0  0  0  # atno 13540 bound_to 2779
  107.4756  272.5946  310.9900 LP  0  0  0  0  0  0  0  0  0  0  0  0  # atno 13541 bound_to 2779

> <Gold.Score>
     Fitness  S(hb_ext) S(vdw_ext)  S(hb_int)    S(int)      intcor
     22.85       6.36      13.03       0.00      -1.43      -0.76

> <Gold.Goldscore.Fitness>
22.8471

> <Gold.Goldscore.Internal.Vdw>
-1.7890

> <Gold.Goldscore.Internal.Torsion>
-0.4006

> <Gold.Goldscore.External.Vdw>
13.0312

> <Gold.Goldscore.Internal.HBond>
0.0000

> <Gold.Goldscore.External.HBond>
6.3603

> <Gold.Goldscore.Internal.Correction>
-0.7585

> <Gold.Goldscore.Hbonds>
donor molecule, donor type, donor heavy atom, donor atom, acceptor molecule, acceptor atom, score
      L1  H     8    22       P1  1412  0.18
      L1  H    10    23       P1  2565  1.00

> <Gold.Goldscore.Internal.Vdw.Weighted>
-1.7890

> <Gold.Goldscore.Internal.Torsion.Weighted>
-0.4006

> <Gold.Goldscore.External.Vdw.Weighted>
17.9179

> <Gold.Goldscore.Internal.HBond.Weighted>
0.0000

> <Gold.Goldscore.External.HBond.Weighted>
6.3603

> <Gold.Goldscore.Internal.Correction.Weighted>
-0.7585

> <Gold.Rescore>
     Score     S(PLP)   S(hbond)     S(cho)   S(metal)  DE(clash)   DE(tors)     intcor
     12.38     -10.78       1.00       0.00       0.00       1.34       0.03       ----

> <Gold.PLP.Fitness>
12.3835

> <Gold.PLP.PLP>
-10.7818

> <Gold.PLP.part.hbond>
-1.5938

> <Gold.PLP.part.metal>
0.0000

> <Gold.PLP.part.buried>
-4.8539

> <Gold.PLP.part.nonpolar>
-7.0350

> <Gold.PLP.part.repulsive>
1.7123

> <Gold.PLP.ligand.clash>
1.3406

> <Gold.PLP.ligand.torsion>
0.0289

> <Gold.PLP.Chemscore.Hbond>
1.0000

> <Gold.PLP.Chemscore.CHOScore>
0.0000

> <Gold.PLP.Chemscore.Metal>
0.0000

> <Gold.Chemscore.Hbonds>
donor molecule, donor type, donor heavy atom, donor atom, acceptor molecule, acceptor atom, score
      L1  H     8    22       P1  1412  0.05
      L1  H    10    23       P1  2565  0.71

> <Gold.PLP.Chemscore.Internal.Correction>
   9.000000E+99

