#       Name:                CT1002167954
#       Creating user name   hitesit
#       Creation time:       Sun Apr 16 20:18:42 2023


#       File generated by GOLD software.
#

@<TRIPOS>MOLECULE
CT1002167954|ligand_prepared|mol2|1|dock1
    29    30     1
SMALL
NO_CHARGES


@<TRIPOS>ATOM
      1 C1         111.5650 282.7654 313.7763 C.3            1 RES1               0.0000
      2 C2         112.9389 282.2676 314.2697 C.ar           1 RES1               0.0000
      3 C3         111.4627 282.3567 312.3097 C.2            1 RES1               0.0000
      4 C4         110.5248 282.1108 314.6786 C.2            1 RES1               0.0000
      5 C5         111.3843 284.2982 313.8728 C.3            1 RES1               0.0000
      6 C6         113.6937 281.3898 313.4974 C.ar           1 RES1               0.0000
      7 C7         113.4649 282.6787 315.4916 C.ar           1 RES1               0.0000
      8 N8         110.6347 281.3184 311.9995 N.am           1 RES1               0.0000
      9 O9         112.1284 282.9111 311.4439 O.2            1 RES1               0.0000
     10 N10        109.6619 281.2083 314.1140 N.am           1 RES1               0.0000
     11 O11        110.4554 282.3559 315.8766 O.2            1 RES1               0.0000
     12 C12        110.0839 284.8017 313.2664 C.3            1 RES1               0.0000
     13 C13        114.9309 280.9415 313.9295 C.ar           1 RES1               0.0000
     14 C14        114.7022 282.2289 315.9219 C.ar           1 RES1               0.0000
     15 C15        109.6896 280.7595 312.8217 C.2            1 RES1               0.0000
     16 C16        115.4361 281.3610 315.1416 C.ar           1 RES1               0.0000
     17 O17        108.9142 279.9053 312.4019 O.2            1 RES1               0.0000
     18 H18        111.4184 284.5920 314.9291 H              1 RES1               0.0000
     19 H19        112.2240 284.7856 313.3620 H              1 RES1               0.0000
     20 H20        113.3113 281.0468 312.5418 H              1 RES1               0.0000
     21 H21        112.9046 283.3603 316.1225 H              1 RES1               0.0000
     22 H22        110.7268 280.9206 311.0702 H              1 RES1               0.0000
     23 H23        108.9311 280.8368 314.7126 H              1 RES1               0.0000
     24 H24        110.0076 285.8829 313.3607 H              1 RES1               0.0000
     25 H25        110.0277 284.5489 312.2097 H              1 RES1               0.0000
     26 H26        109.2269 284.3564 313.7675 H              1 RES1               0.0000
     27 H27        115.5039 280.2574 313.3123 H              1 RES1               0.0000
     28 H28        115.0957 282.5612 316.8769 H              1 RES1               0.0000
     29 H29        116.4055 281.0099 315.4797 H              1 RES1               0.0000
@<TRIPOS>BOND
    1    1    2 1     
    2    1    3 1     
    3    1    4 1     
    4    1    5 1     
    5    2    6 ar    
    6    2    7 ar    
    7    3    8 1     
    8    3    9 2     
    9    4   10 1     
   10    4   11 2     
   11    5   12 1     
   12    5   18 1     
   13    5   19 1     
   14    6   13 ar    
   15    6   20 1     
   16    7   14 ar    
   17    7   21 1     
   18    8   15 1     
   19    8   22 1     
   20   10   15 1     
   21   10   23 1     
   22   12   24 1     
   23   12   25 1     
   24   12   26 1     
   25   13   16 ar    
   26   13   27 1     
   27   14   16 ar    
   28   14   28 1     
   29   15   17 2     
   30   16   29 1     
@<TRIPOS>SUBSTRUCTURE
      1 RES1           1
@<TRIPOS>SET
DONOR_HYDROGENS      STATIC     ATOMS    <user>   **** ""
2 22 23
ATOM$RED        STATIC     ATOMS    COLORGROUP SYSTEM
2 22 23
@<TRIPOS>COMMENT
> <Gold.Version>
2022.3.0

> <Gold.Id.Protein>
unknown|5adg_clean|pdb

> <Gold.Protein.RotatedTorsions>
[ 1392 1385 1383 1380 ] final  150.52 input   60.03 | X-H torsion
[ 1421 1409 1410 1411 ] final    2.96 input  129.35 | X-H torsion
[ 1464 1452 1453 1454 ] final -169.29 input  108.99 | X-H torsion
[ 1488 1477 1478 1479 ] final    1.80 input  100.07 | X-H torsion
[ 1529 1510 1511 1512 ] final  -42.11 input  113.76 | X-H torsion
[ 1564 1551 1552 1553 ] final  -61.73 input  123.58 | X-H torsion
[ 1694 1683 1682 1681 ] final  -15.68 input   60.00 | X-H torsion
[ 2447 2428 2429 2430 ] final    7.66 input  119.94 | X-H torsion
[ 2477 2467 2468 2469 ] final  176.83 input  117.54 | X-H torsion
[ 2324 2316 2317 2318 ] final  -17.47 input  118.58 | X-H torsion
[ 2362 2351 2352 2353 ] final -172.42 input  116.99 | X-H torsion
[ 2407 2383 2384 2385 ] final  106.02 input  115.65 | X-H torsion
[ 2506 2497 2498 2499 ] final   71.06 input  121.55 | X-H torsion
[ 2572 2558 2559 2560 ] final  -71.72 input  118.05 | X-H torsion
[ 2539 2525 2526 2527 ] final  -52.38 input  116.25 | X-H torsion
[ 2600 2587 2588 2589 ] final  176.05 input  123.81 | X-H torsion
[ 2706 2698 2699 2700 ] final  -78.25 input  119.89 | X-H torsion
[ 2668 2660 2661 2662 ] final   31.85 input  116.13 | X-H torsion
[ 2640 2631 2632 2633 ] final   53.93 input  117.28 | X-H torsion
[ 2728 2721 2722 2723 ] final -159.06 input   88.34 | X-H torsion
[ 2785 2776 2777 2778 ] final -175.24 input -114.77 | X-H torsion
[ 2608 2595 2594 2593 ] final   72.59 input   60.00 | X-H torsion
[ 1684 1675 1676 1677 ] final  -17.78 input  120.12 | X-H torsion
[ 1635 1616 1617 1618 ] final  133.53 input  110.97 | X-H torsion
[ 2756 2749 2750 2751 ] final   70.33 input   47.81 | X-H torsion
[ 13465 1382 1381 1380 ] final  158.88 input    0.00 | X-H torsion
[ 13470 1412 1411 1410 ] final  -52.04 input    0.00 | X-H torsion
[ 13473 1455 1454 1453 ] final  144.73 input   -0.00 | X-H torsion
[ 13480 1480 1479 1478 ] final -140.70 input   -0.00 | X-H torsion
[ 13484 1554 1553 1552 ] final   68.86 input    0.00 | X-H torsion
[ 13496 2319 2318 2317 ] final -106.93 input   -0.00 | X-H torsion
[ 13499 2431 2430 2429 ] final    4.23 input    0.00 | X-H torsion
[ 13504 2287 2286 2285 ] final -146.29 input   -0.00 | X-H torsion
[ 13508 2354 2353 2352 ] final   93.90 input    0.00 | X-H torsion
[ 13511 2386 2385 2384 ] final  171.42 input    0.00 | X-H torsion
[ 13513 2470 2469 2468 ] final   58.67 input   -0.00 | X-H torsion
[ 13521 2528 2527 2526 ] final  169.67 input    0.00 | X-H torsion
[ 13523 2561 2560 2559 ] final   34.38 input   -0.00 | X-H torsion
[ 13527 2663 2662 2661 ] final  -18.66 input    0.00 | X-H torsion
[ 13529 2590 2589 2588 ] final  143.07 input   -0.00 | X-H torsion
[ 13532 2701 2700 2699 ] final  106.56 input    0.00 | X-H torsion
[ 13535 1513 1512 1511 ] final -110.10 input    0.00 | X-H torsion
[ 13537 2634 2633 2632 ] final  121.76 input    0.00 | X-H torsion
[ 13540 2779 2778 2777 ] final  -45.65 input    0.00 | X-H torsion

> <Gold.Protein.ActiveResidues>
 THR355  LYS356  ASP357  GLN358  LEU359  PHE360  PRO361  LEU362  ALA363  LYS364 
 ASP368  PHE377  GLY378  HIS382  MET383  GLU384  ARG385  LEU386  GLU387  GLU388 
 VAL389  ASN390  LYS391  GLU392  ILE393  ASP394  THR395  THR396  SER397 

> <Gold.Protein.RotatedAtoms>
  105.3854  276.4394  317.6407 H   0  0  0  0  0  0  0  0  0  0  0  0  # atno 1392 bound_to 1385
  106.7344  275.4591  315.1165 H   0  0  0  0  0  0  0  0  0  0  0  0  # atno 1421 bound_to 1409
  107.8583  277.8279  315.0137 H   0  0  0  0  0  0  0  0  0  0  0  0  # atno 1464 bound_to 1452
  109.0960  276.0188  317.2183 H   0  0  0  0  0  0  0  0  0  0  0  0  # atno 1488 bound_to 1477
  110.6230  274.4640  317.8744 H   0  0  0  0  0  0  0  0  0  0  0  0  # atno 1529 bound_to 1510
  112.6411  274.0905  315.9395 H   0  0  0  0  0  0  0  0  0  0  0  0  # atno 1564 bound_to 1551
  114.1497  273.7956  319.1271 H   0  0  0  0  0  0  0  0  0  0  0  0  # atno 1635 bound_to 1616
  118.4118  272.8157  316.8264 H   0  0  0  0  0  0  0  0  0  0  0  0  # atno 1684 bound_to 1675
  122.1357  277.6861  319.7268 H   0  0  0  0  0  0  0  0  0  0  0  0  # atno 1694 bound_to 1683
  123.3719  277.8993  318.6440 H   0  0  0  0  0  0  0  0  0  0  0  0  # atno 1695 bound_to 1683
  123.0177  279.0893  319.7422 H   0  0  0  0  0  0  0  0  0  0  0  0  # atno 1696 bound_to 1683
  127.3042  276.9814  310.4286 H   0  0  0  0  0  0  0  0  0  0  0  0  # atno 2324 bound_to 2316
  126.9490  279.0593  308.3937 H   0  0  0  0  0  0  0  0  0  0  0  0  # atno 2362 bound_to 2351
  125.6241  275.9887  308.6747 H   0  0  0  0  0  0  0  0  0  0  0  0  # atno 2407 bound_to 2383
  122.9394  276.5359  309.1841 H   0  0  0  0  0  0  0  0  0  0  0  0  # atno 2447 bound_to 2428
  121.9820  279.0152  309.9160 H   0  0  0  0  0  0  0  0  0  0  0  0  # atno 2477 bound_to 2467
  120.9723  277.0609  307.6831 H   0  0  0  0  0  0  0  0  0  0  0  0  # atno 2506 bound_to 2497
  118.5848  275.8148  307.0340 H   0  0  0  0  0  0  0  0  0  0  0  0  # atno 2539 bound_to 2525
  116.6582  275.9749  309.1849 H   0  0  0  0  0  0  0  0  0  0  0  0  # atno 2572 bound_to 2558
  116.3499  279.1717  307.5090 H   0  0  0  0  0  0  0  0  0  0  0  0  # atno 2600 bound_to 2587
  119.8703  281.0545  302.4997 H   0  0  0  0  0  0  0  0  0  0  0  0  # atno 2608 bound_to 2595
  119.8836  282.4485  303.3969 H   0  0  0  0  0  0  0  0  0  0  0  0  # atno 2609 bound_to 2595
  119.7452  280.9782  304.1513 H   0  0  0  0  0  0  0  0  0  0  0  0  # atno 2610 bound_to 2595
  114.8308  276.5088  306.8666 H   0  0  0  0  0  0  0  0  0  0  0  0  # atno 2640 bound_to 2631
  113.0402  276.1195  307.3593 H   0  0  0  0  0  0  0  0  0  0  0  0  # atno 2668 bound_to 2660
  110.6903  276.6987  308.4403 H   0  0  0  0  0  0  0  0  0  0  0  0  # atno 2706 bound_to 2698
  110.0713  278.4724  305.5278 H   0  0  0  0  0  0  0  0  0  0  0  0  # atno 2728 bound_to 2721
  109.6709  275.1395  305.3576 H   0  0  0  0  0  0  0  0  0  0  0  0  # atno 2756 bound_to 2749
  107.4327  274.7702  306.7692 H   0  0  0  0  0  0  0  0  0  0  0  0  # atno 2785 bound_to 2776
  108.9099  274.3218  315.3691 LP  0  0  0  0  0  0  0  0  0  0  0  0  # atno 13465 bound_to 1382
  107.9206  273.8302  316.7031 LP  0  0  0  0  0  0  0  0  0  0  0  0  # atno 13466 bound_to 1382
  106.6033  275.4518  317.2061 LP  0  0  0  0  0  0  0  0  0  0  0  0  # atno 13467 bound_to 1385
  105.4533  274.9283  318.2405 LP  0  0  0  0  0  0  0  0  0  0  0  0  # atno 13468 bound_to 1385
  106.4771  274.8906  313.4820 LP  0  0  0  0  0  0  0  0  0  0  0  0  # atno 13469 bound_to 1409
  110.7130  275.9114  314.8926 LP  0  0  0  0  0  0  0  0  0  0  0  0  # atno 13470 bound_to 1412
  110.6792  277.6259  315.1364 LP  0  0  0  0  0  0  0  0  0  0  0  0  # atno 13471 bound_to 1412
  108.1182  276.2988  315.8282 LP  0  0  0  0  0  0  0  0  0  0  0  0  # atno 13472 bound_to 1452
  110.4088  277.1594  319.5860 LP  0  0  0  0  0  0  0  0  0  0  0  0  # atno 13473 bound_to 1455
  110.9785  278.0399  318.2076 LP  0  0  0  0  0  0  0  0  0  0  0  0  # atno 13474 bound_to 1455
  107.9777  276.4830  318.4787 LP  0  0  0  0  0  0  0  0  0  0  0  0  # atno 13479 bound_to 1477
  112.3721  273.9617  318.5148 LP  0  0  0  0  0  0  0  0  0  0  0  0  # atno 13480 bound_to 1480
  111.3791  273.4554  319.8405 LP  0  0  0  0  0  0  0  0  0  0  0  0  # atno 13481 bound_to 1480
  109.3583  274.2018  316.6955 LP  0  0  0  0  0  0  0  0  0  0  0  0  # atno 13482 bound_to 1510
  111.9667  275.6675  315.6237 LP  0  0  0  0  0  0  0  0  0  0  0  0  # atno 13483 bound_to 1551
  116.8735  275.5683  316.0089 LP  0  0  0  0  0  0  0  0  0  0  0  0  # atno 13484 bound_to 1554
  116.4309  274.2001  316.9743 LP  0  0  0  0  0  0  0  0  0  0  0  0  # atno 13485 bound_to 1554
  123.8076  278.3698  309.5217 LP  0  0  0  0  0  0  0  0  0  0  0  0  # atno 13496 bound_to 2319
  124.2219  280.0515  309.5071 LP  0  0  0  0  0  0  0  0  0  0  0  0  # atno 13497 bound_to 2319
  123.4975  275.6224  310.5667 LP  0  0  0  0  0  0  0  0  0  0  0  0  # atno 13498 bound_to 2428
  119.2396  276.9338  310.9434 LP  0  0  0  0  0  0  0  0  0  0  0  0  # atno 13499 bound_to 2431
  118.9800  278.0357  309.6325 LP  0  0  0  0  0  0  0  0  0  0  0  0  # atno 13500 bound_to 2431
  121.3383  277.5400  309.2324 LP  0  0  0  0  0  0  0  0  0  0  0  0  # atno 13501 bound_to 2467
  125.1958  276.8384  310.5904 LP  0  0  0  0  0  0  0  0  0  0  0  0  # atno 13504 bound_to 2287
  125.5318  275.6301  311.7850 LP  0  0  0  0  0  0  0  0  0  0  0  0  # atno 13505 bound_to 2287
  128.2936  277.9592  311.4886 LP  0  0  0  0  0  0  0  0  0  0  0  0  # atno 13506 bound_to 2316
  126.1414  277.7262  309.1834 LP  0  0  0  0  0  0  0  0  0  0  0  0  # atno 13507 bound_to 2351
  123.1336  276.6807  305.9827 LP  0  0  0  0  0  0  0  0  0  0  0  0  # atno 13508 bound_to 2354
  122.6094  277.6479  307.3204 LP  0  0  0  0  0  0  0  0  0  0  0  0  # atno 13509 bound_to 2354
  124.5632  276.6621  307.4618 LP  0  0  0  0  0  0  0  0  0  0  0  0  # atno 13510 bound_to 2383
  120.6743  275.3449  309.4594 LP  0  0  0  0  0  0  0  0  0  0  0  0  # atno 13511 bound_to 2386
  121.2773  274.5690  308.0332 LP  0  0  0  0  0  0  0  0  0  0  0  0  # atno 13512 bound_to 2386
  118.3685  279.5547  306.6938 LP  0  0  0  0  0  0  0  0  0  0  0  0  # atno 13513 bound_to 2470
  117.9035  277.9976  307.2931 LP  0  0  0  0  0  0  0  0  0  0  0  0  # atno 13514 bound_to 2470
  120.3787  278.3824  306.7026 LP  0  0  0  0  0  0  0  0  0  0  0  0  # atno 13517 bound_to 2497
  117.9209  277.1835  309.1478 LP  0  0  0  0  0  0  0  0  0  0  0  0  # atno 13518 bound_to 2558
  119.7589  275.2763  308.2141 LP  0  0  0  0  0  0  0  0  0  0  0  0  # atno 13519 bound_to 2525
  115.4803  277.6817  307.8012 LP  0  0  0  0  0  0  0  0  0  0  0  0  # atno 13520 bound_to 2587
  114.6911  275.9404  309.2203 LP  0  0  0  0  0  0  0  0  0  0  0  0  # atno 13521 bound_to 2528
  115.1875  274.4528  308.4850 LP  0  0  0  0  0  0  0  0  0  0  0  0  # atno 13522 bound_to 2528
  113.4281  278.5863  309.4020 LP  0  0  0  0  0  0  0  0  0  0  0  0  # atno 13523 bound_to 2561
  113.2331  277.9294  307.8113 LP  0  0  0  0  0  0  0  0  0  0  0  0  # atno 13524 bound_to 2561
  112.0174  277.4718  307.6048 LP  0  0  0  0  0  0  0  0  0  0  0  0  # atno 13525 bound_to 2698
  113.2483  274.4010  307.5864 LP  0  0  0  0  0  0  0  0  0  0  0  0  # atno 13526 bound_to 2660
  109.0664  275.0898  308.3715 LP  0  0  0  0  0  0  0  0  0  0  0  0  # atno 13527 bound_to 2663
  108.7151  276.7858  308.3563 LP  0  0  0  0  0  0  0  0  0  0  0  0  # atno 13528 bound_to 2663
  112.3952  277.0707  304.7357 LP  0  0  0  0  0  0  0  0  0  0  0  0  # atno 13529 bound_to 2590
  112.2832  278.4496  305.7779 LP  0  0  0  0  0  0  0  0  0  0  0  0  # atno 13530 bound_to 2590
  114.7443  276.9856  305.1859 LP  0  0  0  0  0  0  0  0  0  0  0  0  # atno 13531 bound_to 2631
  107.6968  279.1225  305.7239 LP  0  0  0  0  0  0  0  0  0  0  0  0  # atno 13532 bound_to 2701
  107.4483  277.8656  306.8895 LP  0  0  0  0  0  0  0  0  0  0  0  0  # atno 13533 bound_to 2701
  110.1168  276.7618  305.9013 LP  0  0  0  0  0  0  0  0  0  0  0  0  # atno 13534 bound_to 2721
  114.1170  273.3104  317.2339 LP  0  0  0  0  0  0  0  0  0  0  0  0  # atno 13535 bound_to 1513
  113.8485  272.3471  315.8196 LP  0  0  0  0  0  0  0  0  0  0  0  0  # atno 13536 bound_to 1513
  111.0863  273.7389  306.3997 LP  0  0  0  0  0  0  0  0  0  0  0  0  # atno 13537 bound_to 2634
  111.0890  275.0785  305.3018 LP  0  0  0  0  0  0  0  0  0  0  0  0  # atno 13538 bound_to 2634
  108.5373  273.4103  306.7218 LP  0  0  0  0  0  0  0  0  0  0  0  0  # atno 13539 bound_to 2776
  107.7149  272.6245  311.0726 LP  0  0  0  0  0  0  0  0  0  0  0  0  # atno 13540 bound_to 2779
  107.8591  271.0140  310.4517 LP  0  0  0  0  0  0  0  0  0  0  0  0  # atno 13541 bound_to 2779

> <Gold.Score>
     Fitness  S(hb_ext) S(vdw_ext)  S(hb_int)    S(int)      intcor
     17.35       5.75       9.83       0.00      -1.91      -0.76

> <Gold.Goldscore.Fitness>
17.3534

> <Gold.Goldscore.Internal.Vdw>
-2.2603

> <Gold.Goldscore.Internal.Torsion>
-0.4164

> <Gold.Goldscore.External.Vdw>
9.8283

> <Gold.Goldscore.Internal.HBond>
0.0000

> <Gold.Goldscore.External.HBond>
5.7513

> <Gold.Goldscore.Internal.Correction>
-0.7650

> <Gold.Goldscore.Hbonds>
donor molecule, donor type, donor heavy atom, donor atom, acceptor molecule, acceptor atom, score
      L1  H     8    22       P1  2704  0.96

> <Gold.Goldscore.Internal.Vdw.Weighted>
-2.2603

> <Gold.Goldscore.Internal.Torsion.Weighted>
-0.4164

> <Gold.Goldscore.External.Vdw.Weighted>
13.5139

> <Gold.Goldscore.Internal.HBond.Weighted>
0.0000

> <Gold.Goldscore.External.HBond.Weighted>
5.7513

> <Gold.Goldscore.Internal.Correction.Weighted>
-0.7650

> <Gold.Rescore>
     Score     S(PLP)   S(hbond)     S(cho)   S(metal)  DE(clash)   DE(tors)     intcor
     15.89     -11.96       2.00       0.00       0.00       2.06       0.01       ----

> <Gold.PLP.Fitness>
15.8949

> <Gold.PLP.PLP>
-11.9640

> <Gold.PLP.part.hbond>
-2.0000

> <Gold.PLP.part.metal>
0.0000

> <Gold.PLP.part.buried>
-1.6505

> <Gold.PLP.part.nonpolar>
-9.7154

> <Gold.PLP.part.repulsive>
0.3898

> <Gold.PLP.ligand.clash>
2.0555

> <Gold.PLP.ligand.torsion>
0.0068

> <Gold.PLP.Chemscore.Hbond>
2.0000

> <Gold.PLP.Chemscore.CHOScore>
0.0000

> <Gold.PLP.Chemscore.Metal>
0.0000

> <Gold.Chemscore.Hbonds>
donor molecule, donor type, donor heavy atom, donor atom, acceptor molecule, acceptor atom, score
      L1  H     8    22       P1  2704  1.00
      L1  H    10    23       P1  1458  0.60

> <Gold.PLP.Chemscore.Internal.Correction>
   9.000000E+99

