#       Name:                CT1002167954
#       Creating user name   hitesit
#       Creation time:       Sun Apr 16 20:18:44 2023


#       File generated by GOLD software.
#

@<TRIPOS>MOLECULE
CT1002167954|ligand_prepared|mol2|1|dock4
    29    30     1
SMALL
NO_CHARGES


@<TRIPOS>ATOM
      1 C1         112.0907 281.6832 312.8864 C.3            1 RES1               0.0000
      2 C2         113.4429 282.0358 313.5392 C.ar           1 RES1               0.0000
      3 C3         112.4179 281.0649 311.5303 C.2            1 RES1               0.0000
      4 C4         111.3868 280.7337 313.8495 C.2            1 RES1               0.0000
      5 C5         111.1689 282.9041 312.6601 C.3            1 RES1               0.0000
      6 C6         114.1084 281.1087 314.3355 C.ar           1 RES1               0.0000
      7 C7         114.0373 283.2809 313.3524 C.ar           1 RES1               0.0000
      8 N8         112.2619 279.7167 311.3964 N.am           1 RES1               0.0000
      9 O9         112.8441 281.7442 310.6045 O.2            1 RES1               0.0000
     10 N10        111.1713 279.4446 313.4376 N.am           1 RES1               0.0000
     11 O11        111.0317 281.0856 314.9677 O.2            1 RES1               0.0000
     12 C12        109.7431 282.5343 312.2829 C.3            1 RES1               0.0000
     13 C13        115.3257 281.4140 314.9216 C.ar           1 RES1               0.0000
     14 C14        115.2546 283.5843 313.9396 C.ar           1 RES1               0.0000
     15 C15        111.6043 278.8848 312.2666 C.2            1 RES1               0.0000
     16 C16        115.8997 282.6517 314.7237 C.ar           1 RES1               0.0000
     17 O17        111.4191 277.7029 311.9908 O.2            1 RES1               0.0000
     18 H18        111.1469 283.5049 313.5776 H              1 RES1               0.0000
     19 H19        111.5952 283.5254 311.8627 H              1 RES1               0.0000
     20 H20        113.6709 280.1304 314.5046 H              1 RES1               0.0000
     21 H21        113.5474 284.0306 312.7404 H              1 RES1               0.0000
     22 H22        112.6721 279.2874 310.5732 H              1 RES1               0.0000
     23 H23        110.6385 278.8471 314.0616 H              1 RES1               0.0000
     24 H24        109.1391 283.4272 312.1356 H              1 RES1               0.0000
     25 H25        109.7253 281.9573 311.3606 H              1 RES1               0.0000
     26 H26        109.2797 281.9369 313.0654 H              1 RES1               0.0000
     27 H27        115.8287 280.6771 315.5389 H              1 RES1               0.0000
     28 H28        115.7024 284.5599 313.7817 H              1 RES1               0.0000
     29 H29        116.8535 282.8906 315.1825 H              1 RES1               0.0000
@<TRIPOS>BOND
    1    1    2 1     
    2    1    3 1     
    3    1    4 1     
    4    1    5 1     
    5    2    6 ar    
    6    2    7 ar    
    7    3    8 1     
    8    3    9 2     
    9    4   10 1     
   10    4   11 2     
   11    5   12 1     
   12    5   18 1     
   13    5   19 1     
   14    6   13 ar    
   15    6   20 1     
   16    7   14 ar    
   17    7   21 1     
   18    8   15 1     
   19    8   22 1     
   20   10   15 1     
   21   10   23 1     
   22   12   24 1     
   23   12   25 1     
   24   12   26 1     
   25   13   16 ar    
   26   13   27 1     
   27   14   16 ar    
   28   14   28 1     
   29   15   17 2     
   30   16   29 1     
@<TRIPOS>SUBSTRUCTURE
      1 RES1           1
@<TRIPOS>SET
DONOR_HYDROGENS      STATIC     ATOMS    <user>   **** ""
2 22 23
ATOM$RED        STATIC     ATOMS    COLORGROUP SYSTEM
2 22 23
@<TRIPOS>COMMENT
> <Gold.Version>
2022.3.0

> <Gold.Id.Protein>
unknown|5adg_clean|pdb

> <Gold.Protein.RotatedTorsions>
[ 1392 1385 1383 1380 ] final   80.12 input   60.03 | X-H torsion
[ 1421 1409 1410 1411 ] final   31.08 input  129.35 | X-H torsion
[ 1464 1452 1453 1454 ] final  162.52 input  108.99 | X-H torsion
[ 1488 1477 1478 1479 ] final   74.83 input  100.07 | X-H torsion
[ 1529 1510 1511 1512 ] final   36.29 input  113.76 | X-H torsion
[ 1564 1551 1552 1553 ] final  175.94 input  123.58 | X-H torsion
[ 1694 1683 1682 1681 ] final   93.72 input   60.00 | X-H torsion
[ 2447 2428 2429 2430 ] final   41.00 input  119.94 | X-H torsion
[ 2477 2467 2468 2469 ] final   98.83 input  117.54 | X-H torsion
[ 2324 2316 2317 2318 ] final   48.45 input  118.58 | X-H torsion
[ 2362 2351 2352 2353 ] final  117.08 input  116.99 | X-H torsion
[ 2407 2383 2384 2385 ] final  151.66 input  115.65 | X-H torsion
[ 2506 2497 2498 2499 ] final   63.87 input  121.55 | X-H torsion
[ 2572 2558 2559 2560 ] final -136.32 input  118.05 | X-H torsion
[ 2539 2525 2526 2527 ] final   19.04 input  116.25 | X-H torsion
[ 2600 2587 2588 2589 ] final  -69.15 input  123.81 | X-H torsion
[ 2706 2698 2699 2700 ] final   80.88 input  119.89 | X-H torsion
[ 2668 2660 2661 2662 ] final  112.77 input  116.13 | X-H torsion
[ 2640 2631 2632 2633 ] final -122.68 input  117.28 | X-H torsion
[ 2728 2721 2722 2723 ] final -125.55 input   88.34 | X-H torsion
[ 2785 2776 2777 2778 ] final  117.44 input -114.77 | X-H torsion
[ 2608 2595 2594 2593 ] final  -52.95 input   60.00 | X-H torsion
[ 1684 1675 1676 1677 ] final  -57.81 input  120.12 | X-H torsion
[ 1635 1616 1617 1618 ] final   34.57 input  110.97 | X-H torsion
[ 2756 2749 2750 2751 ] final  167.30 input   47.81 | X-H torsion
[ 13465 1382 1381 1380 ] final  149.01 input    0.00 | X-H torsion
[ 13470 1412 1411 1410 ] final   15.27 input    0.00 | X-H torsion
[ 13473 1455 1454 1453 ] final   75.57 input   -0.00 | X-H torsion
[ 13480 1480 1479 1478 ] final  103.01 input   -0.00 | X-H torsion
[ 13484 1554 1553 1552 ] final   25.17 input    0.00 | X-H torsion
[ 13496 2319 2318 2317 ] final -135.65 input   -0.00 | X-H torsion
[ 13499 2431 2430 2429 ] final  -44.79 input    0.00 | X-H torsion
[ 13504 2287 2286 2285 ] final -119.98 input   -0.00 | X-H torsion
[ 13508 2354 2353 2352 ] final  -23.25 input    0.00 | X-H torsion
[ 13511 2386 2385 2384 ] final  130.41 input    0.00 | X-H torsion
[ 13513 2470 2469 2468 ] final  -75.72 input   -0.00 | X-H torsion
[ 13521 2528 2527 2526 ] final  -28.35 input    0.00 | X-H torsion
[ 13523 2561 2560 2559 ] final   16.07 input   -0.00 | X-H torsion
[ 13527 2663 2662 2661 ] final  170.97 input    0.00 | X-H torsion
[ 13529 2590 2589 2588 ] final  -38.57 input   -0.00 | X-H torsion
[ 13532 2701 2700 2699 ] final -141.51 input    0.00 | X-H torsion
[ 13535 1513 1512 1511 ] final   78.78 input    0.00 | X-H torsion
[ 13537 2634 2633 2632 ] final -178.99 input    0.00 | X-H torsion
[ 13540 2779 2778 2777 ] final  -63.01 input    0.00 | X-H torsion

> <Gold.Protein.ActiveResidues>
 THR355  LYS356  ASP357  GLN358  LEU359  PHE360  PRO361  LEU362  ALA363  LYS364 
 ASP368  PHE377  GLY378  HIS382  MET383  GLU384  ARG385  LEU386  GLU387  GLU388 
 VAL389  ASN390  LYS391  GLU392  ILE393  ASP394  THR395  THR396  SER397 

> <Gold.Protein.RotatedAtoms>
  106.2900  276.1696  317.1178 H   0  0  0  0  0  0  0  0  0  0  0  0  # atno 1392 bound_to 1385
  106.4984  275.7704  314.9331 H   0  0  0  0  0  0  0  0  0  0  0  0  # atno 1421 bound_to 1409
  107.4831  277.7528  315.2203 H   0  0  0  0  0  0  0  0  0  0  0  0  # atno 1464 bound_to 1452
  108.1413  275.6112  317.3894 H   0  0  0  0  0  0  0  0  0  0  0  0  # atno 1488 bound_to 1477
  110.3699  275.0634  316.9624 H   0  0  0  0  0  0  0  0  0  0  0  0  # atno 1529 bound_to 1510
  112.0626  275.1382  314.9770 H   0  0  0  0  0  0  0  0  0  0  0  0  # atno 1564 bound_to 1551
  115.0608  273.9243  318.1494 H   0  0  0  0  0  0  0  0  0  0  0  0  # atno 1635 bound_to 1616
  118.5428  272.8059  316.2337 H   0  0  0  0  0  0  0  0  0  0  0  0  # atno 1684 bound_to 1675
  123.2687  277.7556  318.6551 H   0  0  0  0  0  0  0  0  0  0  0  0  # atno 1694 bound_to 1683
  123.1456  279.0966  319.6210 H   0  0  0  0  0  0  0  0  0  0  0  0  # atno 1695 bound_to 1683
  122.1093  277.8211  319.8378 H   0  0  0  0  0  0  0  0  0  0  0  0  # atno 1696 bound_to 1683
  128.0396  277.5198  310.1116 H   0  0  0  0  0  0  0  0  0  0  0  0  # atno 2324 bound_to 2316
  127.2703  278.0913  308.3906 H   0  0  0  0  0  0  0  0  0  0  0  0  # atno 2362 bound_to 2351
  125.7432  275.7383  308.0498 H   0  0  0  0  0  0  0  0  0  0  0  0  # atno 2407 bound_to 2383
  123.2823  276.8263  309.4220 H   0  0  0  0  0  0  0  0  0  0  0  0  # atno 2447 bound_to 2428
  122.3642  278.4142  309.0579 H   0  0  0  0  0  0  0  0  0  0  0  0  # atno 2477 bound_to 2467
  120.8774  277.0701  307.7404 H   0  0  0  0  0  0  0  0  0  0  0  0  # atno 2506 bound_to 2497
  118.8841  276.3427  307.8739 H   0  0  0  0  0  0  0  0  0  0  0  0  # atno 2539 bound_to 2525
  117.1504  276.2161  309.9567 H   0  0  0  0  0  0  0  0  0  0  0  0  # atno 2572 bound_to 2558
  115.1578  278.5073  308.1237 H   0  0  0  0  0  0  0  0  0  0  0  0  # atno 2600 bound_to 2587
  119.7469  281.0584  304.1979 H   0  0  0  0  0  0  0  0  0  0  0  0  # atno 2608 bound_to 2595
  119.8620  280.9746  302.5462 H   0  0  0  0  0  0  0  0  0  0  0  0  # atno 2609 bound_to 2595
  119.8900  282.4485  303.3055 H   0  0  0  0  0  0  0  0  0  0  0  0  # atno 2610 bound_to 2595
  114.6908  277.0049  305.1696 H   0  0  0  0  0  0  0  0  0  0  0  0  # atno 2640 bound_to 2631
  113.6628  275.5423  308.1252 H   0  0  0  0  0  0  0  0  0  0  0  0  # atno 2668 bound_to 2660
  111.9135  277.3020  307.3573 H   0  0  0  0  0  0  0  0  0  0  0  0  # atno 2706 bound_to 2698
  109.6348  278.3634  305.7765 H   0  0  0  0  0  0  0  0  0  0  0  0  # atno 2728 bound_to 2721
  109.3698  275.2849  304.0697 H   0  0  0  0  0  0  0  0  0  0  0  0  # atno 2756 bound_to 2749
  107.1731  273.8623  306.4698 H   0  0  0  0  0  0  0  0  0  0  0  0  # atno 2785 bound_to 2776
  108.8933  274.1815  315.3217 LP  0  0  0  0  0  0  0  0  0  0  0  0  # atno 13465 bound_to 1382
  107.9372  273.9706  316.7505 LP  0  0  0  0  0  0  0  0  0  0  0  0  # atno 13466 bound_to 1382
  106.1163  274.7306  317.8573 LP  0  0  0  0  0  0  0  0  0  0  0  0  # atno 13467 bound_to 1385
  105.0291  275.9213  318.1159 LP  0  0  0  0  0  0  0  0  0  0  0  0  # atno 13468 bound_to 1385
  106.7059  274.5887  313.6599 LP  0  0  0  0  0  0  0  0  0  0  0  0  # atno 13469 bound_to 1409
  110.7480  276.5511  314.1778 LP  0  0  0  0  0  0  0  0  0  0  0  0  # atno 13470 bound_to 1412
  110.6442  276.9862  315.8511 LP  0  0  0  0  0  0  0  0  0  0  0  0  # atno 13471 bound_to 1412
  108.4791  276.3710  315.6295 LP  0  0  0  0  0  0  0  0  0  0  0  0  # atno 13472 bound_to 1452
  110.1930  278.0995  319.3963 LP  0  0  0  0  0  0  0  0  0  0  0  0  # atno 13473 bound_to 1455
  111.1943  277.0998  318.3973 LP  0  0  0  0  0  0  0  0  0  0  0  0  # atno 13474 bound_to 1455
  108.9105  276.8812  318.3116 LP  0  0  0  0  0  0  0  0  0  0  0  0  # atno 13479 bound_to 1477
  111.5921  272.8906  319.1540 LP  0  0  0  0  0  0  0  0  0  0  0  0  # atno 13480 bound_to 1480
  112.1591  274.5265  319.2012 LP  0  0  0  0  0  0  0  0  0  0  0  0  # atno 13481 bound_to 1480
  109.6046  273.6186  317.5828 LP  0  0  0  0  0  0  0  0  0  0  0  0  # atno 13482 bound_to 1510
  112.5391  274.6308  316.5760 LP  0  0  0  0  0  0  0  0  0  0  0  0  # atno 13483 bound_to 1551
  116.6280  275.0918  315.6512 LP  0  0  0  0  0  0  0  0  0  0  0  0  # atno 13484 bound_to 1554
  116.6764  274.6765  317.3320 LP  0  0  0  0  0  0  0  0  0  0  0  0  # atno 13485 bound_to 1554
  123.8198  278.4730  309.1048 LP  0  0  0  0  0  0  0  0  0  0  0  0  # atno 13496 bound_to 2319
  124.2098  279.9484  309.9240 LP  0  0  0  0  0  0  0  0  0  0  0  0  # atno 13497 bound_to 2319
  123.1637  275.3397  310.3352 LP  0  0  0  0  0  0  0  0  0  0  0  0  # atno 13498 bound_to 2428
  119.2119  276.6248  310.2953 LP  0  0  0  0  0  0  0  0  0  0  0  0  # atno 13499 bound_to 2431
  119.0078  278.3447  310.2806 LP  0  0  0  0  0  0  0  0  0  0  0  0  # atno 13500 bound_to 2431
  120.9662  278.1252  310.0679 LP  0  0  0  0  0  0  0  0  0  0  0  0  # atno 13501 bound_to 2467
  125.2628  276.5154  310.3748 LP  0  0  0  0  0  0  0  0  0  0  0  0  # atno 13504 bound_to 2287
  125.4647  275.9531  312.0005 LP  0  0  0  0  0  0  0  0  0  0  0  0  # atno 13505 bound_to 2287
  127.5788  277.4358  311.7967 LP  0  0  0  0  0  0  0  0  0  0  0  0  # atno 13506 bound_to 2316
  125.8274  278.6724  309.1864 LP  0  0  0  0  0  0  0  0  0  0  0  0  # atno 13507 bound_to 2351
  122.9914  278.0199  306.5916 LP  0  0  0  0  0  0  0  0  0  0  0  0  # atno 13508 bound_to 2354
  122.7516  276.3087  306.7115 LP  0  0  0  0  0  0  0  0  0  0  0  0  # atno 13509 bound_to 2354
  124.4463  276.9078  308.0750 LP  0  0  0  0  0  0  0  0  0  0  0  0  # atno 13510 bound_to 2383
  120.8131  274.7658  309.5752 LP  0  0  0  0  0  0  0  0  0  0  0  0  # atno 13511 bound_to 2386
  121.1384  275.1481  307.9175 LP  0  0  0  0  0  0  0  0  0  0  0  0  # atno 13512 bound_to 2386
  117.8906  278.4732  307.7668 LP  0  0  0  0  0  0  0  0  0  0  0  0  # atno 13513 bound_to 2470
  118.3814  279.0791  306.2202 LP  0  0  0  0  0  0  0  0  0  0  0  0  # atno 13514 bound_to 2470
  120.4709  278.3736  306.6469 LP  0  0  0  0  0  0  0  0  0  0  0  0  # atno 13517 bound_to 2497
  117.4417  276.9487  308.3963 LP  0  0  0  0  0  0  0  0  0  0  0  0  # atno 13518 bound_to 2558
  119.4682  274.7635  307.3984 LP  0  0  0  0  0  0  0  0  0  0  0  0  # atno 13519 bound_to 2525
  116.6361  278.3260  307.2052 LP  0  0  0  0  0  0  0  0  0  0  0  0  # atno 13520 bound_to 2587
  115.1564  274.6025  308.2611 LP  0  0  0  0  0  0  0  0  0  0  0  0  # atno 13521 bound_to 2528
  114.7221  275.7907  309.4442 LP  0  0  0  0  0  0  0  0  0  0  0  0  # atno 13522 bound_to 2528
  113.4340  278.3180  309.4644 LP  0  0  0  0  0  0  0  0  0  0  0  0  # atno 13523 bound_to 2561
  113.2271  278.1977  307.7490 LP  0  0  0  0  0  0  0  0  0  0  0  0  # atno 13524 bound_to 2561
  110.8253  276.8838  308.6604 LP  0  0  0  0  0  0  0  0  0  0  0  0  # atno 13525 bound_to 2698
  112.6372  274.9675  306.8346 LP  0  0  0  0  0  0  0  0  0  0  0  0  # atno 13526 bound_to 2660
  108.7122  276.7714  308.2117 LP  0  0  0  0  0  0  0  0  0  0  0  0  # atno 13527 bound_to 2663
  109.0693  275.1042  308.5162 LP  0  0  0  0  0  0  0  0  0  0  0  0  # atno 13528 bound_to 2663
  112.2757  278.4347  305.7962 LP  0  0  0  0  0  0  0  0  0  0  0  0  # atno 13529 bound_to 2590
  112.4028  277.0856  304.7174 LP  0  0  0  0  0  0  0  0  0  0  0  0  # atno 13530 bound_to 2590
  114.8803  276.5037  306.8347 LP  0  0  0  0  0  0  0  0  0  0  0  0  # atno 13531 bound_to 2631
  107.4092  277.7315  305.9301 LP  0  0  0  0  0  0  0  0  0  0  0  0  # atno 13532 bound_to 2701
  107.7359  279.2566  306.6832 LP  0  0  0  0  0  0  0  0  0  0  0  0  # atno 13533 bound_to 2701
  110.5377  276.8669  305.6615 LP  0  0  0  0  0  0  0  0  0  0  0  0  # atno 13534 bound_to 2721
  113.9302  272.4336  315.7579 LP  0  0  0  0  0  0  0  0  0  0  0  0  # atno 13535 bound_to 1513
  114.0353  273.2238  317.2956 LP  0  0  0  0  0  0  0  0  0  0  0  0  # atno 13536 bound_to 1513
  110.7235  274.4785  306.6334 LP  0  0  0  0  0  0  0  0  0  0  0  0  # atno 13537 bound_to 2634
  111.4518  274.3390  305.0681 LP  0  0  0  0  0  0  0  0  0  0  0  0  # atno 13538 bound_to 2634
  108.7867  274.2828  307.0095 LP  0  0  0  0  0  0  0  0  0  0  0  0  # atno 13539 bound_to 2776
  107.9666  272.5827  311.1293 LP  0  0  0  0  0  0  0  0  0  0  0  0  # atno 13540 bound_to 2779
  107.6073  271.0558  310.3950 LP  0  0  0  0  0  0  0  0  0  0  0  0  # atno 13541 bound_to 2779

> <Gold.Score>
     Fitness  S(hb_ext) S(vdw_ext)  S(hb_int)    S(int)      intcor
     21.49       1.74      14.67       0.00      -0.42      -0.76

> <Gold.Goldscore.Fitness>
21.4891

> <Gold.Goldscore.Internal.Vdw>
-0.6005

> <Gold.Goldscore.Internal.Torsion>
-0.5770

> <Gold.Goldscore.External.Vdw>
14.6655

> <Gold.Goldscore.Internal.HBond>
0.0000

> <Gold.Goldscore.External.HBond>
1.7431

> <Gold.Goldscore.Internal.Correction>
-0.7585

> <Gold.Goldscore.Hbonds>
donor molecule, donor type, donor heavy atom, donor atom, acceptor molecule, acceptor atom, score
      L1  H     8    22       P1  2561  0.75
      L1  H    10    23       P1  1412  0.13

> <Gold.Goldscore.Internal.Vdw.Weighted>
-0.6005

> <Gold.Goldscore.Internal.Torsion.Weighted>
-0.5770

> <Gold.Goldscore.External.Vdw.Weighted>
20.1650

> <Gold.Goldscore.Internal.HBond.Weighted>
0.0000

> <Gold.Goldscore.External.HBond.Weighted>
1.7431

> <Gold.Goldscore.Internal.Correction.Weighted>
-0.7585

> <Gold.Rescore>
     Score     S(PLP)   S(hbond)     S(cho)   S(metal)  DE(clash)   DE(tors)     intcor
     23.18     -19.53       2.00       0.00       0.00       0.48       0.93       ----

> <Gold.PLP.Fitness>
23.1819

> <Gold.PLP.PLP>
-19.5262

> <Gold.PLP.part.hbond>
-2.0000

> <Gold.PLP.part.metal>
0.0000

> <Gold.PLP.part.buried>
-4.0483

> <Gold.PLP.part.nonpolar>
-15.1147

> <Gold.PLP.part.repulsive>
0.5817

> <Gold.PLP.ligand.clash>
0.4793

> <Gold.PLP.ligand.torsion>
0.9325

> <Gold.PLP.Chemscore.Hbond>
2.0000

> <Gold.PLP.Chemscore.CHOScore>
0.0000

> <Gold.PLP.Chemscore.Metal>
0.0000

> <Gold.Chemscore.Hbonds>
donor molecule, donor type, donor heavy atom, donor atom, acceptor molecule, acceptor atom, score
      L1  H    10    23       P1  1412  0.44
      P1  H  2564  2576       L1     9  0.07

> <Gold.PLP.Chemscore.Internal.Correction>
   9.000000E+99

