#       Name:                CT1002167954
#       Creating user name   hitesit
#       Creation time:       Sun Apr 16 20:18:48 2023


#       File generated by GOLD software.
#

@<TRIPOS>MOLECULE
CT1002167954|ligand_prepared|mol2|1|dock9
    29    30     1
SMALL
NO_CHARGES


@<TRIPOS>ATOM
      1 C1         111.3321 280.6272 313.3866 C.3            1 RES1               0.0000
      2 C2         111.7503 281.6055 314.5032 C.ar           1 RES1               0.0000
      3 C3         110.0925 279.8986 313.8975 C.2            1 RES1               0.0000
      4 C4         111.0866 281.4769 312.1447 C.2            1 RES1               0.0000
      5 C5         112.4120 279.5758 313.0403 C.3            1 RES1               0.0000
      6 C6         111.0346 282.7788 314.7220 C.ar           1 RES1               0.0000
      7 C7         112.8460 281.3477 315.3226 C.ar           1 RES1               0.0000
      8 N8         108.8894 280.2416 313.3546 N.am           1 RES1               0.0000
      9 O9         110.1648 279.0640 314.7911 O.2            1 RES1               0.0000
     10 N10        109.8085 281.5445 311.6553 N.am           1 RES1               0.0000
     11 O11        111.9855 282.1018 311.5953 O.2            1 RES1               0.0000
     12 C12        112.0512 278.6937 311.8555 C.3            1 RES1               0.0000
     13 C13        111.3991 283.6609 315.7257 C.ar           1 RES1               0.0000
     14 C14        113.2090 282.2313 316.3256 C.ar           1 RES1               0.0000
     15 C15        108.6932 280.9901 312.2219 C.2            1 RES1               0.0000
     16 C16        112.4861 283.3876 316.5283 C.ar           1 RES1               0.0000
     17 O17        107.5689 281.1406 311.7524 O.2            1 RES1               0.0000
     18 H18        113.3528 280.0952 312.8204 H              1 RES1               0.0000
     19 H19        112.5782 278.9382 313.9175 H              1 RES1               0.0000
     20 H20        110.1777 283.0119 314.0988 H              1 RES1               0.0000
     21 H21        113.4300 280.4447 315.1807 H              1 RES1               0.0000
     22 H22        108.0587 279.9111 313.8353 H              1 RES1               0.0000
     23 H23        109.6762 282.0554 310.7882 H              1 RES1               0.0000
     24 H24        112.8424 277.9741 311.6553 H              1 RES1               0.0000
     25 H25        111.1334 278.1427 312.0500 H              1 RES1               0.0000
     26 H26        111.9035 279.2929 310.9594 H              1 RES1               0.0000
     27 H27        110.8277 284.5702 315.8802 H              1 RES1               0.0000
     28 H28        114.0656 282.0125 316.9546 H              1 RES1               0.0000
     29 H29        112.7712 284.0786 317.3148 H              1 RES1               0.0000
@<TRIPOS>BOND
    1    1    2 1     
    2    1    3 1     
    3    1    4 1     
    4    1    5 1     
    5    2    6 ar    
    6    2    7 ar    
    7    3    8 1     
    8    3    9 2     
    9    4   10 1     
   10    4   11 2     
   11    5   12 1     
   12    5   18 1     
   13    5   19 1     
   14    6   13 ar    
   15    6   20 1     
   16    7   14 ar    
   17    7   21 1     
   18    8   15 1     
   19    8   22 1     
   20   10   15 1     
   21   10   23 1     
   22   12   24 1     
   23   12   25 1     
   24   12   26 1     
   25   13   16 ar    
   26   13   27 1     
   27   14   16 ar    
   28   14   28 1     
   29   15   17 2     
   30   16   29 1     
@<TRIPOS>SUBSTRUCTURE
      1 RES1           1
@<TRIPOS>SET
DONOR_HYDROGENS      STATIC     ATOMS    <user>   **** ""
2 22 23
ATOM$RED        STATIC     ATOMS    COLORGROUP SYSTEM
2 22 23
@<TRIPOS>COMMENT
> <Gold.Version>
2022.3.0

> <Gold.Id.Protein>
unknown|5adg_clean|pdb

> <Gold.Protein.RotatedTorsions>
[ 1392 1385 1383 1380 ] final  -64.03 input   60.03 | X-H torsion
[ 1421 1409 1410 1411 ] final   54.49 input  129.35 | X-H torsion
[ 1464 1452 1453 1454 ] final -147.40 input  108.99 | X-H torsion
[ 1488 1477 1478 1479 ] final  -72.20 input  100.07 | X-H torsion
[ 1529 1510 1511 1512 ] final  -61.62 input  113.76 | X-H torsion
[ 1564 1551 1552 1553 ] final   41.62 input  123.58 | X-H torsion
[ 1694 1683 1682 1681 ] final -161.26 input   60.00 | X-H torsion
[ 2447 2428 2429 2430 ] final -143.26 input  119.94 | X-H torsion
[ 2477 2467 2468 2469 ] final  -74.39 input  117.54 | X-H torsion
[ 2324 2316 2317 2318 ] final   77.71 input  118.58 | X-H torsion
[ 2362 2351 2352 2353 ] final   29.71 input  116.99 | X-H torsion
[ 2407 2383 2384 2385 ] final  -30.63 input  115.65 | X-H torsion
[ 2506 2497 2498 2499 ] final   52.80 input  121.55 | X-H torsion
[ 2572 2558 2559 2560 ] final  -28.61 input  118.05 | X-H torsion
[ 2539 2525 2526 2527 ] final  -27.83 input  116.25 | X-H torsion
[ 2600 2587 2588 2589 ] final  110.53 input  123.81 | X-H torsion
[ 2706 2698 2699 2700 ] final -147.15 input  119.89 | X-H torsion
[ 2668 2660 2661 2662 ] final -120.16 input  116.13 | X-H torsion
[ 2640 2631 2632 2633 ] final  127.07 input  117.28 | X-H torsion
[ 2728 2721 2722 2723 ] final  155.33 input   88.34 | X-H torsion
[ 2785 2776 2777 2778 ] final   80.76 input -114.77 | X-H torsion
[ 2608 2595 2594 2593 ] final   62.15 input   60.00 | X-H torsion
[ 1684 1675 1676 1677 ] final  138.29 input  120.12 | X-H torsion
[ 1635 1616 1617 1618 ] final  -60.75 input  110.97 | X-H torsion
[ 2756 2749 2750 2751 ] final   57.30 input   47.81 | X-H torsion
[ 13465 1382 1381 1380 ] final   -5.99 input    0.00 | X-H torsion
[ 13470 1412 1411 1410 ] final -169.40 input    0.00 | X-H torsion
[ 13473 1455 1454 1453 ] final  176.71 input   -0.00 | X-H torsion
[ 13480 1480 1479 1478 ] final -152.46 input   -0.00 | X-H torsion
[ 13484 1554 1553 1552 ] final  158.58 input    0.00 | X-H torsion
[ 13496 2319 2318 2317 ] final  -45.41 input   -0.00 | X-H torsion
[ 13499 2431 2430 2429 ] final  -99.30 input    0.00 | X-H torsion
[ 13504 2287 2286 2285 ] final -114.21 input   -0.00 | X-H torsion
[ 13508 2354 2353 2352 ] final  163.62 input    0.00 | X-H torsion
[ 13511 2386 2385 2384 ] final   11.59 input    0.00 | X-H torsion
[ 13513 2470 2469 2468 ] final  -19.65 input   -0.00 | X-H torsion
[ 13521 2528 2527 2526 ] final  134.47 input    0.00 | X-H torsion
[ 13523 2561 2560 2559 ] final  123.75 input   -0.00 | X-H torsion
[ 13527 2663 2662 2661 ] final  -89.34 input    0.00 | X-H torsion
[ 13529 2590 2589 2588 ] final -143.84 input   -0.00 | X-H torsion
[ 13532 2701 2700 2699 ] final   -9.05 input    0.00 | X-H torsion
[ 13535 1513 1512 1511 ] final  112.62 input    0.00 | X-H torsion
[ 13537 2634 2633 2632 ] final   75.17 input    0.00 | X-H torsion
[ 13540 2779 2778 2777 ] final  114.11 input    0.00 | X-H torsion

> <Gold.Protein.ActiveResidues>
 THR355  LYS356  ASP357  GLN358  LEU359  PHE360  PRO361  LEU362  ALA363  LYS364 
 ASP368  PHE377  GLY378  HIS382  MET383  GLU384  ARG385  LEU386  GLU387  GLU388 
 VAL389  ASN390  LYS391  GLU392  ILE393  ASP394  THR395  THR396  SER397 

> <Gold.Protein.RotatedAtoms>
  105.7898  274.7531  318.0751 H   0  0  0  0  0  0  0  0  0  0  0  0  # atno 1392 bound_to 1385
  106.3200  275.9246  314.6605 H   0  0  0  0  0  0  0  0  0  0  0  0  # atno 1421 bound_to 1409
  108.1772  277.7592  314.9215 H   0  0  0  0  0  0  0  0  0  0  0  0  # atno 1464 bound_to 1452
  109.2444  276.7636  317.9637 H   0  0  0  0  0  0  0  0  0  0  0  0  # atno 1488 bound_to 1477
  110.4991  274.2146  317.9872 H   0  0  0  0  0  0  0  0  0  0  0  0  # atno 1529 bound_to 1510
  112.2709  275.2525  316.5752 H   0  0  0  0  0  0  0  0  0  0  0  0  # atno 1564 bound_to 1551
  115.8416  274.2518  319.1429 H   0  0  0  0  0  0  0  0  0  0  0  0  # atno 1635 bound_to 1616
  117.6230  274.2950  316.3787 H   0  0  0  0  0  0  0  0  0  0  0  0  # atno 1684 bound_to 1675
  123.3084  279.0567  319.4356 H   0  0  0  0  0  0  0  0  0  0  0  0  # atno 1694 bound_to 1683
  122.1163  278.0348  319.9656 H   0  0  0  0  0  0  0  0  0  0  0  0  # atno 1695 bound_to 1683
  123.0999  277.5806  318.7110 H   0  0  0  0  0  0  0  0  0  0  0  0  # atno 1696 bound_to 1683
  128.3275  277.7915  310.3214 H   0  0  0  0  0  0  0  0  0  0  0  0  # atno 2324 bound_to 2316
  126.3974  277.5526  309.0521 H   0  0  0  0  0  0  0  0  0  0  0  0  # atno 2362 bound_to 2351
  124.4320  276.9160  308.0401 H   0  0  0  0  0  0  0  0  0  0  0  0  # atno 2407 bound_to 2383
  123.1993  275.3487  310.3947 H   0  0  0  0  0  0  0  0  0  0  0  0  # atno 2447 bound_to 2428
  120.9251  278.0414  310.0166 H   0  0  0  0  0  0  0  0  0  0  0  0  # atno 2477 bound_to 2467
  120.7254  277.1043  307.8113 H   0  0  0  0  0  0  0  0  0  0  0  0  # atno 2506 bound_to 2497
  118.5929  276.1038  307.2768 H   0  0  0  0  0  0  0  0  0  0  0  0  # atno 2539 bound_to 2525
  116.7323  276.2252  308.5886 H   0  0  0  0  0  0  0  0  0  0  0  0  # atno 2572 bound_to 2558
  116.6493  278.3208  307.1764 H   0  0  0  0  0  0  0  0  0  0  0  0  # atno 2600 bound_to 2587
  119.8552  280.9080  302.5926 H   0  0  0  0  0  0  0  0  0  0  0  0  # atno 2608 bound_to 2595
  119.8957  282.4406  303.2235 H   0  0  0  0  0  0  0  0  0  0  0  0  # atno 2609 bound_to 2595
  119.7481  281.1325  304.2319 H   0  0  0  0  0  0  0  0  0  0  0  0  # atno 2610 bound_to 2595
  115.5342  276.2824  306.1107 H   0  0  0  0  0  0  0  0  0  0  0  0  # atno 2640 bound_to 2631
  112.9848  274.4137  307.2563 H   0  0  0  0  0  0  0  0  0  0  0  0  # atno 2668 bound_to 2660
  111.3073  277.3700  308.8555 H   0  0  0  0  0  0  0  0  0  0  0  0  # atno 2706 bound_to 2698
  110.6452  278.1633  305.2980 H   0  0  0  0  0  0  0  0  0  0  0  0  # atno 2728 bound_to 2721
  109.5487  275.1861  305.5109 H   0  0  0  0  0  0  0  0  0  0  0  0  # atno 2756 bound_to 2749
  107.4928  273.4001  306.4486 H   0  0  0  0  0  0  0  0  0  0  0  0  # atno 2785 bound_to 2776
  107.9237  273.6306  316.5929 LP  0  0  0  0  0  0  0  0  0  0  0  0  # atno 13465 bound_to 1382
  108.9068  274.5214  315.4793 LP  0  0  0  0  0  0  0  0  0  0  0  0  # atno 13466 bound_to 1382
  105.1399  276.2350  317.9039 LP  0  0  0  0  0  0  0  0  0  0  0  0  # atno 13467 bound_to 1385
  106.5094  275.8436  317.1051 LP  0  0  0  0  0  0  0  0  0  0  0  0  # atno 13468 bound_to 1385
  106.8789  274.4392  313.9242 LP  0  0  0  0  0  0  0  0  0  0  0  0  # atno 13469 bound_to 1409
  110.6447  277.0537  315.8306 LP  0  0  0  0  0  0  0  0  0  0  0  0  # atno 13470 bound_to 1412
  110.7475  276.4836  314.1983 LP  0  0  0  0  0  0  0  0  0  0  0  0  # atno 13471 bound_to 1412
  107.8114  276.3649  315.9169 LP  0  0  0  0  0  0  0  0  0  0  0  0  # atno 13472 bound_to 1452
  110.6783  276.8541  319.3373 LP  0  0  0  0  0  0  0  0  0  0  0  0  # atno 13473 bound_to 1455
  110.7089  278.3451  318.4563 LP  0  0  0  0  0  0  0  0  0  0  0  0  # atno 13474 bound_to 1455
  107.8328  275.7552  317.7504 LP  0  0  0  0  0  0  0  0  0  0  0  0  # atno 13479 bound_to 1477
  112.3473  273.7960  318.4566 LP  0  0  0  0  0  0  0  0  0  0  0  0  # atno 13480 bound_to 1480
  111.4040  273.6211  319.8987 LP  0  0  0  0  0  0  0  0  0  0  0  0  # atno 13481 bound_to 1480
  109.4788  274.4444  316.5857 LP  0  0  0  0  0  0  0  0  0  0  0  0  # atno 13482 bound_to 1510
  112.3330  274.5177  314.9947 LP  0  0  0  0  0  0  0  0  0  0  0  0  # atno 13483 bound_to 1551
  116.9201  275.3031  317.2007 LP  0  0  0  0  0  0  0  0  0  0  0  0  # atno 13484 bound_to 1554
  116.3843  274.4653  315.7826 LP  0  0  0  0  0  0  0  0  0  0  0  0  # atno 13485 bound_to 1554
  123.9403  278.8103  310.2787 LP  0  0  0  0  0  0  0  0  0  0  0  0  # atno 13496 bound_to 2319
  124.0893  279.6111  308.7501 LP  0  0  0  0  0  0  0  0  0  0  0  0  # atno 13497 bound_to 2319
  123.2445  276.7780  309.3883 LP  0  0  0  0  0  0  0  0  0  0  0  0  # atno 13498 bound_to 2428
  119.1012  276.9715  309.5905 LP  0  0  0  0  0  0  0  0  0  0  0  0  # atno 13499 bound_to 2431
  119.1184  277.9981  310.9854 LP  0  0  0  0  0  0  0  0  0  0  0  0  # atno 13500 bound_to 2431
  122.3674  278.4881  309.1344 LP  0  0  0  0  0  0  0  0  0  0  0  0  # atno 13501 bound_to 2467
  125.2809  276.4341  310.3491 LP  0  0  0  0  0  0  0  0  0  0  0  0  # atno 13504 bound_to 2287
  125.4466  276.0344  312.0262 LP  0  0  0  0  0  0  0  0  0  0  0  0  # atno 13505 bound_to 2287
  127.2989  277.1718  311.5928 LP  0  0  0  0  0  0  0  0  0  0  0  0  # atno 13506 bound_to 2316
  126.6806  279.1990  308.5398 LP  0  0  0  0  0  0  0  0  0  0  0  0  # atno 13507 bound_to 2351
  122.7099  276.3274  306.8046 LP  0  0  0  0  0  0  0  0  0  0  0  0  # atno 13508 bound_to 2354
  123.0331  278.0012  306.4984 LP  0  0  0  0  0  0  0  0  0  0  0  0  # atno 13509 bound_to 2354
  125.7331  275.7520  308.0846 LP  0  0  0  0  0  0  0  0  0  0  0  0  # atno 13510 bound_to 2383
  121.2929  274.3385  308.2297 LP  0  0  0  0  0  0  0  0  0  0  0  0  # atno 13511 bound_to 2386
  120.6587  275.5755  309.2629 LP  0  0  0  0  0  0  0  0  0  0  0  0  # atno 13512 bound_to 2386
  118.0697  279.2649  307.7053 LP  0  0  0  0  0  0  0  0  0  0  0  0  # atno 13513 bound_to 2470
  118.2024  278.2873  306.2816 LP  0  0  0  0  0  0  0  0  0  0  0  0  # atno 13514 bound_to 2470
  120.6187  278.3403  306.5781 LP  0  0  0  0  0  0  0  0  0  0  0  0  # atno 13517 bound_to 2497
  117.8488  276.9399  309.7284 LP  0  0  0  0  0  0  0  0  0  0  0  0  # atno 13518 bound_to 2558
  119.7509  274.9956  307.9783 LP  0  0  0  0  0  0  0  0  0  0  0  0  # atno 13519 bound_to 2525
  115.1899  278.5068  308.1237 LP  0  0  0  0  0  0  0  0  0  0  0  0  # atno 13520 bound_to 2587
  114.7717  275.5932  309.6041 LP  0  0  0  0  0  0  0  0  0  0  0  0  # atno 13521 bound_to 2528
  115.1069  274.8000  308.1013 LP  0  0  0  0  0  0  0  0  0  0  0  0  # atno 13522 bound_to 2528
  113.2970  279.0627  308.2887 LP  0  0  0  0  0  0  0  0  0  0  0  0  # atno 13523 bound_to 2561
  113.3642  277.4530  308.9246 LP  0  0  0  0  0  0  0  0  0  0  0  0  # atno 13524 bound_to 2561
  111.4162  276.8175  307.2002 LP  0  0  0  0  0  0  0  0  0  0  0  0  # atno 13525 bound_to 2698
  113.3027  276.0753  307.6875 LP  0  0  0  0  0  0  0  0  0  0  0  0  # atno 13526 bound_to 2660
  108.9184  275.6437  307.5498 LP  0  0  0  0  0  0  0  0  0  0  0  0  # atno 13527 bound_to 2663
  108.8630  276.2320  309.1780 LP  0  0  0  0  0  0  0  0  0  0  0  0  # atno 13528 bound_to 2663
  112.1012  277.0711  305.7243 LP  0  0  0  0  0  0  0  0  0  0  0  0  # atno 13529 bound_to 2590
  112.5772  278.4492  304.7893 LP  0  0  0  0  0  0  0  0  0  0  0  0  # atno 13530 bound_to 2590
  114.0608  277.2057  305.9204 LP  0  0  0  0  0  0  0  0  0  0  0  0  # atno 13531 bound_to 2631
  107.6326  278.7356  307.1362 LP  0  0  0  0  0  0  0  0  0  0  0  0  # atno 13532 bound_to 2701
  107.5126  278.2525  305.4772 LP  0  0  0  0  0  0  0  0  0  0  0  0  # atno 13533 bound_to 2701
  109.5635  277.0599  306.1228 LP  0  0  0  0  0  0  0  0  0  0  0  0  # atno 13534 bound_to 2721
  114.2362  272.8300  315.6986 LP  0  0  0  0  0  0  0  0  0  0  0  0  # atno 13535 bound_to 1513
  113.7294  272.8275  317.3549 LP  0  0  0  0  0  0  0  0  0  0  0  0  # atno 13536 bound_to 1513
  111.3940  273.6001  305.8037 LP  0  0  0  0  0  0  0  0  0  0  0  0  # atno 13537 bound_to 2634
  110.7814  275.2174  305.8977 LP  0  0  0  0  0  0  0  0  0  0  0  0  # atno 13538 bound_to 2634
  108.4795  274.7269  307.0299 LP  0  0  0  0  0  0  0  0  0  0  0  0  # atno 13539 bound_to 2776
  107.5665  271.0696  310.3887 LP  0  0  0  0  0  0  0  0  0  0  0  0  # atno 13540 bound_to 2779
  108.0074  272.5689  311.1356 LP  0  0  0  0  0  0  0  0  0  0  0  0  # atno 13541 bound_to 2779

> <Gold.Score>
     Fitness  S(hb_ext) S(vdw_ext)  S(hb_int)    S(int)      intcor
     21.32       0.00      15.62       0.00      -0.16      -0.76

> <Gold.Goldscore.Fitness>
21.3202

> <Gold.Goldscore.Internal.Vdw>
-0.5040

> <Gold.Goldscore.Internal.Torsion>
-0.4108

> <Gold.Goldscore.External.Vdw>
15.6192

> <Gold.Goldscore.Internal.HBond>
0.0000

> <Gold.Goldscore.External.HBond>
0.0000

> <Gold.Goldscore.Internal.Correction>
-0.7585

> <Gold.Goldscore.Internal.Vdw.Weighted>
-0.5040

> <Gold.Goldscore.Internal.Torsion.Weighted>
-0.4108

> <Gold.Goldscore.External.Vdw.Weighted>
21.4764

> <Gold.Goldscore.Internal.HBond.Weighted>
0.0000

> <Gold.Goldscore.External.HBond.Weighted>
0.0000

> <Gold.Goldscore.Internal.Correction.Weighted>
-0.7585

> <Gold.Rescore>
     Score     S(PLP)   S(hbond)     S(cho)   S(metal)  DE(clash)   DE(tors)     intcor
     17.56     -14.57       1.00       0.00       0.00       0.00       0.01       ----

> <Gold.PLP.Fitness>
17.5564

> <Gold.PLP.PLP>
-14.5745

> <Gold.PLP.part.hbond>
-1.5978

> <Gold.PLP.part.metal>
0.0000

> <Gold.PLP.part.buried>
-0.3403

> <Gold.PLP.part.nonpolar>
-13.5794

> <Gold.PLP.part.repulsive>
0.9341

> <Gold.PLP.ligand.clash>
0.0000

> <Gold.PLP.ligand.torsion>
0.0090

> <Gold.PLP.Chemscore.Hbond>
1.0000

> <Gold.PLP.Chemscore.CHOScore>
0.0000

> <Gold.PLP.Chemscore.Metal>
0.0000

> <Gold.Chemscore.Hbonds>
donor molecule, donor type, donor heavy atom, donor atom, acceptor molecule, acceptor atom, score
      P1  H  1452  1464       L1     9  0.05

> <Gold.PLP.Chemscore.Internal.Correction>
   9.000000E+99

