#       Name:                CT1002167954
#       Creating user name   hitesit
#       Creation time:       Sun Apr 16 20:21:52 2023


#       File generated by GOLD software.
#

@<TRIPOS>MOLECULE
CT1002167954|ligand_prepared|mol2|1|dock4
    29    30     1
SMALL
NO_CHARGES


@<TRIPOS>ATOM
      1 C1         186.7269  13.7125  49.5376 C.3            1 RES1               0.0000
      2 C2         187.5571  12.6770  50.3233 C.ar           1 RES1               0.0000
      3 C3         185.7933  12.9148  48.6318 C.2            1 RES1               0.0000
      4 C4         186.0072  14.5615  50.5797 C.2            1 RES1               0.0000
      5 C5         187.5776  14.6568  48.6567 C.3            1 RES1               0.0000
      6 C6         188.8348  12.3243  49.8993 C.ar           1 RES1               0.0000
      7 C7         187.0607  12.0691  51.4734 C.ar           1 RES1               0.0000
      8 N8         184.4739  12.8630  48.9730 N.am           1 RES1               0.0000
      9 O9         186.2152  12.3079  47.6551 O.2            1 RES1               0.0000
     10 N10        184.6400  14.4875  50.6352 N.am           1 RES1               0.0000
     11 O11        186.6128  15.2813  51.3642 O.2            1 RES1               0.0000
     12 C12        186.7773  15.7728  48.0038 C.3            1 RES1               0.0000
     13 C13        189.5902  11.3996  50.6011 C.ar           1 RES1               0.0000
     14 C14        187.8177  11.1444  52.1736 C.ar           1 RES1               0.0000
     15 C15        183.8429  13.6535  49.8996 C.2            1 RES1               0.0000
     16 C16        189.0824  10.8094  51.7389 C.ar           1 RES1               0.0000
     17 O17        182.6248  13.6052  50.0448 O.2            1 RES1               0.0000
     18 H18        188.3654  15.1031  49.2760 H              1 RES1               0.0000
     19 H19        188.0635  14.0648  47.8713 H              1 RES1               0.0000
     20 H20        189.2501  12.7765  49.0048 H              1 RES1               0.0000
     21 H21        186.0679  12.3165  51.8334 H              1 RES1               0.0000
     22 H22        183.9037  12.1726  48.4950 H              1 RES1               0.0000
     23 H23        184.1733  15.1121  51.2851 H              1 RES1               0.0000
     24 H24        187.4217  16.4057  47.3973 H              1 RES1               0.0000
     25 H25        186.0004  15.3649  47.3604 H              1 RES1               0.0000
     26 H26        186.3006  16.3970  48.7568 H              1 RES1               0.0000
     27 H27        190.5844  11.1383  50.2541 H              1 RES1               0.0000
     28 H28        187.4139  10.6819  53.0682 H              1 RES1               0.0000
     29 H29        189.6745  10.0853  52.2887 H              1 RES1               0.0000
@<TRIPOS>BOND
    1    1    2 1     
    2    1    3 1     
    3    1    4 1     
    4    1    5 1     
    5    2    6 ar    
    6    2    7 ar    
    7    3    8 1     
    8    3    9 2     
    9    4   10 1     
   10    4   11 2     
   11    5   12 1     
   12    5   18 1     
   13    5   19 1     
   14    6   13 ar    
   15    6   20 1     
   16    7   14 ar    
   17    7   21 1     
   18    8   15 1     
   19    8   22 1     
   20   10   15 1     
   21   10   23 1     
   22   12   24 1     
   23   12   25 1     
   24   12   26 1     
   25   13   16 ar    
   26   13   27 1     
   27   14   16 ar    
   28   14   28 1     
   29   15   17 2     
   30   16   29 1     
@<TRIPOS>SUBSTRUCTURE
      1 RES1           1
@<TRIPOS>SET
DONOR_HYDROGENS      STATIC     ATOMS    <user>   **** ""
2 22 23
ATOM$RED        STATIC     ATOMS    COLORGROUP SYSTEM
2 22 23
@<TRIPOS>COMMENT
> <Gold.Version>
2022.3.0

> <Gold.Id.Protein>
unknown|4d1n_clean|pdb

> <Gold.Protein.RotatedTorsions>
[ 16986 16944 16943 16941 ] final  -41.14 input   59.98 | X-H torsion
[ 18494 18452 18451 18449 ] final  112.37 input   59.98 | X-H torsion
[ 18557 18521 18522 18523 ] final -121.13 input   91.55 | X-H torsion
[ 18701 18674 18675 18676 ] final   -3.74 input  121.65 | X-H torsion
[ 18757 18733 18734 18735 ] final  -53.74 input   95.18 | X-H torsion
[ 18937 18904 18905 18906 ] final -123.76 input   99.08 | X-H torsion
[ 19021 18997 18998 18999 ] final   80.88 input  121.68 | X-H torsion
[ 17190 17170 17171 17172 ] final  107.21 input   47.05 | X-H torsion
[ 17242 17212 17213 17214 ] final  -63.08 input  118.29 | X-H torsion
[ 18817 18805 18806 18807 ] final  -99.01 input  116.09 | X-H torsion
[ 19085 19049 19050 19051 ] final -147.23 input   88.91 | X-H torsion
[ 18486 18441 18442 18443 ] final   15.81 input  100.68 | X-H torsion
[ 17298 17275 17276 17277 ] final   45.13 input   51.25 | X-H torsion
[ 18290 18267 18268 18269 ] final -166.21 input   31.65 | X-H torsion
[ 18324 18309 18310 18311 ] final  -88.93 input   53.83 | X-H torsion
[ 18399 18347 18348 18349 ] final  105.94 input   27.99 | X-H torsion
[ 7521 7509 7510 7511 ] final   48.03 input   80.33 | X-H torsion
[ 7493 7448 7449 7450 ] final   30.44 input   99.31 | X-H torsion
[ 18598 18585 18586 18587 ] final -140.18 input  129.83 | X-H torsion
[ 10115 10088 10087 10084 ] final -172.65 input   59.98 | X-H torsion
[ 18294 18272 18271 18268 ] final  -97.99 input   59.99 | X-H torsion
[ 18643 18622 18620 18617 ] final -113.99 input   59.97 | X-H torsion
[ 18857 18836 18837 18838 ] final   25.80 input   87.55 | X-H torsion
[ 22429 22408 22409 22410 ] final  106.83 input   59.22 | X-H torsion
[ 10151 10126 10127 10128 ] final   73.45 input   20.82 | X-H torsion
[ 18234 18192 18193 18194 ] final   79.36 input   40.98 | X-H torsion
[ 11814 11769 11770 11771 ] final   61.44 input   85.42 | X-H torsion
[ 16978 16933 16934 16935 ] final   67.31 input   88.91 | X-H torsion
[ 27198 18524 18523 18522 ] final    8.60 input    0.00 | X-H torsion
[ 27200 18619 18618 18617 ] final -100.64 input    0.00 | X-H torsion
[ 27203 18677 18676 18675 ] final  127.21 input    0.00 | X-H torsion
[ 27223 17119 17118 17117 ] final  -47.14 input    0.00 | X-H torsion
[ 27227 11596 11595 11594 ] final  143.77 input   -0.00 | X-H torsion
[ 27231 17044 17043 17042 ] final  -52.92 input    0.00 | X-H torsion
[ 27233 18736 18735 18734 ] final  150.65 input   -0.00 | X-H torsion
[ 27235 18588 18587 18586 ] final -151.97 input    0.00 | X-H torsion
[ 27238 18907 18906 18905 ] final  127.75 input    0.00 | X-H torsion
[ 27240 19000 18999 18998 ] final  -52.47 input    0.00 | X-H torsion
[ 27243 17173 17172 17171 ] final  -30.77 input    0.00 | X-H torsion
[ 27245 18350 18349 18348 ] final   39.50 input    0.00 | X-H torsion
[ 27248 11406 11405 11404 ] final -101.41 input   -0.00 | X-H torsion
[ 27250 18195 18194 18193 ] final   34.11 input    0.00 | X-H torsion
[ 27254 17215 17214 17213 ] final   28.83 input   -0.00 | X-H torsion
[ 27260 18312 18311 18310 ] final  -38.38 input   -0.00 | X-H torsion
[ 27262 18444 18443 18442 ] final  -71.20 input    0.00 | X-H torsion
[ 27265 18270 18269 18268 ] final  -13.85 input    0.00 | X-H torsion
[ 27273 16936 16935 16934 ] final  -83.46 input   -0.00 | X-H torsion

> <Gold.Protein.ActiveResidues>
 TRP414  CYS420  VAL421  GLY422  LEU460  SER462  ALA463  SER482  GLN483  ILE485 
 ARG486  TYR487  ASP500  ASN503  TRP566  TYR567  LEU569  PRO570  ALA571  VAL572 
 SER573  ASN574  PHE589  SER590  GLY591  TRP592  TYR593  MET594  GLY595  THR596 
 GLU597  ILE598  GLY599  VAL600  ARG601  ASP602  TYR603  ARG608  ILE653  VAL654 
 TRP683  PRO687  HEM750  H4B760 

> <Gold.Protein.RotatedAtoms>
  195.0778   10.7936   53.3903 H   0  0  0  0  0  0  0  0  0  0  0  0  # atno 7493 bound_to 7448
  195.3445    8.9781   53.4899 H   0  0  0  0  0  0  0  0  0  0  0  0  # atno 7521 bound_to 7509
  190.3779    2.1410   51.0999 H   0  0  0  0  0  0  0  0  0  0  0  0  # atno 10115 bound_to 10088
  186.8390    2.0756   47.2875 H   0  0  0  0  0  0  0  0  0  0  0  0  # atno 10151 bound_to 10126
  176.4268   17.6911   47.5811 H   0  0  0  0  0  0  0  0  0  0  0  0  # atno 11814 bound_to 11769
  176.9340   12.9612   53.3254 H   0  0  0  0  0  0  0  0  0  0  0  0  # atno 16978 bound_to 16933
  181.1255   14.6900   50.0557 H   0  0  0  0  0  0  0  0  0  0  0  0  # atno 16986 bound_to 16944
  182.3849    9.9790   47.5107 H   0  0  0  0  0  0  0  0  0  0  0  0  # atno 17190 bound_to 17170
  184.5679   10.4040   45.0480 H   0  0  0  0  0  0  0  0  0  0  0  0  # atno 17242 bound_to 17212
  185.3614   13.0246   42.1878 H   0  0  0  0  0  0  0  0  0  0  0  0  # atno 17298 bound_to 17275
  187.3778    8.1211   42.5687 H   0  0  0  0  0  0  0  0  0  0  0  0  # atno 18234 bound_to 18192
  186.7325    6.4013   45.2241 H   0  0  0  0  0  0  0  0  0  0  0  0  # atno 18290 bound_to 18267
  184.3018    4.4110   46.0250 H   0  0  0  0  0  0  0  0  0  0  0  0  # atno 18294 bound_to 18272
  186.4488    5.3293   48.8731 H   0  0  0  0  0  0  0  0  0  0  0  0  # atno 18324 bound_to 18309
  187.0803    5.2486   53.0521 H   0  0  0  0  0  0  0  0  0  0  0  0  # atno 18399 bound_to 18347
  185.3427    7.5501   55.8290 H   0  0  0  0  0  0  0  0  0  0  0  0  # atno 18486 bound_to 18441
  181.8391   13.1121   51.0999 H   0  0  0  0  0  0  0  0  0  0  0  0  # atno 18494 bound_to 18452
  186.9644    9.7635   56.9217 H   0  0  0  0  0  0  0  0  0  0  0  0  # atno 18557 bound_to 18521
  185.9956   11.4017   59.5742 H   0  0  0  0  0  0  0  0  0  0  0  0  # atno 18598 bound_to 18585
  189.6594   15.6476   60.2865 H   0  0  0  0  0  0  0  0  0  0  0  0  # atno 18643 bound_to 18622
  185.7830   16.3968   58.5725 H   0  0  0  0  0  0  0  0  0  0  0  0  # atno 18701 bound_to 18674
  184.5060   17.2083   57.0343 H   0  0  0  0  0  0  0  0  0  0  0  0  # atno 18757 bound_to 18733
  181.9178   17.5791   58.7796 H   0  0  0  0  0  0  0  0  0  0  0  0  # atno 18817 bound_to 18805
  184.0821   19.3240   59.3059 H   0  0  0  0  0  0  0  0  0  0  0  0  # atno 18857 bound_to 18836
  185.5345   21.5487   58.4509 H   0  0  0  0  0  0  0  0  0  0  0  0  # atno 18937 bound_to 18904
  183.2468   20.0859   56.1973 H   0  0  0  0  0  0  0  0  0  0  0  0  # atno 19021 bound_to 18997
  180.4328   20.8440   56.1894 H   0  0  0  0  0  0  0  0  0  0  0  0  # atno 19085 bound_to 19049
  186.6002    7.5250   59.4605 H   0  0  0  0  0  0  0  0  0  0  0  0  # atno 22429 bound_to 22408
  179.9953   15.8229   49.7623 LP  0  0  0  0  0  0  0  0  0  0  0  0  # atno 27193 bound_to 16944
  180.4173   14.7643   48.5928 LP  0  0  0  0  0  0  0  0  0  0  0  0  # atno 27194 bound_to 16944
  182.5551   14.3805   51.8262 LP  0  0  0  0  0  0  0  0  0  0  0  0  # atno 27195 bound_to 18452
  181.0118   13.9913   52.1915 LP  0  0  0  0  0  0  0  0  0  0  0  0  # atno 27196 bound_to 18452
  187.0353   11.3557   56.2007 LP  0  0  0  0  0  0  0  0  0  0  0  0  # atno 27197 bound_to 18521
  186.5411   13.2564   56.9911 LP  0  0  0  0  0  0  0  0  0  0  0  0  # atno 27198 bound_to 18524
  185.7643   14.0558   58.3168 LP  0  0  0  0  0  0  0  0  0  0  0  0  # atno 27199 bound_to 18524
  185.1602   18.5683   58.5197 LP  0  0  0  0  0  0  0  0  0  0  0  0  # atno 27200 bound_to 18619
  186.8405   18.9880   58.5413 LP  0  0  0  0  0  0  0  0  0  0  0  0  # atno 27201 bound_to 18619
  187.3078   15.7442   58.0275 LP  0  0  0  0  0  0  0  0  0  0  0  0  # atno 27202 bound_to 18674
  183.7090   18.1970   55.1481 LP  0  0  0  0  0  0  0  0  0  0  0  0  # atno 27203 bound_to 18677
  185.0144   19.0087   55.9462 LP  0  0  0  0  0  0  0  0  0  0  0  0  # atno 27204 bound_to 18677
  184.0430   15.5280   57.2004 LP  0  0  0  0  0  0  0  0  0  0  0  0  # atno 27209 bound_to 18733
  184.6983   20.1735   57.7743 LP  0  0  0  0  0  0  0  0  0  0  0  0  # atno 27210 bound_to 18904
  183.8052   21.3675   55.1502 LP  0  0  0  0  0  0  0  0  0  0  0  0  # atno 27211 bound_to 18997
  185.3796    8.8464   49.3225 LP  0  0  0  0  0  0  0  0  0  0  0  0  # atno 27223 bound_to 17119
  184.6352    7.8387   48.1265 LP  0  0  0  0  0  0  0  0  0  0  0  0  # atno 27224 bound_to 17119
  184.0478   10.3412   47.9080 LP  0  0  0  0  0  0  0  0  0  0  0  0  # atno 27225 bound_to 17170
  186.1057   10.2195   45.8632 LP  0  0  0  0  0  0  0  0  0  0  0  0  # atno 27226 bound_to 17212
  179.4398   14.1077   46.7902 LP  0  0  0  0  0  0  0  0  0  0  0  0  # atno 27227 bound_to 11596
  179.2794   12.5212   47.4663 LP  0  0  0  0  0  0  0  0  0  0  0  0  # atno 27228 bound_to 11596
  180.1539    8.9908   48.4116 LP  0  0  0  0  0  0  0  0  0  0  0  0  # atno 27231 bound_to 17044
  180.4941   10.4394   49.2981 LP  0  0  0  0  0  0  0  0  0  0  0  0  # atno 27232 bound_to 17044
  181.2314   19.5398   58.7624 LP  0  0  0  0  0  0  0  0  0  0  0  0  # atno 27233 bound_to 18736
  181.8279   19.4455   57.1391 LP  0  0  0  0  0  0  0  0  0  0  0  0  # atno 27234 bound_to 18736
  184.3733   16.2015   59.4836 LP  0  0  0  0  0  0  0  0  0  0  0  0  # atno 27235 bound_to 18588
  183.4106   15.0898   60.3986 LP  0  0  0  0  0  0  0  0  0  0  0  0  # atno 27236 bound_to 18588
  183.4737   17.0788   59.4080 LP  0  0  0  0  0  0  0  0  0  0  0  0  # atno 27237 bound_to 18805
  182.9255   23.1990   54.5918 LP  0  0  0  0  0  0  0  0  0  0  0  0  # atno 27238 bound_to 18907
  183.2938   23.6809   56.2141 LP  0  0  0  0  0  0  0  0  0  0  0  0  # atno 27239 bound_to 18907
  180.1463   22.9106   54.2896 LP  0  0  0  0  0  0  0  0  0  0  0  0  # atno 27240 bound_to 19000
  178.8964   22.1281   55.1980 LP  0  0  0  0  0  0  0  0  0  0  0  0  # atno 27241 bound_to 19000
  181.7307   21.6412   57.0474 LP  0  0  0  0  0  0  0  0  0  0  0  0  # atno 27242 bound_to 19049
  182.7928   10.0314   43.8195 LP  0  0  0  0  0  0  0  0  0  0  0  0  # atno 27243 bound_to 17173
  183.6005   11.5634   43.7973 LP  0  0  0  0  0  0  0  0  0  0  0  0  # atno 27244 bound_to 17173
  187.6027    7.9903   53.3669 LP  0  0  0  0  0  0  0  0  0  0  0  0  # atno 27245 bound_to 18350
  187.7201    8.5183   55.0123 LP  0  0  0  0  0  0  0  0  0  0  0  0  # atno 27246 bound_to 18350
  184.7552    8.2010   54.3173 LP  0  0  0  0  0  0  0  0  0  0  0  0  # atno 27247 bound_to 18441
  184.9156   13.7087   42.1303 LP  0  0  0  0  0  0  0  0  0  0  0  0  # atno 27248 bound_to 11406
  185.2740   15.0126   43.2126 LP  0  0  0  0  0  0  0  0  0  0  0  0  # atno 27249 bound_to 11406
  186.2912    8.4416   44.5049 LP  0  0  0  0  0  0  0  0  0  0  0  0  # atno 27250 bound_to 18195
  186.7820    8.3155   46.1612 LP  0  0  0  0  0  0  0  0  0  0  0  0  # atno 27251 bound_to 18195
  186.6309    9.4185   43.2192 LP  0  0  0  0  0  0  0  0  0  0  0  0  # atno 27254 bound_to 17215
  186.9548   10.0304   41.6315 LP  0  0  0  0  0  0  0  0  0  0  0  0  # atno 27255 bound_to 17215
  185.8457   11.4223   42.6714 LP  0  0  0  0  0  0  0  0  0  0  0  0  # atno 27256 bound_to 17275
  187.4581    4.9366   45.8394 LP  0  0  0  0  0  0  0  0  0  0  0  0  # atno 27257 bound_to 18267
  187.3383    6.7100   49.4810 LP  0  0  0  0  0  0  0  0  0  0  0  0  # atno 27258 bound_to 18309
  186.4826    6.5053   51.9861 LP  0  0  0  0  0  0  0  0  0  0  0  0  # atno 27259 bound_to 18347
  184.6320    4.8449   50.6570 LP  0  0  0  0  0  0  0  0  0  0  0  0  # atno 27260 bound_to 18312
  184.4482    4.5215   52.3486 LP  0  0  0  0  0  0  0  0  0  0  0  0  # atno 27261 bound_to 18312
  185.4424    8.8412   58.4233 LP  0  0  0  0  0  0  0  0  0  0  0  0  # atno 27262 bound_to 18444
  186.9618    8.1853   57.9123 LP  0  0  0  0  0  0  0  0  0  0  0  0  # atno 27263 bound_to 18444
  195.2106    9.2843   55.2013 LP  0  0  0  0  0  0  0  0  0  0  0  0  # atno 27264 bound_to 7509
  187.0784    3.5922   47.3405 LP  0  0  0  0  0  0  0  0  0  0  0  0  # atno 27265 bound_to 18270
  187.9305    3.5831   48.8484 LP  0  0  0  0  0  0  0  0  0  0  0  0  # atno 27266 bound_to 18270
  196.4424   11.8905   53.4167 LP  0  0  0  0  0  0  0  0  0  0  0  0  # atno 27267 bound_to 7448
  187.2016   12.5714   60.0539 LP  0  0  0  0  0  0  0  0  0  0  0  0  # atno 27268 bound_to 18585
  189.1198    1.2462   51.6144 LP  0  0  0  0  0  0  0  0  0  0  0  0  # atno 27269 bound_to 10088
  188.8675    2.7387   51.0017 LP  0  0  0  0  0  0  0  0  0  0  0  0  # atno 27270 bound_to 10088
  183.7659    4.1666   47.5418 LP  0  0  0  0  0  0  0  0  0  0  0  0  # atno 27271 bound_to 18272
  185.3334    3.8958   47.1730 LP  0  0  0  0  0  0  0  0  0  0  0  0  # atno 27272 bound_to 18272
  179.1715   11.0806   53.3405 LP  0  0  0  0  0  0  0  0  0  0  0  0  # atno 27273 bound_to 16936
  178.4856   10.8726   54.9173 LP  0  0  0  0  0  0  0  0  0  0  0  0  # atno 27274 bound_to 16936

> <Gold.Score>
     Fitness  S(hb_ext) S(vdw_ext)  S(hb_int)    S(int)      intcor
     31.63       2.41      21.96       0.00      -0.97      -0.78

> <Gold.Goldscore.Fitness>
31.6279

> <Gold.Goldscore.Internal.Vdw>
-1.3209

> <Gold.Goldscore.Internal.Torsion>
-0.4290

> <Gold.Goldscore.External.Vdw>
21.9551

> <Gold.Goldscore.Internal.HBond>
0.0000

> <Gold.Goldscore.External.HBond>
2.4075

> <Gold.Goldscore.Internal.Correction>
-0.7819

> <Gold.Goldscore.Hbonds>
donor molecule, donor type, donor heavy atom, donor atom, acceptor molecule, acceptor atom, score
      P1  H 16849 16897       L1    17  0.02
      P1  H 16944 16986       L1    17  0.18
      P1  H 18452 18494       L1    17  0.01
      L1  H     8    22       P1 17170  0.33

> <Gold.Goldscore.Internal.Vdw.Weighted>
-1.3209

> <Gold.Goldscore.Internal.Torsion.Weighted>
-0.4290

> <Gold.Goldscore.External.Vdw.Weighted>
30.1883

> <Gold.Goldscore.Internal.HBond.Weighted>
0.0000

> <Gold.Goldscore.External.HBond.Weighted>
2.4075

> <Gold.Goldscore.Internal.Correction.Weighted>
-0.7819

> <Gold.Rescore>
     Score     S(PLP)   S(hbond)     S(cho)   S(metal)  DE(clash)   DE(tors)     intcor
     20.80     -21.64       0.00       0.00       0.00       0.00       0.42       ----

> <Gold.PLP.Fitness>
20.7973

> <Gold.PLP.PLP>
-21.6355

> <Gold.PLP.part.hbond>
-2.2047

> <Gold.PLP.part.metal>
0.0000

> <Gold.PLP.part.buried>
14.2205

> <Gold.PLP.part.nonpolar>
-35.0639

> <Gold.PLP.part.repulsive>
0.8121

> <Gold.PLP.ligand.clash>
0.0000

> <Gold.PLP.ligand.torsion>
0.4191

> <Gold.PLP.Chemscore.Hbond>
0.0000

> <Gold.PLP.Chemscore.CHOScore>
0.0000

> <Gold.PLP.Chemscore.Metal>
0.0000

> <Gold.Chemscore.Hbonds>
donor molecule, donor type, donor heavy atom, donor atom, acceptor molecule, acceptor atom, score
      P1  H 16944 16986       L1    17  0.86
      P1  H 18452 18494       L1    17  0.15

> <Gold.PLP.Chemscore.Internal.Correction>
   9.000000E+99

