#       Name:                CT1002167954
#       Creating user name   hitesit
#       Creation time:       Sun Apr 16 20:21:54 2023


#       File generated by GOLD software.
#

@<TRIPOS>MOLECULE
CT1002167954|ligand_prepared|mol2|1|dock6
    29    30     1
SMALL
NO_CHARGES


@<TRIPOS>ATOM
      1 C1         186.4185  18.0055  49.9044 C.3            1 RES1               0.0000
      2 C2         187.3249  17.8018  48.6732 C.ar           1 RES1               0.0000
      3 C3         186.5135  16.7215  50.7234 C.2            1 RES1               0.0000
      4 C4         186.9465  19.2422  50.6230 C.2            1 RES1               0.0000
      5 C5         184.9334  18.2550  49.5526 C.3            1 RES1               0.0000
      6 C6         187.0470  16.8015  47.7465 C.ar           1 RES1               0.0000
      7 C7         188.4388  18.6067  48.4497 C.ar           1 RES1               0.0000
      8 N8         187.2376  16.7609  51.8784 N.am           1 RES1               0.0000
      9 O9         185.9940  15.6801  50.3415 O.2            1 RES1               0.0000
     10 N10        187.4863  19.0778  51.8718 N.am           1 RES1               0.0000
     11 O11        186.9152  20.3551  50.1122 O.2            1 RES1               0.0000
     12 C12        183.9906  18.1138  50.7372 C.3            1 RES1               0.0000
     13 C13        187.8519  16.6144  46.6349 C.ar           1 RES1               0.0000
     14 C14        189.2425  18.4177  47.3375 C.ar           1 RES1               0.0000
     15 C15        187.6837  17.8887  52.5193 C.2            1 RES1               0.0000
     16 C16        188.9497  17.4225  46.4295 C.ar           1 RES1               0.0000
     17 O17        188.2258  17.8167  53.6184 O.2            1 RES1               0.0000
     18 H18        184.8333  19.2666  49.1403 H              1 RES1               0.0000
     19 H19        184.6308  17.5440  48.7739 H              1 RES1               0.0000
     20 H20        186.1888  16.1542  47.8928 H              1 RES1               0.0000
     21 H21        188.6890  19.3952  49.1513 H              1 RES1               0.0000
     22 H22        187.4689  15.8694  52.3050 H              1 RES1               0.0000
     23 H23        187.7667  19.9199  52.3643 H              1 RES1               0.0000
     24 H24        182.9618  18.2989  50.4356 H              1 RES1               0.0000
     25 H25        184.0456  17.1114  51.1567 H              1 RES1               0.0000
     26 H26        184.2470  18.8237  51.5209 H              1 RES1               0.0000
     27 H27        187.6179  15.8289  45.9240 H              1 RES1               0.0000
     28 H28        190.1059  19.0557  47.1802 H              1 RES1               0.0000
     29 H29        189.5798  17.2760  45.5584 H              1 RES1               0.0000
@<TRIPOS>BOND
    1    1    2 1     
    2    1    3 1     
    3    1    4 1     
    4    1    5 1     
    5    2    6 ar    
    6    2    7 ar    
    7    3    8 1     
    8    3    9 2     
    9    4   10 1     
   10    4   11 2     
   11    5   12 1     
   12    5   18 1     
   13    5   19 1     
   14    6   13 ar    
   15    6   20 1     
   16    7   14 ar    
   17    7   21 1     
   18    8   15 1     
   19    8   22 1     
   20   10   15 1     
   21   10   23 1     
   22   12   24 1     
   23   12   25 1     
   24   12   26 1     
   25   13   16 ar    
   26   13   27 1     
   27   14   16 ar    
   28   14   28 1     
   29   15   17 2     
   30   16   29 1     
@<TRIPOS>SUBSTRUCTURE
      1 RES1           1
@<TRIPOS>SET
DONOR_HYDROGENS      STATIC     ATOMS    <user>   **** ""
2 22 23
ATOM$RED        STATIC     ATOMS    COLORGROUP SYSTEM
2 22 23
@<TRIPOS>COMMENT
> <Gold.Version>
2022.3.0

> <Gold.Id.Protein>
unknown|4d1n_clean|pdb

> <Gold.Protein.RotatedTorsions>
[ 16986 16944 16943 16941 ] final   75.73 input   59.98 | X-H torsion
[ 18494 18452 18451 18449 ] final  134.70 input   59.98 | X-H torsion
[ 18557 18521 18522 18523 ] final -150.51 input   91.55 | X-H torsion
[ 18701 18674 18675 18676 ] final -171.07 input  121.65 | X-H torsion
[ 18757 18733 18734 18735 ] final  103.44 input   95.18 | X-H torsion
[ 18937 18904 18905 18906 ] final   -8.88 input   99.08 | X-H torsion
[ 19021 18997 18998 18999 ] final   -3.18 input  121.68 | X-H torsion
[ 17190 17170 17171 17172 ] final   64.32 input   47.05 | X-H torsion
[ 17242 17212 17213 17214 ] final -172.45 input  118.29 | X-H torsion
[ 18817 18805 18806 18807 ] final  -18.80 input  116.09 | X-H torsion
[ 19085 19049 19050 19051 ] final  163.64 input   88.91 | X-H torsion
[ 18486 18441 18442 18443 ] final   13.70 input  100.68 | X-H torsion
[ 17298 17275 17276 17277 ] final  158.37 input   51.25 | X-H torsion
[ 18290 18267 18268 18269 ] final -153.91 input   31.65 | X-H torsion
[ 18324 18309 18310 18311 ] final  -64.02 input   53.83 | X-H torsion
[ 18399 18347 18348 18349 ] final  -91.69 input   27.99 | X-H torsion
[ 7521 7509 7510 7511 ] final   66.35 input   80.33 | X-H torsion
[ 7493 7448 7449 7450 ] final   22.96 input   99.31 | X-H torsion
[ 18598 18585 18586 18587 ] final  -71.62 input  129.83 | X-H torsion
[ 10115 10088 10087 10084 ] final  -13.19 input   59.98 | X-H torsion
[ 18294 18272 18271 18268 ] final   -3.27 input   59.99 | X-H torsion
[ 18643 18622 18620 18617 ] final   91.31 input   59.97 | X-H torsion
[ 18857 18836 18837 18838 ] final -151.22 input   87.55 | X-H torsion
[ 22429 22408 22409 22410 ] final -169.82 input   59.22 | X-H torsion
[ 10151 10126 10127 10128 ] final -109.54 input   20.82 | X-H torsion
[ 18234 18192 18193 18194 ] final  -65.50 input   40.98 | X-H torsion
[ 11814 11769 11770 11771 ] final  -61.95 input   85.42 | X-H torsion
[ 16978 16933 16934 16935 ] final   24.47 input   88.91 | X-H torsion
[ 27198 18524 18523 18522 ] final   81.30 input    0.00 | X-H torsion
[ 27200 18619 18618 18617 ] final  157.28 input    0.00 | X-H torsion
[ 27203 18677 18676 18675 ] final   26.39 input    0.00 | X-H torsion
[ 27223 17119 17118 17117 ] final   52.23 input    0.00 | X-H torsion
[ 27227 11596 11595 11594 ] final -156.31 input   -0.00 | X-H torsion
[ 27231 17044 17043 17042 ] final  108.11 input    0.00 | X-H torsion
[ 27233 18736 18735 18734 ] final   34.91 input   -0.00 | X-H torsion
[ 27235 18588 18587 18586 ] final   68.55 input    0.00 | X-H torsion
[ 27238 18907 18906 18905 ] final   28.37 input    0.00 | X-H torsion
[ 27240 19000 18999 18998 ] final  -70.13 input    0.00 | X-H torsion
[ 27243 17173 17172 17171 ] final   -1.27 input    0.00 | X-H torsion
[ 27245 18350 18349 18348 ] final  158.97 input    0.00 | X-H torsion
[ 27248 11406 11405 11404 ] final  -32.36 input   -0.00 | X-H torsion
[ 27250 18195 18194 18193 ] final -132.79 input    0.00 | X-H torsion
[ 27254 17215 17214 17213 ] final  137.25 input   -0.00 | X-H torsion
[ 27260 18312 18311 18310 ] final  101.01 input   -0.00 | X-H torsion
[ 27262 18444 18443 18442 ] final   34.08 input    0.00 | X-H torsion
[ 27265 18270 18269 18268 ] final  -83.35 input    0.00 | X-H torsion
[ 27273 16936 16935 16934 ] final  138.69 input   -0.00 | X-H torsion

> <Gold.Protein.ActiveResidues>
 TRP414  CYS420  VAL421  GLY422  LEU460  SER462  ALA463  SER482  GLN483  ILE485 
 ARG486  TYR487  ASP500  ASN503  TRP566  TYR567  LEU569  PRO570  ALA571  VAL572 
 SER573  ASN574  PHE589  SER590  GLY591  TRP592  TYR593  MET594  GLY595  THR596 
 GLU597  ILE598  GLY599  VAL600  ARG601  ASP602  TYR603  ARG608  ILE653  VAL654 
 TRP683  PRO687  HEM750  H4B760 

> <Gold.Protein.RotatedAtoms>
  195.1504   10.7166   53.3424 H   0  0  0  0  0  0  0  0  0  0  0  0  # atno 7493 bound_to 7448
  195.0867    9.0851   53.4959 H   0  0  0  0  0  0  0  0  0  0  0  0  # atno 7521 bound_to 7509
  188.5439    2.2486   51.2416 H   0  0  0  0  0  0  0  0  0  0  0  0  # atno 10115 bound_to 10088
  188.2643    1.0526   47.4357 H   0  0  0  0  0  0  0  0  0  0  0  0  # atno 10151 bound_to 10126
  175.8791   16.8134   46.4071 H   0  0  0  0  0  0  0  0  0  0  0  0  # atno 11814 bound_to 11769
  177.0353   12.6801   53.9007 H   0  0  0  0  0  0  0  0  0  0  0  0  # atno 16978 bound_to 16933
  180.4517   14.7298   48.6106 H   0  0  0  0  0  0  0  0  0  0  0  0  # atno 16986 bound_to 16944
  182.5707   10.5444   47.2575 H   0  0  0  0  0  0  0  0  0  0  0  0  # atno 17190 bound_to 17170
  185.3889   10.8747   46.1482 H   0  0  0  0  0  0  0  0  0  0  0  0  # atno 17242 bound_to 17212
  184.9465   11.7446   42.7525 H   0  0  0  0  0  0  0  0  0  0  0  0  # atno 17298 bound_to 17275
  186.0202    7.1554   42.4974 H   0  0  0  0  0  0  0  0  0  0  0  0  # atno 18234 bound_to 18192
  186.8967    6.4799   45.2749 H   0  0  0  0  0  0  0  0  0  0  0  0  # atno 18290 bound_to 18267
  185.3761    3.9846   46.7738 H   0  0  0  0  0  0  0  0  0  0  0  0  # atno 18294 bound_to 18272
  186.1760    5.5304   49.0545 H   0  0  0  0  0  0  0  0  0  0  0  0  # atno 18324 bound_to 18309
  186.2787    6.3385   51.9127 H   0  0  0  0  0  0  0  0  0  0  0  0  # atno 18399 bound_to 18347
  185.3725    7.5489   55.8162 H   0  0  0  0  0  0  0  0  0  0  0  0  # atno 18486 bound_to 18441
  181.5000   13.0808   51.2249 H   0  0  0  0  0  0  0  0  0  0  0  0  # atno 18494 bound_to 18452
  187.3793    9.7926   56.7500 H   0  0  0  0  0  0  0  0  0  0  0  0  # atno 18557 bound_to 18521
  186.3276   12.1362   58.9903 H   0  0  0  0  0  0  0  0  0  0  0  0  # atno 18598 bound_to 18585
  189.2948   16.6926   58.8334 H   0  0  0  0  0  0  0  0  0  0  0  0  # atno 18643 bound_to 18622
  187.3867   15.9173   58.0619 H   0  0  0  0  0  0  0  0  0  0  0  0  # atno 18701 bound_to 18674
  184.0557   15.6002   57.5408 H   0  0  0  0  0  0  0  0  0  0  0  0  # atno 18757 bound_to 18733
  182.9529   18.0609   58.6607 H   0  0  0  0  0  0  0  0  0  0  0  0  # atno 18817 bound_to 18805
  183.9828   19.4916   61.0656 H   0  0  0  0  0  0  0  0  0  0  0  0  # atno 18857 bound_to 18836
  184.2336   20.9094   58.1287 H   0  0  0  0  0  0  0  0  0  0  0  0  # atno 18937 bound_to 18904
  183.2328   21.2620   56.3097 H   0  0  0  0  0  0  0  0  0  0  0  0  # atno 19021 bound_to 18997
  180.6828   20.4765   56.7760 H   0  0  0  0  0  0  0  0  0  0  0  0  # atno 19085 bound_to 19049
  186.1528    6.6796   60.1162 H   0  0  0  0  0  0  0  0  0  0  0  0  # atno 22429 bound_to 22408
  181.1178   14.7229   50.0951 LP  0  0  0  0  0  0  0  0  0  0  0  0  # atno 27193 bound_to 16944
  179.9734   15.8242   49.7154 LP  0  0  0  0  0  0  0  0  0  0  0  0  # atno 27194 bound_to 16944
  182.6799   14.1454   51.5763 LP  0  0  0  0  0  0  0  0  0  0  0  0  # atno 27195 bound_to 18452
  181.2282   14.2580   52.3155 LP  0  0  0  0  0  0  0  0  0  0  0  0  # atno 27196 bound_to 18452
  186.6322   11.3274   56.3676 LP  0  0  0  0  0  0  0  0  0  0  0  0  # atno 27197 bound_to 18521
  185.5704   13.1230   57.2978 LP  0  0  0  0  0  0  0  0  0  0  0  0  # atno 27198 bound_to 18524
  186.7350   14.1891   58.0101 LP  0  0  0  0  0  0  0  0  0  0  0  0  # atno 27199 bound_to 18524
  186.2189   18.6939   57.6967 LP  0  0  0  0  0  0  0  0  0  0  0  0  # atno 27200 bound_to 18619
  185.7818   18.8624   59.3642 LP  0  0  0  0  0  0  0  0  0  0  0  0  # atno 27201 bound_to 18619
  185.7314   16.2156   58.5294 LP  0  0  0  0  0  0  0  0  0  0  0  0  # atno 27202 bound_to 18674
  185.0166   18.4257   55.0088 LP  0  0  0  0  0  0  0  0  0  0  0  0  # atno 27203 bound_to 18677
  183.7068   18.7800   56.0854 LP  0  0  0  0  0  0  0  0  0  0  0  0  # atno 27204 bound_to 18677
  184.4783   17.0826   56.7108 LP  0  0  0  0  0  0  0  0  0  0  0  0  # atno 27209 bound_to 18733
  185.9758   20.8012   58.0907 LP  0  0  0  0  0  0  0  0  0  0  0  0  # atno 27210 bound_to 18904
  183.8190   20.2155   55.0402 LP  0  0  0  0  0  0  0  0  0  0  0  0  # atno 27211 bound_to 18997
  184.4776    7.8856   49.2348 LP  0  0  0  0  0  0  0  0  0  0  0  0  # atno 27223 bound_to 17119
  185.5372    8.7995   48.2141 LP  0  0  0  0  0  0  0  0  0  0  0  0  # atno 27224 bound_to 17119
  183.8665    9.7895   48.1549 LP  0  0  0  0  0  0  0  0  0  0  0  0  # atno 27225 bound_to 17170
  185.3108    9.7638   44.7979 LP  0  0  0  0  0  0  0  0  0  0  0  0  # atno 27226 bound_to 17212
  179.0357   13.9996   47.5474 LP  0  0  0  0  0  0  0  0  0  0  0  0  # atno 27227 bound_to 11596
  179.6835   12.6293   46.7091 LP  0  0  0  0  0  0  0  0  0  0  0  0  # atno 27228 bound_to 11596
  180.2430   10.3707   49.4149 LP  0  0  0  0  0  0  0  0  0  0  0  0  # atno 27231 bound_to 17044
  180.4050    9.0595   48.2948 LP  0  0  0  0  0  0  0  0  0  0  0  0  # atno 27232 bound_to 17044
  180.9961   19.1274   57.3746 LP  0  0  0  0  0  0  0  0  0  0  0  0  # atno 27233 bound_to 18736
  182.0632   19.8580   58.5268 LP  0  0  0  0  0  0  0  0  0  0  0  0  # atno 27234 bound_to 18736
  183.6262   15.5207   60.7559 LP  0  0  0  0  0  0  0  0  0  0  0  0  # atno 27235 bound_to 18588
  184.1577   15.7705   59.1264 LP  0  0  0  0  0  0  0  0  0  0  0  0  # atno 27236 bound_to 18588
  182.4747   16.6138   59.5228 LP  0  0  0  0  0  0  0  0  0  0  0  0  # atno 27237 bound_to 18805
  183.9142   23.7370   55.2828 LP  0  0  0  0  0  0  0  0  0  0  0  0  # atno 27238 bound_to 18907
  182.3051   23.1429   55.5231 LP  0  0  0  0  0  0  0  0  0  0  0  0  # atno 27239 bound_to 18907
  180.1335   23.0791   54.4950 LP  0  0  0  0  0  0  0  0  0  0  0  0  # atno 27240 bound_to 19000
  178.9091   21.9596   54.9926 LP  0  0  0  0  0  0  0  0  0  0  0  0  # atno 27241 bound_to 19000
  181.4870   21.9994   56.4755 LP  0  0  0  0  0  0  0  0  0  0  0  0  # atno 27242 bound_to 19049
  182.5764   10.2767   44.1152 LP  0  0  0  0  0  0  0  0  0  0  0  0  # atno 27243 bound_to 17173
  183.8169   11.3182   43.5016 LP  0  0  0  0  0  0  0  0  0  0  0  0  # atno 27244 bound_to 17173
  187.4233    9.0609   54.3962 LP  0  0  0  0  0  0  0  0  0  0  0  0  # atno 27245 bound_to 18350
  187.8995    7.4477   53.9830 LP  0  0  0  0  0  0  0  0  0  0  0  0  # atno 27246 bound_to 18350
  184.7261    8.2022   54.3298 LP  0  0  0  0  0  0  0  0  0  0  0  0  # atno 27247 bound_to 18441
  185.3379   14.5536   41.8629 LP  0  0  0  0  0  0  0  0  0  0  0  0  # atno 27248 bound_to 11406
  184.8517   14.1677   43.4800 LP  0  0  0  0  0  0  0  0  0  0  0  0  # atno 27249 bound_to 11406
  186.9564    8.3761   46.0905 LP  0  0  0  0  0  0  0  0  0  0  0  0  # atno 27250 bound_to 18195
  186.1168    8.3810   44.5756 LP  0  0  0  0  0  0  0  0  0  0  0  0  # atno 27251 bound_to 18195
  186.1136    9.5452   41.9190 LP  0  0  0  0  0  0  0  0  0  0  0  0  # atno 27254 bound_to 17215
  187.4722    9.9037   42.9317 LP  0  0  0  0  0  0  0  0  0  0  0  0  # atno 27255 bound_to 17215
  186.2581   12.6946   42.1101 LP  0  0  0  0  0  0  0  0  0  0  0  0  # atno 27256 bound_to 17275
  187.2973    4.8597   45.7896 LP  0  0  0  0  0  0  0  0  0  0  0  0  # atno 27257 bound_to 18267
  187.6016    6.5160   49.3059 LP  0  0  0  0  0  0  0  0  0  0  0  0  # atno 27258 bound_to 18309
  187.2507    5.4608   53.0780 LP  0  0  0  0  0  0  0  0  0  0  0  0  # atno 27259 bound_to 18347
  184.6861    4.0451   52.0698 LP  0  0  0  0  0  0  0  0  0  0  0  0  # atno 27260 bound_to 18312
  184.3941    5.3213   50.9358 LP  0  0  0  0  0  0  0  0  0  0  0  0  # atno 27261 bound_to 18312
  186.0050    7.9244   57.5641 LP  0  0  0  0  0  0  0  0  0  0  0  0  # atno 27262 bound_to 18444
  186.3993    9.1020   58.7715 LP  0  0  0  0  0  0  0  0  0  0  0  0  # atno 27263 bound_to 18444
  195.4656    9.1784   55.1954 LP  0  0  0  0  0  0  0  0  0  0  0  0  # atno 27264 bound_to 7509
  186.6944    3.3010   48.2022 LP  0  0  0  0  0  0  0  0  0  0  0  0  # atno 27265 bound_to 18270
  188.3145    3.8743   47.9867 LP  0  0  0  0  0  0  0  0  0  0  0  0  # atno 27266 bound_to 18270
  196.3724   11.9649   53.4629 LP  0  0  0  0  0  0  0  0  0  0  0  0  # atno 27267 bound_to 7448
  186.8771   11.8535   60.6246 LP  0  0  0  0  0  0  0  0  0  0  0  0  # atno 27268 bound_to 18585
  190.0805    2.6676   50.9080 LP  0  0  0  0  0  0  0  0  0  0  0  0  # atno 27269 bound_to 10088
  189.7533    1.2091   51.5655 LP  0  0  0  0  0  0  0  0  0  0  0  0  # atno 27270 bound_to 10088
  183.9296    4.4531   46.1944 LP  0  0  0  0  0  0  0  0  0  0  0  0  # atno 27271 bound_to 18272
  184.0877    4.0389   47.7661 LP  0  0  0  0  0  0  0  0  0  0  0  0  # atno 27272 bound_to 18272
  178.8393   10.3843   54.7606 LP  0  0  0  0  0  0  0  0  0  0  0  0  # atno 27273 bound_to 16936
  178.8178   11.5689   53.4971 LP  0  0  0  0  0  0  0  0  0  0  0  0  # atno 27274 bound_to 16936

> <Gold.Score>
     Fitness  S(hb_ext) S(vdw_ext)  S(hb_int)    S(int)      intcor
     25.61       6.00      17.57       0.00      -4.55      -0.76

> <Gold.Goldscore.Fitness>
25.6071

> <Gold.Goldscore.Internal.Vdw>
-4.6159

> <Gold.Goldscore.Internal.Torsion>
-0.6886

> <Gold.Goldscore.External.Vdw>
17.5659

> <Gold.Goldscore.Internal.HBond>
0.0000

> <Gold.Goldscore.External.HBond>
6.0000

> <Gold.Goldscore.Internal.Correction>
-0.7585

> <Gold.Goldscore.Hbonds>
donor molecule, donor type, donor heavy atom, donor atom, acceptor molecule, acceptor atom, score
      L1  H     8    22       P1 18681  1.00

> <Gold.Goldscore.Internal.Vdw.Weighted>
-4.6159

> <Gold.Goldscore.Internal.Torsion.Weighted>
-0.6886

> <Gold.Goldscore.External.Vdw.Weighted>
24.1531

> <Gold.Goldscore.Internal.HBond.Weighted>
0.0000

> <Gold.Goldscore.External.HBond.Weighted>
6.0000

> <Gold.Goldscore.Internal.Correction.Weighted>
-0.7585

> <Gold.Rescore>
     Score     S(PLP)   S(hbond)     S(cho)   S(metal)  DE(clash)   DE(tors)     intcor
     15.85     -16.70       0.42       0.00       0.00       1.42       0.35       ----

> <Gold.PLP.Fitness>
15.8493

> <Gold.PLP.PLP>
-16.7028

> <Gold.PLP.part.hbond>
-2.7212

> <Gold.PLP.part.metal>
0.0000

> <Gold.PLP.part.buried>
1.5133

> <Gold.PLP.part.nonpolar>
-15.3749

> <Gold.PLP.part.repulsive>
0.5735

> <Gold.PLP.ligand.clash>
1.4160

> <Gold.PLP.ligand.torsion>
0.3525

> <Gold.PLP.Chemscore.Hbond>
0.4225

> <Gold.PLP.Chemscore.CHOScore>
0.0000

> <Gold.PLP.Chemscore.Metal>
0.0000

> <Gold.Chemscore.Hbonds>
donor molecule, donor type, donor heavy atom, donor atom, acceptor molecule, acceptor atom, score
      L1  H     8    22       P1 18681  1.00

> <Gold.PLP.Chemscore.Internal.Correction>
   9.000000E+99

