#       Name:                CT1002167954
#       Creating user name   hitesit
#       Creation time:       Sun Apr 16 20:21:50 2023


#       File generated by GOLD software.
#

@<TRIPOS>MOLECULE
CT1002167954|ligand_prepared|mol2|1|dock1
    29    30     1
SMALL
NO_CHARGES


@<TRIPOS>ATOM
      1 C1         185.8836  17.3406  50.5388 C.3            1 RES1               0.0000
      2 C2         186.4512  15.9940  50.0454 C.ar           1 RES1               0.0000
      3 C3         185.2364  18.0029  49.3261 C.2            1 RES1               0.0000
      4 C4         184.9064  17.0063  51.6604 C.2            1 RES1               0.0000
      5 C5         186.9551  18.2991  51.1086 C.3            1 RES1               0.0000
      6 C6         187.5991  15.9542  49.2597 C.ar           1 RES1               0.0000
      7 C7         185.8405  14.7855  50.3694 C.ar           1 RES1               0.0000
      8 N8         183.8740  18.0239  49.2696 N.am           1 RES1               0.0000
      9 O9         185.9113  18.4646  48.4141 O.2            1 RES1               0.0000
     10 N10        183.5783  17.2750  51.4562 N.am           1 RES1               0.0000
     11 O11        185.2724  16.4974  52.7127 O.2            1 RES1               0.0000
     12 C12        186.3766  19.5107  51.8223 C.3            1 RES1               0.0000
     13 C13        188.1195  14.7496  48.8164 C.ar           1 RES1               0.0000
     14 C14        186.3624  13.5819  49.9248 C.ar           1 RES1               0.0000
     15 C15        183.0139  17.7402  50.2998 C.2            1 RES1               0.0000
     16 C16        187.5019  13.5628  49.1489 C.ar           1 RES1               0.0000
     17 O17        181.8038  17.9051  50.1747 O.2            1 RES1               0.0000
     18 H18        187.5876  17.7437  51.8119 H              1 RES1               0.0000
     19 H19        187.5926  18.6453  50.2856 H              1 RES1               0.0000
     20 H20        188.0975  16.8782  48.9859 H              1 RES1               0.0000
     21 H21        184.9424  14.7764  50.9777 H              1 RES1               0.0000
     22 H22        183.4559  18.2736  48.3790 H              1 RES1               0.0000
     23 H23        182.9524  17.1133  52.2389 H              1 RES1               0.0000
     24 H24        187.1706  20.1500  52.2025 H              1 RES1               0.0000
     25 H25        185.7619  20.1003  51.1453 H              1 RES1               0.0000
     26 H26        185.7569  19.2040  52.6625 H              1 RES1               0.0000
     27 H27        189.0157  14.7401  48.2049 H              1 RES1               0.0000
     28 H28        185.8727  12.6504  50.1884 H              1 RES1               0.0000
     29 H29        187.9099  12.6193  48.8018 H              1 RES1               0.0000
@<TRIPOS>BOND
    1    1    2 1     
    2    1    3 1     
    3    1    4 1     
    4    1    5 1     
    5    2    6 ar    
    6    2    7 ar    
    7    3    8 1     
    8    3    9 2     
    9    4   10 1     
   10    4   11 2     
   11    5   12 1     
   12    5   18 1     
   13    5   19 1     
   14    6   13 ar    
   15    6   20 1     
   16    7   14 ar    
   17    7   21 1     
   18    8   15 1     
   19    8   22 1     
   20   10   15 1     
   21   10   23 1     
   22   12   24 1     
   23   12   25 1     
   24   12   26 1     
   25   13   16 ar    
   26   13   27 1     
   27   14   16 ar    
   28   14   28 1     
   29   15   17 2     
   30   16   29 1     
@<TRIPOS>SUBSTRUCTURE
      1 RES1           1
@<TRIPOS>SET
DONOR_HYDROGENS      STATIC     ATOMS    <user>   **** ""
2 22 23
ATOM$RED        STATIC     ATOMS    COLORGROUP SYSTEM
2 22 23
@<TRIPOS>COMMENT
> <Gold.Version>
2022.3.0

> <Gold.Id.Protein>
unknown|4d1n_clean|pdb

> <Gold.Protein.RotatedTorsions>
[ 16986 16944 16943 16941 ] final  -96.44 input   59.98 | X-H torsion
[ 18494 18452 18451 18449 ] final   76.69 input   59.98 | X-H torsion
[ 18557 18521 18522 18523 ] final -169.79 input   91.55 | X-H torsion
[ 18701 18674 18675 18676 ] final  -62.32 input  121.65 | X-H torsion
[ 18757 18733 18734 18735 ] final   68.17 input   95.18 | X-H torsion
[ 18937 18904 18905 18906 ] final -125.11 input   99.08 | X-H torsion
[ 19021 18997 18998 18999 ] final  141.23 input  121.68 | X-H torsion
[ 17190 17170 17171 17172 ] final   38.02 input   47.05 | X-H torsion
[ 17242 17212 17213 17214 ] final  -35.19 input  118.29 | X-H torsion
[ 18817 18805 18806 18807 ] final -126.82 input  116.09 | X-H torsion
[ 19085 19049 19050 19051 ] final  162.17 input   88.91 | X-H torsion
[ 18486 18441 18442 18443 ] final  -75.53 input  100.68 | X-H torsion
[ 17298 17275 17276 17277 ] final -165.31 input   51.25 | X-H torsion
[ 18290 18267 18268 18269 ] final   61.08 input   31.65 | X-H torsion
[ 18324 18309 18310 18311 ] final -101.85 input   53.83 | X-H torsion
[ 18399 18347 18348 18349 ] final -142.41 input   27.99 | X-H torsion
[ 7521 7509 7510 7511 ] final  130.31 input   80.33 | X-H torsion
[ 7493 7448 7449 7450 ] final   48.01 input   99.31 | X-H torsion
[ 18598 18585 18586 18587 ] final  154.94 input  129.83 | X-H torsion
[ 10115 10088 10087 10084 ] final    8.90 input   59.98 | X-H torsion
[ 18294 18272 18271 18268 ] final -124.44 input   59.99 | X-H torsion
[ 18643 18622 18620 18617 ] final   76.11 input   59.97 | X-H torsion
[ 18857 18836 18837 18838 ] final  -68.61 input   87.55 | X-H torsion
[ 22429 22408 22409 22410 ] final    8.11 input   59.22 | X-H torsion
[ 10151 10126 10127 10128 ] final -157.12 input   20.82 | X-H torsion
[ 18234 18192 18193 18194 ] final  125.95 input   40.98 | X-H torsion
[ 11814 11769 11770 11771 ] final  -55.34 input   85.42 | X-H torsion
[ 16978 16933 16934 16935 ] final -179.84 input   88.91 | X-H torsion
[ 27198 18524 18523 18522 ] final -153.54 input    0.00 | X-H torsion
[ 27200 18619 18618 18617 ] final   99.67 input    0.00 | X-H torsion
[ 27203 18677 18676 18675 ] final -179.00 input    0.00 | X-H torsion
[ 27223 17119 17118 17117 ] final   81.31 input    0.00 | X-H torsion
[ 27227 11596 11595 11594 ] final -156.36 input   -0.00 | X-H torsion
[ 27231 17044 17043 17042 ] final  160.07 input    0.00 | X-H torsion
[ 27233 18736 18735 18734 ] final -140.74 input   -0.00 | X-H torsion
[ 27235 18588 18587 18586 ] final -111.59 input    0.00 | X-H torsion
[ 27238 18907 18906 18905 ] final -122.70 input    0.00 | X-H torsion
[ 27240 19000 18999 18998 ] final   74.23 input    0.00 | X-H torsion
[ 27243 17173 17172 17171 ] final  -46.39 input    0.00 | X-H torsion
[ 27245 18350 18349 18348 ] final  152.91 input    0.00 | X-H torsion
[ 27248 11406 11405 11404 ] final -115.74 input   -0.00 | X-H torsion
[ 27250 18195 18194 18193 ] final   14.08 input    0.00 | X-H torsion
[ 27254 17215 17214 17213 ] final   92.16 input   -0.00 | X-H torsion
[ 27260 18312 18311 18310 ] final   92.40 input   -0.00 | X-H torsion
[ 27262 18444 18443 18442 ] final   70.83 input    0.00 | X-H torsion
[ 27265 18270 18269 18268 ] final   82.20 input    0.00 | X-H torsion
[ 27273 16936 16935 16934 ] final   74.93 input   -0.00 | X-H torsion

> <Gold.Protein.ActiveResidues>
 TRP414  CYS420  VAL421  GLY422  LEU460  SER462  ALA463  SER482  GLN483  ILE485 
 ARG486  TYR487  ASP500  ASN503  TRP566  TYR567  LEU569  PRO570  ALA571  VAL572 
 SER573  ASN574  PHE589  SER590  GLY591  TRP592  TYR593  MET594  GLY595  THR596 
 GLU597  ILE598  GLY599  VAL600  ARG601  ASP602  TYR603  ARG608  ILE653  VAL654 
 TRP683  PRO687  HEM750  H4B760 

> <Gold.Protein.RotatedAtoms>
  194.9557   11.0092   53.5031 H   0  0  0  0  0  0  0  0  0  0  0  0  # atno 7493 bound_to 7448
  194.4866    9.4285   54.1152 H   0  0  0  0  0  0  0  0  0  0  0  0  # atno 7521 bound_to 7509
  188.5403    1.9190   51.3830 H   0  0  0  0  0  0  0  0  0  0  0  0  # atno 10115 bound_to 10088
  187.6536    0.7539   47.6423 H   0  0  0  0  0  0  0  0  0  0  0  0  # atno 10151 bound_to 10126
  175.9290   16.9013   46.3898 H   0  0  0  0  0  0  0  0  0  0  0  0  # atno 11814 bound_to 11769
  175.4586   12.9391   53.2234 H   0  0  0  0  0  0  0  0  0  0  0  0  # atno 16978 bound_to 16933
  180.6627   15.3613   50.3555 H   0  0  0  0  0  0  0  0  0  0  0  0  # atno 16986 bound_to 16944
  182.8741   10.8060   47.2179 H   0  0  0  0  0  0  0  0  0  0  0  0  # atno 17190 bound_to 17170
  184.7704   10.1031   44.8197 H   0  0  0  0  0  0  0  0  0  0  0  0  # atno 17242 bound_to 17212
  185.4002   11.4443   42.7746 H   0  0  0  0  0  0  0  0  0  0  0  0  # atno 17298 bound_to 17275
  187.6185    7.6998   42.0757 H   0  0  0  0  0  0  0  0  0  0  0  0  # atno 18234 bound_to 18192
  186.8098    4.8303   45.5961 H   0  0  0  0  0  0  0  0  0  0  0  0  # atno 18290 bound_to 18267
  183.9190    4.4539   46.2119 H   0  0  0  0  0  0  0  0  0  0  0  0  # atno 18294 bound_to 18272
  186.6276    5.2747   48.8007 H   0  0  0  0  0  0  0  0  0  0  0  0  # atno 18324 bound_to 18309
  186.0874    5.6027   52.0120 H   0  0  0  0  0  0  0  0  0  0  0  0  # atno 18399 bound_to 18347
  185.8569    7.8523   54.7128 H   0  0  0  0  0  0  0  0  0  0  0  0  # atno 18486 bound_to 18441
  182.3484   13.3762   51.0914 H   0  0  0  0  0  0  0  0  0  0  0  0  # atno 18494 bound_to 18452
  187.6048    9.9236   56.6076 H   0  0  0  0  0  0  0  0  0  0  0  0  # atno 18557 bound_to 18521
  186.3977   11.3947   60.4327 H   0  0  0  0  0  0  0  0  0  0  0  0  # atno 18598 bound_to 18585
  189.1014   16.5579   58.7576 H   0  0  0  0  0  0  0  0  0  0  0  0  # atno 18643 bound_to 18622
  186.4768   16.9071   58.5525 H   0  0  0  0  0  0  0  0  0  0  0  0  # atno 18701 bound_to 18674
  184.1784   15.9680   57.9156 H   0  0  0  0  0  0  0  0  0  0  0  0  # atno 18757 bound_to 18733
  181.8292   17.2251   59.0037 H   0  0  0  0  0  0  0  0  0  0  0  0  # atno 18817 bound_to 18805
  183.2854   19.8391   60.1940 H   0  0  0  0  0  0  0  0  0  0  0  0  # atno 18857 bound_to 18836
  185.5525   21.5395   58.4466 H   0  0  0  0  0  0  0  0  0  0  0  0  # atno 18937 bound_to 18904
  183.6214   19.8927   55.4169 H   0  0  0  0  0  0  0  0  0  0  0  0  # atno 19021 bound_to 18997
  180.6961   20.4734   56.7940 H   0  0  0  0  0  0  0  0  0  0  0  0  # atno 19085 bound_to 19049
  185.9591    8.4103   60.2067 H   0  0  0  0  0  0  0  0  0  0  0  0  # atno 22429 bound_to 22408
  179.8798   15.5439   48.9409 LP  0  0  0  0  0  0  0  0  0  0  0  0  # atno 27193 bound_to 16944
  180.9990   14.3671   49.1122 LP  0  0  0  0  0  0  0  0  0  0  0  0  # atno 27194 bound_to 16944
  182.1353   14.5738   52.1727 LP  0  0  0  0  0  0  0  0  0  0  0  0  # atno 27195 bound_to 18452
  180.9188   13.5322   51.8535 LP  0  0  0  0  0  0  0  0  0  0  0  0  # atno 27196 bound_to 18452
  186.4131   11.2002   56.5059 LP  0  0  0  0  0  0  0  0  0  0  0  0  # atno 27197 bound_to 18521
  186.0072   14.1696   58.3359 LP  0  0  0  0  0  0  0  0  0  0  0  0  # atno 27198 bound_to 18524
  186.2982   13.1425   56.9719 LP  0  0  0  0  0  0  0  0  0  0  0  0  # atno 27199 bound_to 18524
  186.8034   18.9295   58.2438 LP  0  0  0  0  0  0  0  0  0  0  0  0  # atno 27200 bound_to 18619
  185.1972   18.6268   58.8171 LP  0  0  0  0  0  0  0  0  0  0  0  0  # atno 27201 bound_to 18619
  186.6258   15.2427   58.0472 LP  0  0  0  0  0  0  0  0  0  0  0  0  # atno 27202 bound_to 18674
  183.5388   18.5712   55.8151 LP  0  0  0  0  0  0  0  0  0  0  0  0  # atno 27203 bound_to 18677
  185.1846   18.6345   55.2791 LP  0  0  0  0  0  0  0  0  0  0  0  0  # atno 27204 bound_to 18677
  184.3597   16.7271   56.3484 LP  0  0  0  0  0  0  0  0  0  0  0  0  # atno 27209 bound_to 18733
  184.6806   20.1825   57.7785 LP  0  0  0  0  0  0  0  0  0  0  0  0  # atno 27210 bound_to 18904
  183.4383   21.5568   55.9146 LP  0  0  0  0  0  0  0  0  0  0  0  0  # atno 27211 bound_to 18997
  184.4035    7.7317   48.8351 LP  0  0  0  0  0  0  0  0  0  0  0  0  # atno 27223 bound_to 17119
  185.6112    8.9534   48.6138 LP  0  0  0  0  0  0  0  0  0  0  0  0  # atno 27224 bound_to 17119
  183.5705    9.5343   48.1936 LP  0  0  0  0  0  0  0  0  0  0  0  0  # atno 27225 bound_to 17170
  185.9097   10.5108   46.0842 LP  0  0  0  0  0  0  0  0  0  0  0  0  # atno 27226 bound_to 17212
  179.0359   14.0001   47.5468 LP  0  0  0  0  0  0  0  0  0  0  0  0  # atno 27227 bound_to 11596
  179.6832   12.6288   46.7097 LP  0  0  0  0  0  0  0  0  0  0  0  0  # atno 27228 bound_to 11596
  180.8720   10.3718   48.9906 LP  0  0  0  0  0  0  0  0  0  0  0  0  # atno 27231 bound_to 17044
  179.7760    9.0584   48.7191 LP  0  0  0  0  0  0  0  0  0  0  0  0  # atno 27232 bound_to 17044
  182.1063   19.8663   58.4779 LP  0  0  0  0  0  0  0  0  0  0  0  0  # atno 27233 bound_to 18736
  180.9530   19.1190   57.4236 LP  0  0  0  0  0  0  0  0  0  0  0  0  # atno 27234 bound_to 18736
  184.1588   15.7722   59.1270 LP  0  0  0  0  0  0  0  0  0  0  0  0  # atno 27235 bound_to 18588
  183.6252   15.5190   60.7553 LP  0  0  0  0  0  0  0  0  0  0  0  0  # atno 27236 bound_to 18588
  183.5591   17.4204   59.1917 LP  0  0  0  0  0  0  0  0  0  0  0  0  # atno 27237 bound_to 18805
  182.4315   23.2744   55.9155 LP  0  0  0  0  0  0  0  0  0  0  0  0  # atno 27238 bound_to 18907
  183.7878   23.6055   54.8904 LP  0  0  0  0  0  0  0  0  0  0  0  0  # atno 27239 bound_to 18907
  179.1036   21.7917   54.5291 LP  0  0  0  0  0  0  0  0  0  0  0  0  # atno 27240 bound_to 19000
  179.9390   23.2470   54.9585 LP  0  0  0  0  0  0  0  0  0  0  0  0  # atno 27241 bound_to 19000
  181.4740   22.0025   56.4579 LP  0  0  0  0  0  0  0  0  0  0  0  0  # atno 27242 bound_to 19049
  182.9547    9.9798   43.6566 LP  0  0  0  0  0  0  0  0  0  0  0  0  # atno 27243 bound_to 17173
  183.4385   11.6150   43.9603 LP  0  0  0  0  0  0  0  0  0  0  0  0  # atno 27244 bound_to 17173
  187.4033    9.0725   54.3076 LP  0  0  0  0  0  0  0  0  0  0  0  0  # atno 27245 bound_to 18350
  187.9195    7.4361   54.0716 LP  0  0  0  0  0  0  0  0  0  0  0  0  # atno 27246 bound_to 18350
  184.2536    7.9063   55.4062 LP  0  0  0  0  0  0  0  0  0  0  0  0  # atno 27247 bound_to 18441
  184.8397   13.6160   42.3102 LP  0  0  0  0  0  0  0  0  0  0  0  0  # atno 27248 bound_to 11406
  185.3499   15.1052   43.0327 LP  0  0  0  0  0  0  0  0  0  0  0  0  # atno 27249 bound_to 11406
  186.5790    8.5268   44.4809 LP  0  0  0  0  0  0  0  0  0  0  0  0  # atno 27250 bound_to 18195
  186.4942    8.2303   46.1852 LP  0  0  0  0  0  0  0  0  0  0  0  0  # atno 27251 bound_to 18195
  186.0321    9.3271   42.5410 LP  0  0  0  0  0  0  0  0  0  0  0  0  # atno 27254 bound_to 17215
  187.5537   10.1218   42.3097 LP  0  0  0  0  0  0  0  0  0  0  0  0  # atno 27255 bound_to 17215
  185.8072   12.9932   42.0882 LP  0  0  0  0  0  0  0  0  0  0  0  0  # atno 27256 bound_to 17275
  187.3824    6.4758   45.4749 LP  0  0  0  0  0  0  0  0  0  0  0  0  # atno 27257 bound_to 18267
  187.1658    6.7628   49.5508 LP  0  0  0  0  0  0  0  0  0  0  0  0  # atno 27258 bound_to 18309
  187.4341    6.1659   52.9828 LP  0  0  0  0  0  0  0  0  0  0  0  0  # atno 27259 bound_to 18347
  184.7310    3.9781   51.9679 LP  0  0  0  0  0  0  0  0  0  0  0  0  # atno 27260 bound_to 18312
  184.3492    5.3883   51.0376 LP  0  0  0  0  0  0  0  0  0  0  0  0  # atno 27261 bound_to 18312
  186.5476    7.9343   57.6243 LP  0  0  0  0  0  0  0  0  0  0  0  0  # atno 27262 bound_to 18444
  185.8566    9.0922   58.7113 LP  0  0  0  0  0  0  0  0  0  0  0  0  # atno 27263 bound_to 18444
  196.0595    8.8386   54.5826 LP  0  0  0  0  0  0  0  0  0  0  0  0  # atno 27264 bound_to 7509
  188.2510    3.8932   47.7792 LP  0  0  0  0  0  0  0  0  0  0  0  0  # atno 27265 bound_to 18270
  186.7580    3.2821   48.4097 LP  0  0  0  0  0  0  0  0  0  0  0  0  # atno 27266 bound_to 18270
  196.5603   11.6825   53.3079 LP  0  0  0  0  0  0  0  0  0  0  0  0  # atno 27267 bound_to 7448
  186.8086   12.5782   59.2148 LP  0  0  0  0  0  0  0  0  0  0  0  0  # atno 27268 bound_to 18585
  189.7710    2.8479   50.8625 LP  0  0  0  0  0  0  0  0  0  0  0  0  # atno 27269 bound_to 10088
  190.0664    1.3606   51.4686 LP  0  0  0  0  0  0  0  0  0  0  0  0  # atno 27270 bound_to 10088
  184.1048    4.0333   47.7727 LP  0  0  0  0  0  0  0  0  0  0  0  0  # atno 27271 bound_to 18272
  185.3801    3.9859   46.7538 LP  0  0  0  0  0  0  0  0  0  0  0  0  # atno 27272 bound_to 18272
  178.3643   11.1626   54.8359 LP  0  0  0  0  0  0  0  0  0  0  0  0  # atno 27273 bound_to 16936
  179.2928   10.7906   53.4218 LP  0  0  0  0  0  0  0  0  0  0  0  0  # atno 27274 bound_to 16936

> <Gold.Score>
     Fitness  S(hb_ext) S(vdw_ext)  S(hb_int)    S(int)      intcor
     33.76       6.03      21.16       0.00      -1.35      -0.80

> <Gold.Goldscore.Fitness>
33.7644

> <Gold.Goldscore.Internal.Vdw>
-1.6180

> <Gold.Goldscore.Internal.Torsion>
-0.5374

> <Gold.Goldscore.External.Vdw>
21.1566

> <Gold.Goldscore.Internal.HBond>
0.0000

> <Gold.Goldscore.External.HBond>
6.0278

> <Gold.Goldscore.Internal.Correction>
-0.8016

> <Gold.Goldscore.Hbonds>
donor molecule, donor type, donor heavy atom, donor atom, acceptor molecule, acceptor atom, score
      P1  H 11682 11730       L1    17  0.27
      P1  H 19334 19368       L1    17  0.19
      L1  H    10    23       P1 19004  0.55

> <Gold.Goldscore.Internal.Vdw.Weighted>
-1.6180

> <Gold.Goldscore.Internal.Torsion.Weighted>
-0.5374

> <Gold.Goldscore.External.Vdw.Weighted>
29.0904

> <Gold.Goldscore.Internal.HBond.Weighted>
0.0000

> <Gold.Goldscore.External.HBond.Weighted>
6.0278

> <Gold.Goldscore.Internal.Correction.Weighted>
-0.8016

> <Gold.Rescore>
     Score     S(PLP)   S(hbond)     S(cho)   S(metal)  DE(clash)   DE(tors)     intcor
     22.90     -18.58       1.96       0.00       0.00       1.15       0.20       ----

> <Gold.PLP.Fitness>
22.8993

> <Gold.PLP.PLP>
-18.5766

> <Gold.PLP.part.hbond>
-5.2977

> <Gold.PLP.part.metal>
0.0000

> <Gold.PLP.part.buried>
11.1139

> <Gold.PLP.part.nonpolar>
-28.0721

> <Gold.PLP.part.repulsive>
3.1030

> <Gold.PLP.ligand.clash>
1.1485

> <Gold.PLP.ligand.torsion>
0.2014

> <Gold.PLP.Chemscore.Hbond>
1.9580

> <Gold.PLP.Chemscore.CHOScore>
0.0000

> <Gold.PLP.Chemscore.Metal>
0.0000

> <Gold.Chemscore.Hbonds>
donor molecule, donor type, donor heavy atom, donor atom, acceptor molecule, acceptor atom, score
      L1  H    10    23       P1 19004  0.75
      P1  H 11682 11730       L1    17  0.77
      P1  H 19334 19368       L1    17  1.00

> <Gold.PLP.Chemscore.Internal.Correction>
   9.000000E+99

