#       Name:                CT1002167954
#       Creating user name   hitesit
#       Creation time:       Sun Apr 16 20:21:53 2023


#       File generated by GOLD software.
#

@<TRIPOS>MOLECULE
CT1002167954|ligand_prepared|mol2|1|dock5
    29    30     1
SMALL
NO_CHARGES


@<TRIPOS>ATOM
      1 C1         186.9764  14.0180  49.9022 C.3            1 RES1               0.0000
      2 C2         187.5745  12.7909  50.6200 C.ar           1 RES1               0.0000
      3 C3         185.7005  13.5348  49.2189 C.2            1 RES1               0.0000
      4 C4         186.7443  15.0714  50.9798 C.2            1 RES1               0.0000
      5 C5         187.9071  14.6292  48.8291 C.3            1 RES1               0.0000
      6 C6         188.8063  12.2730  50.2309 C.ar           1 RES1               0.0000
      7 C7         186.9089  12.1687  51.6729 C.ar           1 RES1               0.0000
      8 N8         184.5093  13.9066  49.7692 N.am           1 RES1               0.0000
      9 O9         185.7392  12.8060  48.2352 O.2            1 RES1               0.0000
     10 N10        185.4517  15.4312  51.2582 N.am           1 RES1               0.0000
     11 O11        187.6683  15.5810  51.6019 O.2            1 RES1               0.0000
     12 C12        187.3422  15.8751  48.1653 C.3            1 RES1               0.0000
     13 C13        189.3541  11.1748  50.8729 C.ar           1 RES1               0.0000
     14 C14        187.4585  11.0705  52.3134 C.ar           1 RES1               0.0000
     15 C15        184.3222  14.8742  50.7233 C.2            1 RES1               0.0000
     16 C16        188.6809  10.5731  51.9147 C.ar           1 RES1               0.0000
     17 O17        183.1927  15.2135  51.0643 O.2            1 RES1               0.0000
     18 H18        188.8666  14.8825  49.2967 H              1 RES1               0.0000
     19 H19        188.0994  13.8741  48.0569 H              1 RES1               0.0000
     20 H20        189.3495  12.7318  49.4114 H              1 RES1               0.0000
     21 H21        185.9454  12.5421  52.0028 H              1 RES1               0.0000
     22 H22        183.6811  13.4201  49.4410 H              1 RES1               0.0000
     23 H23        185.3193  16.1840  51.9261 H              1 RES1               0.0000
     24 H24        188.0344  16.2633  47.4211 H              1 RES1               0.0000
     25 H25        186.3997  15.6540  47.6686 H              1 RES1               0.0000
     26 H26        187.1624  16.6563  48.9010 H              1 RES1               0.0000
     27 H27        190.3159  10.7864  50.5544 H              1 RES1               0.0000
     28 H28        186.9248  10.5997  53.1324 H              1 RES1               0.0000
     29 H29        189.1105   9.7131  52.4177 H              1 RES1               0.0000
@<TRIPOS>BOND
    1    1    2 1     
    2    1    3 1     
    3    1    4 1     
    4    1    5 1     
    5    2    6 ar    
    6    2    7 ar    
    7    3    8 1     
    8    3    9 2     
    9    4   10 1     
   10    4   11 2     
   11    5   12 1     
   12    5   18 1     
   13    5   19 1     
   14    6   13 ar    
   15    6   20 1     
   16    7   14 ar    
   17    7   21 1     
   18    8   15 1     
   19    8   22 1     
   20   10   15 1     
   21   10   23 1     
   22   12   24 1     
   23   12   25 1     
   24   12   26 1     
   25   13   16 ar    
   26   13   27 1     
   27   14   16 ar    
   28   14   28 1     
   29   15   17 2     
   30   16   29 1     
@<TRIPOS>SUBSTRUCTURE
      1 RES1           1
@<TRIPOS>SET
DONOR_HYDROGENS      STATIC     ATOMS    <user>   **** ""
2 22 23
ATOM$RED        STATIC     ATOMS    COLORGROUP SYSTEM
2 22 23
@<TRIPOS>COMMENT
> <Gold.Version>
2022.3.0

> <Gold.Id.Protein>
unknown|4d1n_clean|pdb

> <Gold.Protein.RotatedTorsions>
[ 16986 16944 16943 16941 ] final  111.27 input   59.98 | X-H torsion
[ 18494 18452 18451 18449 ] final -111.75 input   59.98 | X-H torsion
[ 18557 18521 18522 18523 ] final  -19.81 input   91.55 | X-H torsion
[ 18701 18674 18675 18676 ] final  147.78 input  121.65 | X-H torsion
[ 18757 18733 18734 18735 ] final -150.65 input   95.18 | X-H torsion
[ 18937 18904 18905 18906 ] final   44.53 input   99.08 | X-H torsion
[ 19021 18997 18998 18999 ] final  -15.88 input  121.68 | X-H torsion
[ 17190 17170 17171 17172 ] final -159.00 input   47.05 | X-H torsion
[ 17242 17212 17213 17214 ] final  -12.13 input  118.29 | X-H torsion
[ 18817 18805 18806 18807 ] final   91.46 input  116.09 | X-H torsion
[ 19085 19049 19050 19051 ] final -114.33 input   88.91 | X-H torsion
[ 18486 18441 18442 18443 ] final -100.14 input  100.68 | X-H torsion
[ 17298 17275 17276 17277 ] final   12.57 input   51.25 | X-H torsion
[ 18290 18267 18268 18269 ] final -125.74 input   31.65 | X-H torsion
[ 18324 18309 18310 18311 ] final   99.77 input   53.83 | X-H torsion
[ 18399 18347 18348 18349 ] final  -58.84 input   27.99 | X-H torsion
[ 7521 7509 7510 7511 ] final   33.15 input   80.33 | X-H torsion
[ 7493 7448 7449 7450 ] final  -47.98 input   99.31 | X-H torsion
[ 18598 18585 18586 18587 ] final -170.76 input  129.83 | X-H torsion
[ 10115 10088 10087 10084 ] final   52.87 input   59.98 | X-H torsion
[ 18294 18272 18271 18268 ] final  -94.37 input   59.99 | X-H torsion
[ 18643 18622 18620 18617 ] final -174.58 input   59.97 | X-H torsion
[ 18857 18836 18837 18838 ] final  -20.62 input   87.55 | X-H torsion
[ 22429 22408 22409 22410 ] final   81.79 input   59.22 | X-H torsion
[ 10151 10126 10127 10128 ] final  163.93 input   20.82 | X-H torsion
[ 18234 18192 18193 18194 ] final   48.41 input   40.98 | X-H torsion
[ 11814 11769 11770 11771 ] final  127.45 input   85.42 | X-H torsion
[ 16978 16933 16934 16935 ] final   98.64 input   88.91 | X-H torsion
[ 27198 18524 18523 18522 ] final  -57.96 input    0.00 | X-H torsion
[ 27200 18619 18618 18617 ] final  -40.42 input    0.00 | X-H torsion
[ 27203 18677 18676 18675 ] final  167.88 input    0.00 | X-H torsion
[ 27223 17119 17118 17117 ] final  147.68 input    0.00 | X-H torsion
[ 27227 11596 11595 11594 ] final -143.89 input   -0.00 | X-H torsion
[ 27231 17044 17043 17042 ] final -119.91 input    0.00 | X-H torsion
[ 27233 18736 18735 18734 ] final  -78.95 input   -0.00 | X-H torsion
[ 27235 18588 18587 18586 ] final  -77.75 input    0.00 | X-H torsion
[ 27238 18907 18906 18905 ] final   20.67 input    0.00 | X-H torsion
[ 27240 19000 18999 18998 ] final  -21.54 input    0.00 | X-H torsion
[ 27243 17173 17172 17171 ] final  -34.34 input    0.00 | X-H torsion
[ 27245 18350 18349 18348 ] final  -63.70 input    0.00 | X-H torsion
[ 27248 11406 11405 11404 ] final  -58.27 input   -0.00 | X-H torsion
[ 27250 18195 18194 18193 ] final   34.70 input    0.00 | X-H torsion
[ 27254 17215 17214 17213 ] final   80.54 input   -0.00 | X-H torsion
[ 27260 18312 18311 18310 ] final   92.69 input   -0.00 | X-H torsion
[ 27262 18444 18443 18442 ] final  -56.18 input    0.00 | X-H torsion
[ 27265 18270 18269 18268 ] final  -28.49 input    0.00 | X-H torsion
[ 27273 16936 16935 16934 ] final   15.86 input   -0.00 | X-H torsion

> <Gold.Protein.ActiveResidues>
 TRP414  CYS420  VAL421  GLY422  LEU460  SER462  ALA463  SER482  GLN483  ILE485 
 ARG486  TYR487  ASP500  ASN503  TRP566  TYR567  LEU569  PRO570  ALA571  VAL572 
 SER573  ASN574  PHE589  SER590  GLY591  TRP592  TYR593  MET594  GLY595  THR596 
 GLU597  ILE598  GLY599  VAL600  ARG601  ASP602  TYR603  ARG608  ILE653  VAL654 
 TRP683  PRO687  HEM750  H4B760 

> <Gold.Protein.RotatedAtoms>
  196.1371   10.6208   53.0481 H   0  0  0  0  0  0  0  0  0  0  0  0  # atno 7493 bound_to 7448
  195.5501    8.9027   53.5494 H   0  0  0  0  0  0  0  0  0  0  0  0  # atno 7521 bound_to 7509
  188.9149    1.3612   51.5833 H   0  0  0  0  0  0  0  0  0  0  0  0  # atno 10115 bound_to 10088
  187.0891    0.9128   47.6739 H   0  0  0  0  0  0  0  0  0  0  0  0  # atno 10151 bound_to 10126
  176.0556   17.0087   48.1588 H   0  0  0  0  0  0  0  0  0  0  0  0  # atno 11814 bound_to 11769
  176.5891   13.0956   53.0209 H   0  0  0  0  0  0  0  0  0  0  0  0  # atno 16978 bound_to 16933
  180.0819   15.1638   48.6447 H   0  0  0  0  0  0  0  0  0  0  0  0  # atno 16986 bound_to 16944
  183.3414    9.4145   48.1701 H   0  0  0  0  0  0  0  0  0  0  0  0  # atno 17190 bound_to 17170
  185.0431    9.8891   44.7413 H   0  0  0  0  0  0  0  0  0  0  0  0  # atno 17242 bound_to 17212
  185.8428   12.9951   42.1024 H   0  0  0  0  0  0  0  0  0  0  0  0  # atno 17298 bound_to 17275
  187.0019    8.1904   42.8364 H   0  0  0  0  0  0  0  0  0  0  0  0  # atno 18234 bound_to 18192
  187.2949    6.5155   45.4317 H   0  0  0  0  0  0  0  0  0  0  0  0  # atno 18290 bound_to 18267
  184.3589    4.4007   46.0134 H   0  0  0  0  0  0  0  0  0  0  0  0  # atno 18294 bound_to 18272
  187.4665    6.6653   49.4541 H   0  0  0  0  0  0  0  0  0  0  0  0  # atno 18324 bound_to 18309
  186.6148    6.6692   52.0968 H   0  0  0  0  0  0  0  0  0  0  0  0  # atno 18399 bound_to 18347
  185.6518    7.9944   54.4301 H   0  0  0  0  0  0  0  0  0  0  0  0  # atno 18486 bound_to 18441
  181.1602   14.1822   52.2863 H   0  0  0  0  0  0  0  0  0  0  0  0  # atno 18494 bound_to 18452
  186.1906   10.8827   56.7421 H   0  0  0  0  0  0  0  0  0  0  0  0  # atno 18557 bound_to 18521
  186.1095   11.2885   60.0117 H   0  0  0  0  0  0  0  0  0  0  0  0  # atno 18598 bound_to 18585
  190.0610   16.4283   59.9384 H   0  0  0  0  0  0  0  0  0  0  0  0  # atno 18643 bound_to 18622
  187.0468   15.4040   57.9980 H   0  0  0  0  0  0  0  0  0  0  0  0  # atno 18701 bound_to 18674
  184.1744   16.1832   56.2504 H   0  0  0  0  0  0  0  0  0  0  0  0  # atno 18757 bound_to 18733
  183.4140   16.9614   59.5067 H   0  0  0  0  0  0  0  0  0  0  0  0  # atno 18817 bound_to 18805
  183.5172   19.6641   59.5351 H   0  0  0  0  0  0  0  0  0  0  0  0  # atno 18857 bound_to 18836
  184.5426   20.2521   57.8133 H   0  0  0  0  0  0  0  0  0  0  0  0  # atno 18937 bound_to 18904
  183.2954   21.4042   56.1917 H   0  0  0  0  0  0  0  0  0  0  0  0  # atno 19021 bound_to 18997
  180.5207   21.2737   55.9465 H   0  0  0  0  0  0  0  0  0  0  0  0  # atno 19085 bound_to 19049
  186.5391    7.8954   59.5052 H   0  0  0  0  0  0  0  0  0  0  0  0  # atno 22429 bound_to 22408
  181.1665   14.4241   49.6057 LP  0  0  0  0  0  0  0  0  0  0  0  0  # atno 27193 bound_to 16944
  180.2973   15.6858   50.1706 LP  0  0  0  0  0  0  0  0  0  0  0  0  # atno 27194 bound_to 16944
  181.5934   13.0746   51.1752 LP  0  0  0  0  0  0  0  0  0  0  0  0  # atno 27195 bound_to 18452
  182.6569   14.2199   51.6481 LP  0  0  0  0  0  0  0  0  0  0  0  0  # atno 27196 bound_to 18452
  187.7870   10.2685   56.3752 LP  0  0  0  0  0  0  0  0  0  0  0  0  # atno 27197 bound_to 18521
  186.9777   13.8951   57.5431 LP  0  0  0  0  0  0  0  0  0  0  0  0  # atno 27198 bound_to 18524
  185.3277   13.4170   57.7647 LP  0  0  0  0  0  0  0  0  0  0  0  0  # atno 27199 bound_to 18524
  185.5451   18.7877   59.2671 LP  0  0  0  0  0  0  0  0  0  0  0  0  # atno 27200 bound_to 18619
  186.4555   18.7686   57.7938 LP  0  0  0  0  0  0  0  0  0  0  0  0  # atno 27201 bound_to 18619
  186.0655   16.7201   58.5922 LP  0  0  0  0  0  0  0  0  0  0  0  0  # atno 27202 bound_to 18674
  183.5134   18.4631   55.6513 LP  0  0  0  0  0  0  0  0  0  0  0  0  # atno 27203 bound_to 18677
  185.2100   18.7426   55.4430 LP  0  0  0  0  0  0  0  0  0  0  0  0  # atno 27204 bound_to 18677
  184.3635   16.5190   57.9582 LP  0  0  0  0  0  0  0  0  0  0  0  0  # atno 27209 bound_to 18733
  185.6724   21.4467   58.4004 LP  0  0  0  0  0  0  0  0  0  0  0  0  # atno 27210 bound_to 18904
  183.7576   20.0762   55.1557 LP  0  0  0  0  0  0  0  0  0  0  0  0  # atno 27211 bound_to 18997
  184.7693    7.9527   47.9887 LP  0  0  0  0  0  0  0  0  0  0  0  0  # atno 27223 bound_to 17119
  185.2455    8.7324   49.4602 LP  0  0  0  0  0  0  0  0  0  0  0  0  # atno 27224 bound_to 17119
  183.1145   10.8920   47.2645 LP  0  0  0  0  0  0  0  0  0  0  0  0  # atno 27225 bound_to 17170
  185.6456   10.7181   46.1601 LP  0  0  0  0  0  0  0  0  0  0  0  0  # atno 27226 bound_to 17212
  178.9830   13.8717   47.6738 LP  0  0  0  0  0  0  0  0  0  0  0  0  # atno 27227 bound_to 11596
  179.7362   12.7572   46.5827 LP  0  0  0  0  0  0  0  0  0  0  0  0  # atno 27228 bound_to 11596
  180.9425    9.5152   48.2827 LP  0  0  0  0  0  0  0  0  0  0  0  0  # atno 27231 bound_to 17044
  179.7054    9.9150   49.4271 LP  0  0  0  0  0  0  0  0  0  0  0  0  # atno 27232 bound_to 17044
  182.2835   19.7536   57.6138 LP  0  0  0  0  0  0  0  0  0  0  0  0  # atno 27233 bound_to 18736
  180.7758   19.2317   58.2877 LP  0  0  0  0  0  0  0  0  0  0  0  0  # atno 27234 bound_to 18736
  183.8745   15.3560   59.1252 LP  0  0  0  0  0  0  0  0  0  0  0  0  # atno 27235 bound_to 18588
  183.9094   15.9353   60.7571 LP  0  0  0  0  0  0  0  0  0  0  0  0  # atno 27236 bound_to 18588
  182.0298   17.6749   58.7062 LP  0  0  0  0  0  0  0  0  0  0  0  0  # atno 27237 bound_to 18805
  183.9141   23.7605   55.3966 LP  0  0  0  0  0  0  0  0  0  0  0  0  # atno 27238 bound_to 18907
  182.3051   23.1194   55.4092 LP  0  0  0  0  0  0  0  0  0  0  0  0  # atno 27239 bound_to 18907
  180.0291   22.5386   54.0425 LP  0  0  0  0  0  0  0  0  0  0  0  0  # atno 27240 bound_to 19000
  179.0135   22.5001   55.4451 LP  0  0  0  0  0  0  0  0  0  0  0  0  # atno 27241 bound_to 19000
  181.6450   21.2222   57.2842 LP  0  0  0  0  0  0  0  0  0  0  0  0  # atno 27242 bound_to 19049
  182.8276   10.0144   43.7819 LP  0  0  0  0  0  0  0  0  0  0  0  0  # atno 27243 bound_to 17173
  183.5657   11.5804   43.8349 LP  0  0  0  0  0  0  0  0  0  0  0  0  # atno 27244 bound_to 17173
  187.9733    7.5579   54.5991 LP  0  0  0  0  0  0  0  0  0  0  0  0  # atno 27245 bound_to 18350
  187.3494    8.9507   53.7801 LP  0  0  0  0  0  0  0  0  0  0  0  0  # atno 27246 bound_to 18350
  184.4537    7.7676   55.6819 LP  0  0  0  0  0  0  0  0  0  0  0  0  # atno 27247 bound_to 18441
  185.1889   14.1969   41.8263 LP  0  0  0  0  0  0  0  0  0  0  0  0  # atno 27248 bound_to 11406
  185.0007   14.5244   43.5166 LP  0  0  0  0  0  0  0  0  0  0  0  0  # atno 27249 bound_to 11406
  186.2829    8.4389   44.5072 LP  0  0  0  0  0  0  0  0  0  0  0  0  # atno 27250 bound_to 18195
  186.7903    8.3182   46.1589 LP  0  0  0  0  0  0  0  0  0  0  0  0  # atno 27251 bound_to 18195
  186.0882    9.3065   42.7058 LP  0  0  0  0  0  0  0  0  0  0  0  0  # atno 27254 bound_to 17215
  187.4976   10.1424   42.1449 LP  0  0  0  0  0  0  0  0  0  0  0  0  # atno 27255 bound_to 17215
  185.3672   11.4517   42.7563 LP  0  0  0  0  0  0  0  0  0  0  0  0  # atno 27256 bound_to 17275
  186.9071    4.8248   45.6359 LP  0  0  0  0  0  0  0  0  0  0  0  0  # atno 27257 bound_to 18267
  186.3561    5.4208   48.9202 LP  0  0  0  0  0  0  0  0  0  0  0  0  # atno 27258 bound_to 18309
  186.9287    5.1439   52.9016 LP  0  0  0  0  0  0  0  0  0  0  0  0  # atno 27259 bound_to 18347
  184.7296    3.9801   51.9716 LP  0  0  0  0  0  0  0  0  0  0  0  0  # atno 27260 bound_to 18312
  184.3507    5.3863   51.0340 LP  0  0  0  0  0  0  0  0  0  0  0  0  # atno 27261 bound_to 18312
  185.3617    8.6951   58.2705 LP  0  0  0  0  0  0  0  0  0  0  0  0  # atno 27262 bound_to 18444
  187.0426    8.3314   58.0651 LP  0  0  0  0  0  0  0  0  0  0  0  0  # atno 27263 bound_to 18444
  195.0071    9.3589   55.1424 LP  0  0  0  0  0  0  0  0  0  0  0  0  # atno 27264 bound_to 7509
  186.9139    3.5143   47.4653 LP  0  0  0  0  0  0  0  0  0  0  0  0  # atno 27265 bound_to 18270
  188.0951    3.6610   48.7236 LP  0  0  0  0  0  0  0  0  0  0  0  0  # atno 27266 bound_to 18270
  195.4202   12.0573   53.7469 LP  0  0  0  0  0  0  0  0  0  0  0  0  # atno 27267 bound_to 7448
  187.0903   12.6821   59.6263 LP  0  0  0  0  0  0  0  0  0  0  0  0  # atno 27268 bound_to 18585
  189.0688    2.8460   50.9352 LP  0  0  0  0  0  0  0  0  0  0  0  0  # atno 27269 bound_to 10088
  190.3915    1.9241   51.1942 LP  0  0  0  0  0  0  0  0  0  0  0  0  # atno 27270 bound_to 10088
  183.7296    4.1854   47.4984 LP  0  0  0  0  0  0  0  0  0  0  0  0  # atno 27271 bound_to 18272
  185.3122    3.8874   47.2280 LP  0  0  0  0  0  0  0  0  0  0  0  0  # atno 27272 bound_to 18272
  178.3835   11.7172   54.1870 LP  0  0  0  0  0  0  0  0  0  0  0  0  # atno 27273 bound_to 16936
  179.2737   10.2360   54.0707 LP  0  0  0  0  0  0  0  0  0  0  0  0  # atno 27274 bound_to 16936

> <Gold.Score>
     Fitness  S(hb_ext) S(vdw_ext)  S(hb_int)    S(int)      intcor
     42.94       1.00      31.05       0.00      -0.76      -0.78

> <Gold.Goldscore.Fitness>
42.9430

> <Gold.Goldscore.Internal.Vdw>
-1.1573

> <Gold.Goldscore.Internal.Torsion>
-0.3763

> <Gold.Goldscore.External.Vdw>
31.0524

> <Gold.Goldscore.Internal.HBond>
0.0000

> <Gold.Goldscore.External.HBond>
1.0026

> <Gold.Goldscore.Internal.Correction>
-0.7769

> <Gold.Goldscore.Hbonds>
donor molecule, donor type, donor heavy atom, donor atom, acceptor molecule, acceptor atom, score
      P1  H 11457 11491       L1    17  0.16
      P1  H 16849 16897       L1    17  0.03
      L1  H     8    22       P1 11458  0.10

> <Gold.Goldscore.Internal.Vdw.Weighted>
-1.1573

> <Gold.Goldscore.Internal.Torsion.Weighted>
-0.3763

> <Gold.Goldscore.External.Vdw.Weighted>
42.6971

> <Gold.Goldscore.Internal.HBond.Weighted>
0.0000

> <Gold.Goldscore.External.HBond.Weighted>
1.0026

> <Gold.Goldscore.Internal.Correction.Weighted>
-0.7769

> <Gold.Rescore>
     Score     S(PLP)   S(hbond)     S(cho)   S(metal)  DE(clash)   DE(tors)     intcor
     17.24     -18.26       0.02       0.00       0.00       0.00       0.53       ----

> <Gold.PLP.Fitness>
17.2435

> <Gold.PLP.PLP>
-18.2585

> <Gold.PLP.part.hbond>
-3.8476

> <Gold.PLP.part.metal>
0.0000

> <Gold.PLP.part.buried>
13.5146

> <Gold.PLP.part.nonpolar>
-30.9038

> <Gold.PLP.part.repulsive>
2.1296

> <Gold.PLP.ligand.clash>
0.0000

> <Gold.PLP.ligand.torsion>
0.5321

> <Gold.PLP.Chemscore.Hbond>
0.0164

> <Gold.PLP.Chemscore.CHOScore>
0.0000

> <Gold.PLP.Chemscore.Metal>
0.0000

> <Gold.Chemscore.Hbonds>
donor molecule, donor type, donor heavy atom, donor atom, acceptor molecule, acceptor atom, score
      L1  H     8    22       P1 11458  0.57

> <Gold.PLP.Chemscore.Internal.Correction>
   9.000000E+99

