#       Name:                CT1002167954
#       Creating user name   hitesit
#       Creation time:       Sun Apr 16 20:21:56 2023


#       File generated by GOLD software.
#

@<TRIPOS>MOLECULE
CT1002167954|ligand_prepared|mol2|1|dock8
    29    30     1
SMALL
NO_CHARGES


@<TRIPOS>ATOM
      1 C1         188.3918  11.4943  50.3999 C.3            1 RES1               0.0000
      2 C2         187.4972  12.7128  50.0939 C.ar           1 RES1               0.0000
      3 C3         189.2313  11.8738  51.6162 C.2            1 RES1               0.0000
      4 C4         187.4477  10.3208  50.6372 C.2            1 RES1               0.0000
      5 C5         189.3459  11.1136  49.2439 C.3            1 RES1               0.0000
      6 C6         187.9009  13.6748  49.1729 C.ar           1 RES1               0.0000
      7 C7         186.2666  12.8869  50.7215 C.ar           1 RES1               0.0000
      8 N8         188.9076  11.3012  52.8109 N.am           1 RES1               0.0000
      9 O9         190.1383  12.6931  51.5362 O.2            1 RES1               0.0000
     10 N10        187.4069   9.7733  51.8928 N.am           1 RES1               0.0000
     11 O11        186.7266   9.8761  49.7526 O.2            1 RES1               0.0000
     12 C12        189.9835   9.7422  49.4016 C.3            1 RES1               0.0000
     13 C13        187.1021  14.7697  48.8873 C.ar           1 RES1               0.0000
     14 C14        185.4694  13.9826  50.4347 C.ar           1 RES1               0.0000
     15 C15        188.0714  10.2301  52.9982 C.2            1 RES1               0.0000
     16 C16        185.8858  14.9241  49.5176 C.ar           1 RES1               0.0000
     17 O17        187.9415   9.7177  54.1062 O.2            1 RES1               0.0000
     18 H18        188.7852  11.1361  48.3013 H              1 RES1               0.0000
     19 H19        190.1406  11.8671  49.1793 H              1 RES1               0.0000
     20 H20        188.8560  13.5714  48.6688 H              1 RES1               0.0000
     21 H21        185.9191  12.1594  51.4472 H              1 RES1               0.0000
     22 H22        189.3260  11.7071  53.6419 H              1 RES1               0.0000
     23 H23        186.8275   8.9488  52.0146 H              1 RES1               0.0000
     24 H24        190.6432   9.5250  48.5641 H              1 RES1               0.0000
     25 H25        190.5700   9.6924  50.3167 H              1 RES1               0.0000
     26 H26        189.2226   8.9657  49.4439 H              1 RES1               0.0000
     27 H27        187.4350  15.5085  48.1658 H              1 RES1               0.0000
     28 H28        184.5131  14.1005  50.9335 H              1 RES1               0.0000
     29 H29        185.2600  15.7817  49.2935 H              1 RES1               0.0000
@<TRIPOS>BOND
    1    1    2 1     
    2    1    3 1     
    3    1    4 1     
    4    1    5 1     
    5    2    6 ar    
    6    2    7 ar    
    7    3    8 1     
    8    3    9 2     
    9    4   10 1     
   10    4   11 2     
   11    5   12 1     
   12    5   18 1     
   13    5   19 1     
   14    6   13 ar    
   15    6   20 1     
   16    7   14 ar    
   17    7   21 1     
   18    8   15 1     
   19    8   22 1     
   20   10   15 1     
   21   10   23 1     
   22   12   24 1     
   23   12   25 1     
   24   12   26 1     
   25   13   16 ar    
   26   13   27 1     
   27   14   16 ar    
   28   14   28 1     
   29   15   17 2     
   30   16   29 1     
@<TRIPOS>SUBSTRUCTURE
      1 RES1           1
@<TRIPOS>SET
DONOR_HYDROGENS      STATIC     ATOMS    <user>   **** ""
2 22 23
ATOM$RED        STATIC     ATOMS    COLORGROUP SYSTEM
2 22 23
@<TRIPOS>COMMENT
> <Gold.Version>
2022.3.0

> <Gold.Id.Protein>
unknown|4d1n_clean|pdb

> <Gold.Protein.RotatedTorsions>
[ 16986 16944 16943 16941 ] final  -62.75 input   59.98 | X-H torsion
[ 18494 18452 18451 18449 ] final   -7.46 input   59.98 | X-H torsion
[ 18557 18521 18522 18523 ] final  160.86 input   91.55 | X-H torsion
[ 18701 18674 18675 18676 ] final  -97.42 input  121.65 | X-H torsion
[ 18757 18733 18734 18735 ] final   57.53 input   95.18 | X-H torsion
[ 18937 18904 18905 18906 ] final   10.88 input   99.08 | X-H torsion
[ 19021 18997 18998 18999 ] final  -25.79 input  121.68 | X-H torsion
[ 17190 17170 17171 17172 ] final  126.35 input   47.05 | X-H torsion
[ 17242 17212 17213 17214 ] final  -27.57 input  118.29 | X-H torsion
[ 18817 18805 18806 18807 ] final  -41.42 input  116.09 | X-H torsion
[ 19085 19049 19050 19051 ] final  -72.29 input   88.91 | X-H torsion
[ 18486 18441 18442 18443 ] final   -2.61 input  100.68 | X-H torsion
[ 17298 17275 17276 17277 ] final   61.66 input   51.25 | X-H torsion
[ 18290 18267 18268 18269 ] final  -73.83 input   31.65 | X-H torsion
[ 18324 18309 18310 18311 ] final -159.09 input   53.83 | X-H torsion
[ 18399 18347 18348 18349 ] final  -74.25 input   27.99 | X-H torsion
[ 7521 7509 7510 7511 ] final  -70.93 input   80.33 | X-H torsion
[ 7493 7448 7449 7450 ] final  -26.66 input   99.31 | X-H torsion
[ 18598 18585 18586 18587 ] final  -14.51 input  129.83 | X-H torsion
[ 10115 10088 10087 10084 ] final   53.27 input   59.98 | X-H torsion
[ 18294 18272 18271 18268 ] final   47.68 input   59.99 | X-H torsion
[ 18643 18622 18620 18617 ] final -163.35 input   59.97 | X-H torsion
[ 18857 18836 18837 18838 ] final  -81.04 input   87.55 | X-H torsion
[ 22429 22408 22409 22410 ] final   33.88 input   59.22 | X-H torsion
[ 10151 10126 10127 10128 ] final -102.77 input   20.82 | X-H torsion
[ 18234 18192 18193 18194 ] final   22.31 input   40.98 | X-H torsion
[ 11814 11769 11770 11771 ] final  -55.00 input   85.42 | X-H torsion
[ 16978 16933 16934 16935 ] final -103.76 input   88.91 | X-H torsion
[ 27198 18524 18523 18522 ] final   13.26 input    0.00 | X-H torsion
[ 27200 18619 18618 18617 ] final  -77.34 input    0.00 | X-H torsion
[ 27203 18677 18676 18675 ] final  160.38 input    0.00 | X-H torsion
[ 27223 17119 17118 17117 ] final  -38.14 input    0.00 | X-H torsion
[ 27227 11596 11595 11594 ] final   19.51 input   -0.00 | X-H torsion
[ 27231 17044 17043 17042 ] final  136.46 input    0.00 | X-H torsion
[ 27233 18736 18735 18734 ] final   98.17 input   -0.00 | X-H torsion
[ 27235 18588 18587 18586 ] final   -4.57 input    0.00 | X-H torsion
[ 27238 18907 18906 18905 ] final  -90.12 input    0.00 | X-H torsion
[ 27240 19000 18999 18998 ] final  -55.27 input    0.00 | X-H torsion
[ 27243 17173 17172 17171 ] final   93.76 input    0.00 | X-H torsion
[ 27245 18350 18349 18348 ] final    0.54 input    0.00 | X-H torsion
[ 27248 11406 11405 11404 ] final -152.31 input   -0.00 | X-H torsion
[ 27250 18195 18194 18193 ] final -174.90 input    0.00 | X-H torsion
[ 27254 17215 17214 17213 ] final  -14.62 input   -0.00 | X-H torsion
[ 27260 18312 18311 18310 ] final  -31.43 input   -0.00 | X-H torsion
[ 27262 18444 18443 18442 ] final  -39.91 input    0.00 | X-H torsion
[ 27265 18270 18269 18268 ] final  -11.97 input    0.00 | X-H torsion
[ 27273 16936 16935 16934 ] final   -7.46 input   -0.00 | X-H torsion

> <Gold.Protein.ActiveResidues>
 TRP414  CYS420  VAL421  GLY422  LEU460  SER462  ALA463  SER482  GLN483  ILE485 
 ARG486  TYR487  ASP500  ASN503  TRP566  TYR567  LEU569  PRO570  ALA571  VAL572 
 SER573  ASN574  PHE589  SER590  GLY591  TRP592  TYR593  MET594  GLY595  THR596 
 GLU597  ILE598  GLY599  VAL600  ARG601  ASP602  TYR603  ARG608  ILE653  VAL654 
 TRP683  PRO687  HEM750  H4B760 

> <Gold.Protein.RotatedAtoms>
  195.8266   10.5191   53.0913 H   0  0  0  0  0  0  0  0  0  0  0  0  # atno 7493 bound_to 7448
  195.9566    8.9408   54.8698 H   0  0  0  0  0  0  0  0  0  0  0  0  # atno 7521 bound_to 7509
  188.9202    1.3576   51.5843 H   0  0  0  0  0  0  0  0  0  0  0  0  # atno 10115 bound_to 10088
  188.3205    1.1313   47.3979 H   0  0  0  0  0  0  0  0  0  0  0  0  # atno 10151 bound_to 10126
  175.9316   16.9058   46.3892 H   0  0  0  0  0  0  0  0  0  0  0  0  # atno 11814 bound_to 11769
  175.4835   12.4532   54.2031 H   0  0  0  0  0  0  0  0  0  0  0  0  # atno 16978 bound_to 16933
  180.9934   14.9416   50.2616 H   0  0  0  0  0  0  0  0  0  0  0  0  # atno 16986 bound_to 16944
  182.4505    9.7400   47.6690 H   0  0  0  0  0  0  0  0  0  0  0  0  # atno 17190 bound_to 17170
  184.8521   10.0267   44.7815 H   0  0  0  0  0  0  0  0  0  0  0  0  # atno 17242 bound_to 17212
  185.1372   12.9407   42.2643 H   0  0  0  0  0  0  0  0  0  0  0  0  # atno 17298 bound_to 17275
  186.6380    8.0935   42.9555 H   0  0  0  0  0  0  0  0  0  0  0  0  # atno 18234 bound_to 18192
  187.8448    6.0790   45.7533 H   0  0  0  0  0  0  0  0  0  0  0  0  # atno 18290 bound_to 18267
  185.1101    3.8651   47.5243 H   0  0  0  0  0  0  0  0  0  0  0  0  # atno 18294 bound_to 18272
  187.4531    5.4851   48.7455 H   0  0  0  0  0  0  0  0  0  0  0  0  # atno 18324 bound_to 18309
  186.4438    6.5399   51.9886 H   0  0  0  0  0  0  0  0  0  0  0  0  # atno 18399 bound_to 18347
  185.5860    7.5548   55.6841 H   0  0  0  0  0  0  0  0  0  0  0  0  # atno 18486 bound_to 18441
  182.5522   14.3739   51.8251 H   0  0  0  0  0  0  0  0  0  0  0  0  # atno 18494 bound_to 18452
  187.8122   10.2557   56.3865 H   0  0  0  0  0  0  0  0  0  0  0  0  # atno 18557 bound_to 18521
  186.9112   12.6534   59.3153 H   0  0  0  0  0  0  0  0  0  0  0  0  # atno 18598 bound_to 18585
  190.0413   16.2898   60.0566 H   0  0  0  0  0  0  0  0  0  0  0  0  # atno 18643 bound_to 18622
  186.9824   16.8272   58.4115 H   0  0  0  0  0  0  0  0  0  0  0  0  # atno 18701 bound_to 18674
  184.2239   16.1152   57.9751 H   0  0  0  0  0  0  0  0  0  0  0  0  # atno 18757 bound_to 18733
  182.6095   18.0530   58.5962 H   0  0  0  0  0  0  0  0  0  0  0  0  # atno 18817 bound_to 18805
  183.3096   19.8371   60.3842 H   0  0  0  0  0  0  0  0  0  0  0  0  # atno 18857 bound_to 18836
  184.2659   20.6387   57.9979 H   0  0  0  0  0  0  0  0  0  0  0  0  # atno 18937 bound_to 18904
  183.3523   21.4927   56.0814 H   0  0  0  0  0  0  0  0  0  0  0  0  # atno 19021 bound_to 18997
  180.8869   21.7925   55.9564 H   0  0  0  0  0  0  0  0  0  0  0  0  # atno 19085 bound_to 19049
  186.1977    8.3725   59.9020 H   0  0  0  0  0  0  0  0  0  0  0  0  # atno 22429 bound_to 22408
  179.8798   15.7876   49.4300 LP  0  0  0  0  0  0  0  0  0  0  0  0  # atno 27193 bound_to 16944
  180.6659   14.5462   48.7177 LP  0  0  0  0  0  0  0  0  0  0  0  0  # atno 27194 bound_to 16944
  181.0130   13.9935   52.1927 LP  0  0  0  0  0  0  0  0  0  0  0  0  # atno 27195 bound_to 18452
  181.8359   13.1081   51.0948 LP  0  0  0  0  0  0  0  0  0  0  0  0  # atno 27196 bound_to 18452
  186.2116   10.8775   56.7207 LP  0  0  0  0  0  0  0  0  0  0  0  0  # atno 27197 bound_to 18521
  186.4804   13.2224   56.9797 LP  0  0  0  0  0  0  0  0  0  0  0  0  # atno 27198 bound_to 18524
  185.8250   14.0897   58.3281 LP  0  0  0  0  0  0  0  0  0  0  0  0  # atno 27199 bound_to 18524
  185.2114   18.6372   58.8587 LP  0  0  0  0  0  0  0  0  0  0  0  0  # atno 27200 bound_to 18619
  186.7892   18.9191   58.2022 LP  0  0  0  0  0  0  0  0  0  0  0  0  # atno 27201 bound_to 18619
  186.1288   15.3211   58.1858 LP  0  0  0  0  0  0  0  0  0  0  0  0  # atno 27202 bound_to 18674
  183.5188   18.4042   55.5546 LP  0  0  0  0  0  0  0  0  0  0  0  0  # atno 27203 bound_to 18677
  185.2046   18.8014   55.5396 LP  0  0  0  0  0  0  0  0  0  0  0  0  # atno 27204 bound_to 18677
  184.3157   16.5847   56.2910 LP  0  0  0  0  0  0  0  0  0  0  0  0  # atno 27209 bound_to 18733
  185.9440   21.0670   58.2191 LP  0  0  0  0  0  0  0  0  0  0  0  0  # atno 27210 bound_to 18904
  183.7019   19.9895   55.2637 LP  0  0  0  0  0  0  0  0  0  0  0  0  # atno 27211 bound_to 18997
  185.3006    8.7808   49.4115 LP  0  0  0  0  0  0  0  0  0  0  0  0  # atno 27223 bound_to 17119
  184.7142    7.9044   48.0374 LP  0  0  0  0  0  0  0  0  0  0  0  0  # atno 27224 bound_to 17119
  183.9838   10.5745   47.7534 LP  0  0  0  0  0  0  0  0  0  0  0  0  # atno 27225 bound_to 17170
  185.8305   10.5848   46.1212 LP  0  0  0  0  0  0  0  0  0  0  0  0  # atno 27226 bound_to 17212
  179.6622   12.5933   46.7564 LP  0  0  0  0  0  0  0  0  0  0  0  0  # atno 27227 bound_to 11596
  179.0569   14.0356   47.5002 LP  0  0  0  0  0  0  0  0  0  0  0  0  # atno 27228 bound_to 11596
  180.6132   10.4444   49.2215 LP  0  0  0  0  0  0  0  0  0  0  0  0  # atno 27231 bound_to 17044
  180.0348    8.9857   48.4882 LP  0  0  0  0  0  0  0  0  0  0  0  0  # atno 27232 bound_to 17044
  180.7642   19.2178   58.2482 LP  0  0  0  0  0  0  0  0  0  0  0  0  # atno 27233 bound_to 18736
  182.2951   19.7676   57.6533 LP  0  0  0  0  0  0  0  0  0  0  0  0  # atno 27234 bound_to 18736
  183.4034   14.9306   59.9394 LP  0  0  0  0  0  0  0  0  0  0  0  0  # atno 27235 bound_to 18588
  184.3805   16.3607   59.9429 LP  0  0  0  0  0  0  0  0  0  0  0  0  # atno 27236 bound_to 18588
  182.8061   16.6214   59.5850 LP  0  0  0  0  0  0  0  0  0  0  0  0  # atno 27237 bound_to 18805
  182.7730   23.4698   56.2003 LP  0  0  0  0  0  0  0  0  0  0  0  0  # atno 27238 bound_to 18907
  183.4462   23.4101   54.6056 LP  0  0  0  0  0  0  0  0  0  0  0  0  # atno 27239 bound_to 18907
  180.1482   22.9403   54.3197 LP  0  0  0  0  0  0  0  0  0  0  0  0  # atno 27240 bound_to 19000
  178.8944   22.0984   55.1679 LP  0  0  0  0  0  0  0  0  0  0  0  0  # atno 27241 bound_to 19000
  181.2881   20.7165   57.2746 LP  0  0  0  0  0  0  0  0  0  0  0  0  # atno 27242 bound_to 19049
  182.9759   11.4759   44.2993 LP  0  0  0  0  0  0  0  0  0  0  0  0  # atno 27243 bound_to 17173
  183.4174   10.1189   43.3176 LP  0  0  0  0  0  0  0  0  0  0  0  0  # atno 27244 bound_to 17173
  187.8086    7.5602   53.6930 LP  0  0  0  0  0  0  0  0  0  0  0  0  # atno 27245 bound_to 18350
  187.5142    8.9484   54.6862 LP  0  0  0  0  0  0  0  0  0  0  0  0  # atno 27246 bound_to 18350
  184.5179    8.1965   54.4587 LP  0  0  0  0  0  0  0  0  0  0  0  0  # atno 27247 bound_to 18441
  184.7265   13.5954   42.8412 LP  0  0  0  0  0  0  0  0  0  0  0  0  # atno 27248 bound_to 11406
  185.4631   15.1258   42.5017 LP  0  0  0  0  0  0  0  0  0  0  0  0  # atno 27249 bound_to 11406
  186.3647    8.1974   46.1623 LP  0  0  0  0  0  0  0  0  0  0  0  0  # atno 27250 bound_to 18195
  186.7086    8.5597   44.5038 LP  0  0  0  0  0  0  0  0  0  0  0  0  # atno 27251 bound_to 18195
  187.2048    9.7024   43.1868 LP  0  0  0  0  0  0  0  0  0  0  0  0  # atno 27254 bound_to 17215
  186.3810    9.7465   41.6639 LP  0  0  0  0  0  0  0  0  0  0  0  0  # atno 27255 bound_to 17215
  186.0685   11.5058   42.5954 LP  0  0  0  0  0  0  0  0  0  0  0  0  # atno 27256 bound_to 17275
  186.3683    5.2524   45.3208 LP  0  0  0  0  0  0  0  0  0  0  0  0  # atno 27257 bound_to 18267
  186.3691    6.5597   49.6041 LP  0  0  0  0  0  0  0  0  0  0  0  0  # atno 27258 bound_to 18309
  187.0925    5.2677   53.0053 LP  0  0  0  0  0  0  0  0  0  0  0  0  # atno 27259 bound_to 18347
  184.6714    4.7479   50.6492 LP  0  0  0  0  0  0  0  0  0  0  0  0  # atno 27260 bound_to 18312
  184.4088    4.6185   52.3564 LP  0  0  0  0  0  0  0  0  0  0  0  0  # atno 27261 bound_to 18312
  185.3390    8.5230   58.0973 LP  0  0  0  0  0  0  0  0  0  0  0  0  # atno 27262 bound_to 18444
  187.0652    8.5035   58.2383 LP  0  0  0  0  0  0  0  0  0  0  0  0  # atno 27263 bound_to 18444
  194.6049    9.3212   53.8359 LP  0  0  0  0  0  0  0  0  0  0  0  0  # atno 27264 bound_to 7509
  187.1017    3.6023   47.3279 LP  0  0  0  0  0  0  0  0  0  0  0  0  # atno 27265 bound_to 18270
  187.9073    3.5730   48.8610 LP  0  0  0  0  0  0  0  0  0  0  0  0  # atno 27266 bound_to 18270
  195.7199   12.1555   53.7052 LP  0  0  0  0  0  0  0  0  0  0  0  0  # atno 27267 bound_to 7448
  186.3067   11.3480   60.3069 LP  0  0  0  0  0  0  0  0  0  0  0  0  # atno 27268 bound_to 18585
  189.0628    2.8437   50.9368 LP  0  0  0  0  0  0  0  0  0  0  0  0  # atno 27269 bound_to 10088
  190.3921    1.9300   51.1916 LP  0  0  0  0  0  0  0  0  0  0  0  0  # atno 27270 bound_to 10088
  184.7085    4.3179   46.0139 LP  0  0  0  0  0  0  0  0  0  0  0  0  # atno 27271 bound_to 18272
  183.5766    4.2945   47.1906 LP  0  0  0  0  0  0  0  0  0  0  0  0  # atno 27272 bound_to 18272
  178.5284   11.7466   53.8699 LP  0  0  0  0  0  0  0  0  0  0  0  0  # atno 27273 bound_to 16936
  179.1287   10.2066   54.3879 LP  0  0  0  0  0  0  0  0  0  0  0  0  # atno 27274 bound_to 16936

> <Gold.Score>
     Fitness  S(hb_ext) S(vdw_ext)  S(hb_int)    S(int)      intcor
     38.00       0.03      28.02       0.00      -0.56      -0.76

> <Gold.Goldscore.Fitness>
37.9981

> <Gold.Goldscore.Internal.Vdw>
-0.6723

> <Gold.Goldscore.Internal.Torsion>
-0.6492

> <Gold.Goldscore.External.Vdw>
28.0231

> <Gold.Goldscore.Internal.HBond>
0.0000

> <Gold.Goldscore.External.HBond>
0.0293

> <Gold.Goldscore.Internal.Correction>
-0.7585

> <Gold.Goldscore.Hbonds>
donor molecule, donor type, donor heavy atom, donor atom, acceptor molecule, acceptor atom, score
      P1  H 18521 18557       L1    17  0.01

> <Gold.Goldscore.Internal.Vdw.Weighted>
-0.6723

> <Gold.Goldscore.Internal.Torsion.Weighted>
-0.6492

> <Gold.Goldscore.External.Vdw.Weighted>
38.5317

> <Gold.Goldscore.Internal.HBond.Weighted>
0.0000

> <Gold.Goldscore.External.HBond.Weighted>
0.0293

> <Gold.Goldscore.Internal.Correction.Weighted>
-0.7585

> <Gold.Rescore>
     Score     S(PLP)   S(hbond)     S(cho)   S(metal)  DE(clash)   DE(tors)     intcor
    -47.00      46.33       0.62       0.00       0.00       0.00       1.26       ----

> <Gold.PLP.Fitness>
-47.0048

> <Gold.PLP.PLP>
46.3343

> <Gold.PLP.part.hbond>
-3.8439

> <Gold.PLP.part.metal>
0.0000

> <Gold.PLP.part.buried>
82.5065

> <Gold.PLP.part.nonpolar>
-38.3714

> <Gold.PLP.part.repulsive>
14.4467

> <Gold.PLP.ligand.clash>
0.0000

> <Gold.PLP.ligand.torsion>
1.2615

> <Gold.PLP.Chemscore.Hbond>
0.6175

> <Gold.PLP.Chemscore.CHOScore>
0.0000

> <Gold.PLP.Chemscore.Metal>
0.0000

> <Gold.Chemscore.Hbonds>
donor molecule, donor type, donor heavy atom, donor atom, acceptor molecule, acceptor atom, score
      L1  H     8    22       P1 18682  0.06
      L1  H    10    23       P1 18350  0.02
      P1  H 18521 18557       L1    17  0.29

> <Gold.PLP.Chemscore.Internal.Correction>
   9.000000E+99

