#       Name:                CT1002167954
#       Creating user name   hitesit
#       Creation time:       Sun Apr 16 02:33:47 2023


#       File generated by GOLD software.
#

@<TRIPOS>MOLECULE
CT1002167954|ligand_prepared|mol2|1|dock9
    29    30     1
SMALL
NO_CHARGES


@<TRIPOS>ATOM
      1 C1         221.4865 341.7046 -106.8564 C.3            1 RES1               0.0000
      2 C2         220.9133 343.0266 -107.4064 C.ar           1 RES1               0.0000
      3 C3         222.0927 340.9712 -108.0493 C.2            1 RES1               0.0000
      4 C4         222.4989 342.0919 -105.7842 C.2            1 RES1               0.0000
      5 C5         220.4261 340.7877 -106.2033 C.3            1 RES1               0.0000
      6 C6         221.3219 343.5157 -108.6436 C.ar           1 RES1               0.0000
      7 C7         219.9750 343.7654 -106.6907 C.ar           1 RES1               0.0000
      8 N8         223.4527 340.9359 -108.1446 N.am           1 RES1               0.0000
      9 O9         221.3878 340.4657 -108.9141 O.2            1 RES1               0.0000
     10 N10        223.8185 341.8015 -106.0123 N.am           1 RES1               0.0000
     11 O11        222.1679 342.6609 -104.7513 O.2            1 RES1               0.0000
     12 C12        220.9584 339.4189 -105.8090 C.3            1 RES1               0.0000
     13 C13        220.8089 344.6991 -109.1484 C.ar           1 RES1               0.0000
     14 C14        219.4634 344.9487 -107.1973 C.ar           1 RES1               0.0000
     15 C15        224.3450 341.2688 -107.1574 C.2            1 RES1               0.0000
     16 C16        219.8791 345.4161 -108.4259 C.ar           1 RES1               0.0000
     17 O17        225.5497 341.0872 -107.3089 O.2            1 RES1               0.0000
     18 H18        220.0327 341.2848 -105.3081 H              1 RES1               0.0000
     19 H19        219.5941 340.6540 -106.9056 H              1 RES1               0.0000
     20 H20        222.0546 342.9664 -109.2253 H              1 RES1               0.0000
     21 H21        219.6342 343.4176 -105.7215 H              1 RES1               0.0000
     22 H22        223.8422 340.6342 -109.0320 H              1 RES1               0.0000
     23 H23        224.4686 342.0008 -105.2586 H              1 RES1               0.0000
     24 H24        220.1742 338.8161 -105.3557 H              1 RES1               0.0000
     25 H25        221.3350 338.8860 -106.6796 H              1 RES1               0.0000
     26 H26        221.7709 339.5131 -105.0915 H              1 RES1               0.0000
     27 H27        221.1404 345.0633 -110.1152 H              1 RES1               0.0000
     28 H28        218.7323 345.5101 -106.6250 H              1 RES1               0.0000
     29 H29        219.4771 346.3429 -108.8217 H              1 RES1               0.0000
@<TRIPOS>BOND
    1    1    2 1     
    2    1    3 1     
    3    1    4 1     
    4    1    5 1     
    5    2    6 ar    
    6    2    7 ar    
    7    3    8 1     
    8    3    9 2     
    9    4   10 1     
   10    4   11 2     
   11    5   12 1     
   12    5   18 1     
   13    5   19 1     
   14    6   13 ar    
   15    6   20 1     
   16    7   14 ar    
   17    7   21 1     
   18    8   15 1     
   19    8   22 1     
   20   10   15 1     
   21   10   23 1     
   22   12   24 1     
   23   12   25 1     
   24   12   26 1     
   25   13   16 ar    
   26   13   27 1     
   27   14   16 ar    
   28   14   28 1     
   29   15   17 2     
   30   16   29 1     
@<TRIPOS>SUBSTRUCTURE
      1 RES1           1
@<TRIPOS>SET
DONOR_HYDROGENS      STATIC     ATOMS    <user>   **** ""
2 22 23
ATOM$RED        STATIC     ATOMS    COLORGROUP SYSTEM
2 22 23
@<TRIPOS>COMMENT
> <Gold.Version>
2022.3.0

> <Gold.Id.Protein>
unknown|7ts3_clean|pdb

> <Gold.Protein.RotatedTorsions>
[ 7881 7855 7856 7857 ] final   17.76 input   70.76 | X-H torsion
[ 7957 7941 7942 7943 ] final  172.40 input   58.28 | X-H torsion
[ 8037 8019 8020 8021 ] final   38.91 input   92.82 | X-H torsion
[ 8097 8083 8084 8085 ] final   90.22 input   78.42 | X-H torsion
[ 8177 8155 8156 8157 ] final  -41.81 input   79.32 | X-H torsion
[ 9486 9456 9455 9453 ] final   -0.40 input   59.97 | X-H torsion
[ 7821 7805 7806 7807 ] final  -68.56 input   99.19 | X-H torsion
[ 7825 7810 7809 7806 ] final   52.29 input   59.97 | X-H torsion
[ 7891 7863 7862 7861 ] final  124.40 input   59.98 | X-H torsion
[ 6481 6465 6466 6467 ] final -115.11 input  110.33 | X-H torsion
[ 6573 6549 6550 6551 ] final -127.72 input  127.07 | X-H torsion
[ 8245 8229 8230 8231 ] final  168.38 input   96.27 | X-H torsion
[ 10140 10113 10114 10115 ] final -123.21 input   44.66 | X-H torsion
[ 6713 6695 6696 6697 ] final  104.54 input  119.33 | X-H torsion
[ 27271 7808 7807 7806 ] final -153.78 input   -0.00 | X-H torsion
[ 27274 7858 7857 7856 ] final  132.90 input   -0.00 | X-H torsion
[ 27277 7944 7943 7942 ] final  -55.95 input   -0.00 | X-H torsion
[ 27280 8022 8021 8020 ] final  167.35 input    0.00 | X-H torsion
[ 27283 8086 8085 8084 ] final   19.42 input   -0.00 | X-H torsion
[ 27288 10020 10019 10017 ] final -154.92 input   -0.00 | X-H torsion
[ 27290 6468 6467 6466 ] final  -56.31 input    0.00 | X-H torsion
[ 27292 7728 7727 7726 ] final   84.87 input   -0.00 | X-H torsion
[ 27299 6228 6227 6226 ] final  120.33 input   -0.00 | X-H torsion
[ 27303 10116 10115 10114 ] final  139.17 input    0.00 | X-H torsion
[ 27305 6274 6273 6272 ] final  -12.28 input    0.00 | X-H torsion

> <Gold.Protein.ActiveResidues>
 ASP403  THR404  ILE407  TYR408  ALA410  LYS411  TRP426  SER427  LYS428  LEU429 
 GLN430  VAL431  PHE432  ASP433  TYR453  SER462  ALA463  ILE464 

> <Gold.Protein.RotatedAtoms>
  229.5008  342.4076 -101.1001 H   0  0  0  0  0  0  0  0  0  0  0  0  # atno 6481 bound_to 6465
  226.2708  344.5344 -100.9627 H   0  0  0  0  0  0  0  0  0  0  0  0  # atno 6573 bound_to 6549
  228.1968  347.5487 -102.9387 H   0  0  0  0  0  0  0  0  0  0  0  0  # atno 6713 bound_to 6695
  223.6036  351.0955 -107.3810 H   0  0  0  0  0  0  0  0  0  0  0  0  # atno 7821 bound_to 7805
  219.8552  349.4195 -107.0481 H   0  0  0  0  0  0  0  0  0  0  0  0  # atno 7825 bound_to 7810
  223.0916  349.3401 -108.5165 H   0  0  0  0  0  0  0  0  0  0  0  0  # atno 7881 bound_to 7855
  218.9281  345.8223 -114.2932 H   0  0  0  0  0  0  0  0  0  0  0  0  # atno 7891 bound_to 7863
  220.5674  346.0045 -114.4604 H   0  0  0  0  0  0  0  0  0  0  0  0  # atno 7892 bound_to 7863
  219.8694  346.1102 -112.9599 H   0  0  0  0  0  0  0  0  0  0  0  0  # atno 7893 bound_to 7863
  223.8352  347.8888 -109.2786 H   0  0  0  0  0  0  0  0  0  0  0  0  # atno 7957 bound_to 7941
  226.8554  344.8672 -110.5972 H   0  0  0  0  0  0  0  0  0  0  0  0  # atno 8037 bound_to 8019
  226.7443  341.7323 -107.9646 H   0  0  0  0  0  0  0  0  0  0  0  0  # atno 8097 bound_to 8083
  230.2925  340.3964 -107.6096 H   0  0  0  0  0  0  0  0  0  0  0  0  # atno 8177 bound_to 8155
  231.1153  338.1600 -106.5745 H   0  0  0  0  0  0  0  0  0  0  0  0  # atno 8245 bound_to 8229
  223.3331  340.1348 -114.3182 H   0  0  0  0  0  0  0  0  0  0  0  0  # atno 9486 bound_to 9456
  231.0557  344.8160 -111.8878 H   0  0  0  0  0  0  0  0  0  0  0  0  # atno 10140 bound_to 10113
  221.7173  346.7904 -107.3154 LP  0  0  0  0  0  0  0  0  0  0  0  0  # atno 27271 bound_to 7808
  220.9996  347.6184 -105.9740 LP  0  0  0  0  0  0  0  0  0  0  0  0  # atno 27272 bound_to 7808
  221.4521  349.1757 -107.9079 LP  0  0  0  0  0  0  0  0  0  0  0  0  # atno 27273 bound_to 7855
  224.4984  347.9954 -111.5573 LP  0  0  0  0  0  0  0  0  0  0  0  0  # atno 27274 bound_to 7858
  222.9452  347.4279 -112.0726 LP  0  0  0  0  0  0  0  0  0  0  0  0  # atno 27275 bound_to 7858
  223.3814  346.2078 -109.0744 LP  0  0  0  0  0  0  0  0  0  0  0  0  # atno 27276 bound_to 7941
  225.6811  344.9134 -107.3831 LP  0  0  0  0  0  0  0  0  0  0  0  0  # atno 27277 bound_to 7944
  224.6015  343.8183 -108.1803 LP  0  0  0  0  0  0  0  0  0  0  0  0  # atno 27278 bound_to 7944
  225.1792  344.7370 -110.1157 LP  0  0  0  0  0  0  0  0  0  0  0  0  # atno 27279 bound_to 8019
  229.4839  342.9391 -109.7062 LP  0  0  0  0  0  0  0  0  0  0  0  0  # atno 27280 bound_to 8022
  228.5475  343.2959 -111.1189 LP  0  0  0  0  0  0  0  0  0  0  0  0  # atno 27281 bound_to 8022
  227.6258  342.2446 -109.3851 LP  0  0  0  0  0  0  0  0  0  0  0  0  # atno 27282 bound_to 8083
  227.6621  339.4168 -107.4435 LP  0  0  0  0  0  0  0  0  0  0  0  0  # atno 27283 bound_to 8086
  229.0489  338.3811 -107.5068 LP  0  0  0  0  0  0  0  0  0  0  0  0  # atno 27284 bound_to 8086
  230.3051  340.6961 -109.3364 LP  0  0  0  0  0  0  0  0  0  0  0  0  # atno 27285 bound_to 8155
  223.6403  341.6735 -114.7491 LP  0  0  0  0  0  0  0  0  0  0  0  0  # atno 27286 bound_to 9456
  224.2421  341.0779 -113.3528 LP  0  0  0  0  0  0  0  0  0  0  0  0  # atno 27287 bound_to 9456
  227.1033  344.6976 -112.3056 LP  0  0  0  0  0  0  0  0  0  0  0  0  # atno 27288 bound_to 10020
  225.9772  345.1022 -113.5578 LP  0  0  0  0  0  0  0  0  0  0  0  0  # atno 27289 bound_to 10020
  228.5335  345.8446 -102.6272 LP  0  0  0  0  0  0  0  0  0  0  0  0  # atno 27290 bound_to 6468
  226.8689  346.3141 -102.5340 LP  0  0  0  0  0  0  0  0  0  0  0  0  # atno 27291 bound_to 6468
  225.3240  350.2861 -106.2900 LP  0  0  0  0  0  0  0  0  0  0  0  0  # atno 27292 bound_to 7728
  224.8767  349.5876 -107.8106 LP  0  0  0  0  0  0  0  0  0  0  0  0  # atno 27293 bound_to 7728
  222.0951  351.8975 -107.0171 LP  0  0  0  0  0  0  0  0  0  0  0  0  # atno 27294 bound_to 7805
  219.9750  351.0420 -107.0739 LP  0  0  0  0  0  0  0  0  0  0  0  0  # atno 27295 bound_to 7810
  218.9832  350.3106 -106.0025 LP  0  0  0  0  0  0  0  0  0  0  0  0  # atno 27296 bound_to 7810
  228.1784  342.5330  -99.9724 LP  0  0  0  0  0  0  0  0  0  0  0  0  # atno 27297 bound_to 6465
  227.7088  344.4333  -99.9690 LP  0  0  0  0  0  0  0  0  0  0  0  0  # atno 27298 bound_to 6549
  227.1326  340.1130 -100.5933 LP  0  0  0  0  0  0  0  0  0  0  0  0  # atno 27299 bound_to 6228
  228.7734  340.3993 -100.1178 LP  0  0  0  0  0  0  0  0  0  0  0  0  # atno 27300 bound_to 6228
  232.2514  337.4659 -107.7109 LP  0  0  0  0  0  0  0  0  0  0  0  0  # atno 27301 bound_to 8229
  230.3762  343.9712 -110.5112 LP  0  0  0  0  0  0  0  0  0  0  0  0  # atno 27302 bound_to 10113
  232.0443  341.3107 -109.8395 LP  0  0  0  0  0  0  0  0  0  0  0  0  # atno 27303 bound_to 10116
  231.3671  342.5565 -108.8447 LP  0  0  0  0  0  0  0  0  0  0  0  0  # atno 27304 bound_to 10116
  225.9579  342.5545  -99.3101 LP  0  0  0  0  0  0  0  0  0  0  0  0  # atno 27305 bound_to 6274
  226.8675  343.5004  -98.1796 LP  0  0  0  0  0  0  0  0  0  0  0  0  # atno 27306 bound_to 6274

> <Gold.Score>
     Fitness  S(hb_ext) S(vdw_ext)  S(hb_int)    S(int)      intcor
     27.94       7.99      15.48       0.00      -1.34      -0.76

> <Gold.Goldscore.Fitness>
27.9365

> <Gold.Goldscore.Internal.Vdw>
-1.6596

> <Gold.Goldscore.Internal.Torsion>
-0.4431

> <Gold.Goldscore.External.Vdw>
15.4819

> <Gold.Goldscore.Internal.HBond>
0.0000

> <Gold.Goldscore.External.HBond>
7.9932

> <Gold.Goldscore.Internal.Correction>
-0.7585

> <Gold.Goldscore.Hbonds>
donor molecule, donor type, donor heavy atom, donor atom, acceptor molecule, acceptor atom, score
      P1  H  6703  6724       L1    11  0.05
      P1  H  8083  8097       L1    17  0.84
      L1  H     8    22       P1  8027  1.00

> <Gold.Goldscore.Internal.Vdw.Weighted>
-1.6596

> <Gold.Goldscore.Internal.Torsion.Weighted>
-0.4431

> <Gold.Goldscore.External.Vdw.Weighted>
21.2876

> <Gold.Goldscore.Internal.HBond.Weighted>
0.0000

> <Gold.Goldscore.External.HBond.Weighted>
7.9932

> <Gold.Goldscore.Internal.Correction.Weighted>
-0.7585

> <Gold.Rescore>
     Score     S(PLP)   S(hbond)     S(cho)   S(metal)  DE(clash)   DE(tors)     intcor
     26.85     -21.04       2.70       0.00       0.00       1.50       0.39       ----

> <Gold.PLP.Fitness>
26.8459

> <Gold.PLP.PLP>
-21.0353

> <Gold.PLP.part.hbond>
-3.0000

> <Gold.PLP.part.metal>
0.0000

> <Gold.PLP.part.buried>
-5.6534

> <Gold.PLP.part.nonpolar>
-13.8758

> <Gold.PLP.part.repulsive>
0.4274

> <Gold.PLP.ligand.clash>
1.4999

> <Gold.PLP.ligand.torsion>
0.3887

> <Gold.PLP.Chemscore.Hbond>
2.6960

> <Gold.PLP.Chemscore.CHOScore>
0.0000

> <Gold.PLP.Chemscore.Metal>
0.0000

> <Gold.Chemscore.Hbonds>
donor molecule, donor type, donor heavy atom, donor atom, acceptor molecule, acceptor atom, score
      L1  H     8    22       P1  8027  1.00
      P1  H  6703  6724       L1    11  0.43
      P1  H  8083  8097       L1    17  0.76

> <Gold.PLP.Chemscore.Internal.Correction>
   9.000000E+99

