#       Name:                CT1002167954
#       Creating user name   hitesit
#       Creation time:       Sun Apr 16 02:33:46 2023


#       File generated by GOLD software.
#

@<TRIPOS>MOLECULE
CT1002167954|ligand_prepared|mol2|1|dock8
    29    30     1
SMALL
NO_CHARGES


@<TRIPOS>ATOM
      1 C1         222.0771 342.3248 -108.4254 C.3            1 RES1               0.0000
      2 C2         223.2507 341.4999 -107.8587 C.ar           1 RES1               0.0000
      3 C3         221.4086 341.4493 -109.4812 C.2            1 RES1               0.0000
      4 C4         221.1810 342.6626 -107.2390 C.2            1 RES1               0.0000
      5 C5         222.5101 343.6521 -109.0904 C.3            1 RES1               0.0000
      6 C6         223.3117 340.1241 -108.0591 C.ar           1 RES1               0.0000
      7 C7         224.2791 342.1000 -107.1370 C.ar           1 RES1               0.0000
      8 N8         220.2048 340.8898 -109.1682 N.am           1 RES1               0.0000
      9 O9         221.9479 341.2211 -110.5570 O.2            1 RES1               0.0000
     10 N10        219.9223 342.1217 -107.2106 N.am           1 RES1               0.0000
     11 O11        221.5595 343.3790 -106.3204 O.2            1 RES1               0.0000
     12 C12        221.3911 344.3542 -109.8434 C.3            1 RES1               0.0000
     13 C13        224.3642 339.3756 -107.5588 C.ar           1 RES1               0.0000
     14 C14        225.3306 341.3496 -106.6373 C.ar           1 RES1               0.0000
     15 C15        219.4046 341.2260 -108.1060 C.2            1 RES1               0.0000
     16 C16        225.3745 339.9878 -106.8480 C.ar           1 RES1               0.0000
     17 O17        218.2831 340.7418 -107.9833 O.2            1 RES1               0.0000
     18 H18        222.8918 344.3275 -108.3148 H              1 RES1               0.0000
     19 H19        223.3305 343.4460 -109.7889 H              1 RES1               0.0000
     20 H20        222.5245 339.6246 -108.6139 H              1 RES1               0.0000
     21 H21        224.2649 343.1697 -106.9580 H              1 RES1               0.0000
     22 H22        219.8686 340.1533 -109.7805 H              1 RES1               0.0000
     23 H23        219.3149 342.4140 -106.4516 H              1 RES1               0.0000
     24 H24        221.7484 345.2795 -110.2904 H              1 RES1               0.0000
     25 H25        221.0047 343.7206 -110.6390 H              1 RES1               0.0000
     26 H26        220.5686 344.5969 -109.1737 H              1 RES1               0.0000
     27 H27        224.3934 338.3040 -107.7262 H              1 RES1               0.0000
     28 H28        226.1233 341.8355 -106.0779 H              1 RES1               0.0000
     29 H29        226.1991 339.4013 -106.4565 H              1 RES1               0.0000
@<TRIPOS>BOND
    1    1    2 1     
    2    1    3 1     
    3    1    4 1     
    4    1    5 1     
    5    2    6 ar    
    6    2    7 ar    
    7    3    8 1     
    8    3    9 2     
    9    4   10 1     
   10    4   11 2     
   11    5   12 1     
   12    5   18 1     
   13    5   19 1     
   14    6   13 ar    
   15    6   20 1     
   16    7   14 ar    
   17    7   21 1     
   18    8   15 1     
   19    8   22 1     
   20   10   15 1     
   21   10   23 1     
   22   12   24 1     
   23   12   25 1     
   24   12   26 1     
   25   13   16 ar    
   26   13   27 1     
   27   14   16 ar    
   28   14   28 1     
   29   15   17 2     
   30   16   29 1     
@<TRIPOS>SUBSTRUCTURE
      1 RES1           1
@<TRIPOS>SET
DONOR_HYDROGENS      STATIC     ATOMS    <user>   **** ""
2 22 23
ATOM$RED        STATIC     ATOMS    COLORGROUP SYSTEM
2 22 23
@<TRIPOS>COMMENT
> <Gold.Version>
2022.3.0

> <Gold.Id.Protein>
unknown|7ts3_clean|pdb

> <Gold.Protein.RotatedTorsions>
[ 7881 7855 7856 7857 ] final -117.91 input   70.76 | X-H torsion
[ 7957 7941 7942 7943 ] final  -91.32 input   58.28 | X-H torsion
[ 8037 8019 8020 8021 ] final  -73.18 input   92.82 | X-H torsion
[ 8097 8083 8084 8085 ] final -178.86 input   78.42 | X-H torsion
[ 8177 8155 8156 8157 ] final -159.63 input   79.32 | X-H torsion
[ 9486 9456 9455 9453 ] final  165.13 input   59.97 | X-H torsion
[ 7821 7805 7806 7807 ] final -165.25 input   99.19 | X-H torsion
[ 7825 7810 7809 7806 ] final -121.73 input   59.97 | X-H torsion
[ 7891 7863 7862 7861 ] final  176.40 input   59.98 | X-H torsion
[ 6481 6465 6466 6467 ] final  -89.45 input  110.33 | X-H torsion
[ 6573 6549 6550 6551 ] final   11.28 input  127.07 | X-H torsion
[ 8245 8229 8230 8231 ] final  116.92 input   96.27 | X-H torsion
[ 10140 10113 10114 10115 ] final  -69.28 input   44.66 | X-H torsion
[ 6713 6695 6696 6697 ] final    5.01 input  119.33 | X-H torsion
[ 27271 7808 7807 7806 ] final   40.08 input   -0.00 | X-H torsion
[ 27274 7858 7857 7856 ] final  166.77 input   -0.00 | X-H torsion
[ 27277 7944 7943 7942 ] final  -42.92 input   -0.00 | X-H torsion
[ 27280 8022 8021 8020 ] final   19.76 input    0.00 | X-H torsion
[ 27283 8086 8085 8084 ] final  108.57 input   -0.00 | X-H torsion
[ 27288 10020 10019 10017 ] final   44.19 input   -0.00 | X-H torsion
[ 27290 6468 6467 6466 ] final -135.56 input    0.00 | X-H torsion
[ 27292 7728 7727 7726 ] final  -18.59 input   -0.00 | X-H torsion
[ 27299 6228 6227 6226 ] final  -67.84 input   -0.00 | X-H torsion
[ 27303 10116 10115 10114 ] final  -17.71 input    0.00 | X-H torsion
[ 27305 6274 6273 6272 ] final  161.26 input    0.00 | X-H torsion

> <Gold.Protein.ActiveResidues>
 ASP403  THR404  ILE407  TYR408  ALA410  LYS411  TRP426  SER427  LYS428  LEU429 
 GLN430  VAL431  PHE432  ASP433  TYR453  SER462  ALA463  ILE464 

> <Gold.Protein.RotatedAtoms>
  229.5607  342.7536 -100.9351 H   0  0  0  0  0  0  0  0  0  0  0  0  # atno 6481 bound_to 6465
  227.8624  344.7140 -100.4935 H   0  0  0  0  0  0  0  0  0  0  0  0  # atno 6573 bound_to 6549
  229.0750  348.5600 -102.8334 H   0  0  0  0  0  0  0  0  0  0  0  0  # atno 6713 bound_to 6695
  223.0865  351.8309 -106.4163 H   0  0  0  0  0  0  0  0  0  0  0  0  # atno 7821 bound_to 7805
  219.4175  351.1301 -106.4339 H   0  0  0  0  0  0  0  0  0  0  0  0  # atno 7825 bound_to 7810
  221.8280  348.6990 -107.6341 H   0  0  0  0  0  0  0  0  0  0  0  0  # atno 7881 bound_to 7855
  219.5758  345.8347 -114.8263 H   0  0  0  0  0  0  0  0  0  0  0  0  # atno 7891 bound_to 7863
  220.6968  346.1255 -113.6399 H   0  0  0  0  0  0  0  0  0  0  0  0  # atno 7892 bound_to 7863
  219.0925  345.9768 -113.2475 H   0  0  0  0  0  0  0  0  0  0  0  0  # atno 7893 bound_to 7863
  223.3988  346.8800 -110.0325 H   0  0  0  0  0  0  0  0  0  0  0  0  # atno 7957 bound_to 7941
  225.9066  344.8540 -109.4739 H   0  0  0  0  0  0  0  0  0  0  0  0  # atno 8037 bound_to 8019
  227.1913  342.8303 -108.3989 H   0  0  0  0  0  0  0  0  0  0  0  0  # atno 8097 bound_to 8083
  229.6067  340.2500 -108.9703 H   0  0  0  0  0  0  0  0  0  0  0  0  # atno 8177 bound_to 8155
  231.0411  337.4015 -106.7021 H   0  0  0  0  0  0  0  0  0  0  0  0  # atno 8245 bound_to 8229
  224.2178  341.6729 -113.7697 H   0  0  0  0  0  0  0  0  0  0  0  0  # atno 9486 bound_to 9456
  231.1058  344.0080 -111.8917 H   0  0  0  0  0  0  0  0  0  0  0  0  # atno 10140 bound_to 10113
  220.8346  347.6293 -106.1017 LP  0  0  0  0  0  0  0  0  0  0  0  0  # atno 27271 bound_to 7808
  221.8823  346.7794 -107.1878 LP  0  0  0  0  0  0  0  0  0  0  0  0  # atno 27272 bound_to 7808
  222.6502  349.7835 -108.7446 LP  0  0  0  0  0  0  0  0  0  0  0  0  # atno 27273 bound_to 7855
  224.5375  347.4962 -111.6193 LP  0  0  0  0  0  0  0  0  0  0  0  0  # atno 27274 bound_to 7858
  222.9062  347.9271 -112.0106 LP  0  0  0  0  0  0  0  0  0  0  0  0  # atno 27275 bound_to 7858
  223.7998  347.1750 -108.3516 LP  0  0  0  0  0  0  0  0  0  0  0  0  # atno 27276 bound_to 7941
  225.5233  345.0304 -107.3787 LP  0  0  0  0  0  0  0  0  0  0  0  0  # atno 27277 bound_to 7944
  224.7593  343.7013 -108.1848 LP  0  0  0  0  0  0  0  0  0  0  0  0  # atno 27278 bound_to 7944
  226.1023  344.7498 -111.2086 LP  0  0  0  0  0  0  0  0  0  0  0  0  # atno 27279 bound_to 8019
  228.5451  343.6979 -110.8504 LP  0  0  0  0  0  0  0  0  0  0  0  0  # atno 27280 bound_to 8022
  229.4864  342.5372 -109.9747 LP  0  0  0  0  0  0  0  0  0  0  0  0  # atno 27281 bound_to 8022
  227.1903  341.1750 -108.9620 LP  0  0  0  0  0  0  0  0  0  0  0  0  # atno 27282 bound_to 8083
  228.1728  338.7264 -108.3039 LP  0  0  0  0  0  0  0  0  0  0  0  0  # atno 27283 bound_to 8086
  228.5382  339.0715 -106.6464 LP  0  0  0  0  0  0  0  0  0  0  0  0  # atno 27284 bound_to 8086
  230.9639  340.8367 -108.0293 LP  0  0  0  0  0  0  0  0  0  0  0  0  # atno 27285 bound_to 8155
  223.6985  340.1329 -113.6898 LP  0  0  0  0  0  0  0  0  0  0  0  0  # atno 27286 bound_to 9456
  223.2928  341.0693 -114.9646 LP  0  0  0  0  0  0  0  0  0  0  0  0  # atno 27287 bound_to 9456
  226.1111  344.8811 -113.6837 LP  0  0  0  0  0  0  0  0  0  0  0  0  # atno 27288 bound_to 10020
  226.9694  344.9187 -112.1797 LP  0  0  0  0  0  0  0  0  0  0  0  0  # atno 27289 bound_to 10020
  228.0346  346.5352 -101.9240 LP  0  0  0  0  0  0  0  0  0  0  0  0  # atno 27290 bound_to 6468
  227.3677  345.6235 -103.2371 LP  0  0  0  0  0  0  0  0  0  0  0  0  # atno 27291 bound_to 6468
  225.6435  350.3110 -107.6116 LP  0  0  0  0  0  0  0  0  0  0  0  0  # atno 27292 bound_to 7728
  224.5572  349.5628 -106.4891 LP  0  0  0  0  0  0  0  0  0  0  0  0  # atno 27293 bound_to 7728
  222.6016  351.1773 -107.9620 LP  0  0  0  0  0  0  0  0  0  0  0  0  # atno 27294 bound_to 7805
  219.1837  349.5268 -106.2839 LP  0  0  0  0  0  0  0  0  0  0  0  0  # atno 27295 bound_to 7810
  220.2153  350.1025 -107.4112 LP  0  0  0  0  0  0  0  0  0  0  0  0  # atno 27296 bound_to 7810
  228.1188  342.1890 -100.1364 LP  0  0  0  0  0  0  0  0  0  0  0  0  # atno 27297 bound_to 6465
  226.1729  344.2600 -100.4218 LP  0  0  0  0  0  0  0  0  0  0  0  0  # atno 27298 bound_to 6549
  228.7272  340.4858 -100.0427 LP  0  0  0  0  0  0  0  0  0  0  0  0  # atno 27299 bound_to 6228
  227.1788  340.0265 -100.6684 LP  0  0  0  0  0  0  0  0  0  0  0  0  # atno 27300 bound_to 6228
  232.3231  338.1991 -107.5876 LP  0  0  0  0  0  0  0  0  0  0  0  0  # atno 27301 bound_to 8229
  230.3280  344.7491 -110.5074 LP  0  0  0  0  0  0  0  0  0  0  0  0  # atno 27302 bound_to 10113
  231.1792  342.5892 -109.1348 LP  0  0  0  0  0  0  0  0  0  0  0  0  # atno 27303 bound_to 10116
  232.2322  341.2780 -109.5494 LP  0  0  0  0  0  0  0  0  0  0  0  0  # atno 27304 bound_to 10116
  226.7836  343.5137  -98.1315 LP  0  0  0  0  0  0  0  0  0  0  0  0  # atno 27305 bound_to 6274
  226.0419  342.5413  -99.3581 LP  0  0  0  0  0  0  0  0  0  0  0  0  # atno 27306 bound_to 6274

> <Gold.Score>
     Fitness  S(hb_ext) S(vdw_ext)  S(hb_int)    S(int)      intcor
     28.02       1.40      20.41       0.00      -1.45      -0.76

> <Gold.Goldscore.Fitness>
28.0156

> <Gold.Goldscore.Internal.Vdw>
-1.6955

> <Gold.Goldscore.Internal.Torsion>
-0.5089

> <Gold.Goldscore.External.Vdw>
20.4068

> <Gold.Goldscore.Internal.HBond>
0.0000

> <Gold.Goldscore.External.HBond>
1.4021

> <Gold.Goldscore.Internal.Correction>
-0.7585

> <Gold.Goldscore.Hbonds>
donor molecule, donor type, donor heavy atom, donor atom, acceptor molecule, acceptor atom, score
      P1  H  6703  6724       L1    11  0.23

> <Gold.Goldscore.Internal.Vdw.Weighted>
-1.6955

> <Gold.Goldscore.Internal.Torsion.Weighted>
-0.5089

> <Gold.Goldscore.External.Vdw.Weighted>
28.0594

> <Gold.Goldscore.Internal.HBond.Weighted>
0.0000

> <Gold.Goldscore.External.HBond.Weighted>
1.4021

> <Gold.Goldscore.Internal.Correction.Weighted>
-0.7585

> <Gold.Rescore>
     Score     S(PLP)   S(hbond)     S(cho)   S(metal)  DE(clash)   DE(tors)     intcor
     23.39     -22.92       0.83       0.00       0.00       0.00       1.01       ----

> <Gold.PLP.Fitness>
23.3942

> <Gold.PLP.PLP>
-22.9248

> <Gold.PLP.part.hbond>
-1.0000

> <Gold.PLP.part.metal>
0.0000

> <Gold.PLP.part.buried>
-3.4469

> <Gold.PLP.part.nonpolar>
-19.8969

> <Gold.PLP.part.repulsive>
1.0530

> <Gold.PLP.ligand.clash>
0.0000

> <Gold.PLP.ligand.torsion>
1.0133

> <Gold.PLP.Chemscore.Hbond>
0.8320

> <Gold.PLP.Chemscore.CHOScore>
0.0000

> <Gold.PLP.Chemscore.Metal>
0.0000

> <Gold.Chemscore.Hbonds>
donor molecule, donor type, donor heavy atom, donor atom, acceptor molecule, acceptor atom, score
      P1  H  6703  6724       L1    11  0.91

> <Gold.PLP.Chemscore.Internal.Correction>
   9.000000E+99

