#       Name:                CT1002167954
#       Creating user name   hitesit
#       Creation time:       Sun Apr 16 20:34:43 2023


#       File generated by GOLD software.
#

@<TRIPOS>MOLECULE
CT1002167954|ligand_prepared|mol2|1|dock8
    29    30     1
SMALL
NO_CHARGES


@<TRIPOS>ATOM
      1 C1         247.4132  -5.8176  40.0339 C.3            1 RES1               0.0000
      2 C2         247.3329  -6.9251  38.9636 C.ar           1 RES1               0.0000
      3 C3         246.1235  -5.0110  39.9135 C.2            1 RES1               0.0000
      4 C4         247.5793  -6.5290  41.3722 C.2            1 RES1               0.0000
      5 C5         248.6118  -4.8577  39.8511 C.3            1 RES1               0.0000
      6 C6         248.4573  -7.6767  38.6359 C.ar           1 RES1               0.0000
      7 C7         246.1429  -7.2080  38.2984 C.ar           1 RES1               0.0000
      8 N8         245.1793  -5.1806  40.8827 N.am           1 RES1               0.0000
      9 O9         245.9217  -4.2671  38.9615 O.2            1 RES1               0.0000
     10 N10        246.5640  -6.4225  42.2864 N.am           1 RES1               0.0000
     11 O11        248.5729  -7.1944  41.6370 O.2            1 RES1               0.0000
     12 C12        248.8282  -4.4140  38.4129 C.3            1 RES1               0.0000
     13 C13        248.3938  -8.6770  37.6800 C.ar           1 RES1               0.0000
     14 C14        246.0816  -8.2086  37.3426 C.ar           1 RES1               0.0000
     15 C15        245.3582  -5.8060  42.0904 C.2            1 RES1               0.0000
     16 C16        247.2061  -8.9439  37.0331 C.ar           1 RES1               0.0000
     17 O17        244.4733  -5.7993  42.9413 O.2            1 RES1               0.0000
     18 H18        248.4510  -3.9693  40.4743 H              1 RES1               0.0000
     19 H19        249.5214  -5.3569  40.2072 H              1 RES1               0.0000
     20 H20        249.4014  -7.4794  39.1327 H              1 RES1               0.0000
     21 H21        245.2459  -6.6417  38.5249 H              1 RES1               0.0000
     22 H22        244.2545  -4.8082  40.6919 H              1 RES1               0.0000
     23 H23        246.7217  -6.8415  43.1973 H              1 RES1               0.0000
     24 H24        249.6809  -3.7422  38.3406 H              1 RES1               0.0000
     25 H25        249.0161  -5.2707  37.7690 H              1 RES1               0.0000
     26 H26        247.9520  -3.8914  38.0346 H              1 RES1               0.0000
     27 H27        249.2819  -9.2519  37.4390 H              1 RES1               0.0000
     28 H28        245.1449  -8.4149  36.8355 H              1 RES1               0.0000
     29 H29        247.1565  -9.7278  36.2846 H              1 RES1               0.0000
@<TRIPOS>BOND
    1    1    2 1     
    2    1    3 1     
    3    1    4 1     
    4    1    5 1     
    5    2    6 ar    
    6    2    7 ar    
    7    3    8 1     
    8    3    9 2     
    9    4   10 1     
   10    4   11 2     
   11    5   12 1     
   12    5   18 1     
   13    5   19 1     
   14    6   13 ar    
   15    6   20 1     
   16    7   14 ar    
   17    7   21 1     
   18    8   15 1     
   19    8   22 1     
   20   10   15 1     
   21   10   23 1     
   22   12   24 1     
   23   12   25 1     
   24   12   26 1     
   25   13   16 ar    
   26   13   27 1     
   27   14   16 ar    
   28   14   28 1     
   29   15   17 2     
   30   16   29 1     
@<TRIPOS>SUBSTRUCTURE
      1 RES1           1
@<TRIPOS>SET
DONOR_HYDROGENS      STATIC     ATOMS    <user>   **** ""
2 22 23
ATOM$RED        STATIC     ATOMS    COLORGROUP SYSTEM
2 22 23
@<TRIPOS>COMMENT
> <Gold.Version>
2022.3.0

> <Gold.Id.Protein>
unknown|4d1n_clean|pdb

> <Gold.Protein.RotatedTorsions>
[ 6614 6573 6574 6575 ] final -110.34 input  116.02 | X-H torsion
[ 6700 6661 6662 6663 ] final -107.98 input  125.25 | X-H torsion
[ 8066 8025 8026 8027 ] final  -59.39 input   31.90 | X-H torsion
[ 8137 8104 8105 8106 ] final -111.57 input   91.64 | X-H torsion
[ 8200 8166 8167 8168 ] final  178.30 input   70.29 | X-H torsion
[ 8280 8242 8243 8244 ] final  -41.67 input   89.64 | X-H torsion
[ 8333 8313 8314 8315 ] final   24.88 input   85.58 | X-H torsion
[ 9580 9544 9543 9541 ] final -116.50 input   60.01 | X-H torsion
[ 10226 10185 10186 10187 ] final    5.12 input   40.00 | X-H torsion
[ 7988 7940 7941 7942 ] final -122.03 input   82.26 | X-H torsion
[ 7908 7887 7888 7889 ] final -107.59 input   90.27 | X-H torsion
[ 7912 7892 7891 7888 ] final -101.42 input   59.97 | X-H torsion
[ 6852 6804 6805 6806 ] final  126.05 input  117.17 | X-H torsion
[ 27193 6336 6335 6334 ] final    6.16 input   -0.00 | X-H torsion
[ 27195 6500 6499 6498 ] final   41.72 input    0.00 | X-H torsion
[ 27198 6576 6575 6574 ] final   -2.44 input   -0.00 | X-H torsion
[ 27201 7890 7889 7888 ] final   -4.27 input    0.00 | X-H torsion
[ 27204 8028 8027 8026 ] final -121.16 input   -0.00 | X-H torsion
[ 27207 8107 8106 8105 ] final  -83.91 input    0.00 | X-H torsion
[ 27210 8169 8168 8167 ] final -177.15 input    0.00 | X-H torsion
[ 27213 10098 10097 10096 ] final -129.50 input    0.00 | X-H torsion
[ 27215 10188 10187 10186 ] final  130.83 input   -0.00 | X-H torsion
[ 27217 8245 8244 8243 ] final   72.44 input   -0.00 | X-H torsion
[ 27224 7943 7942 7941 ] final -151.25 input    0.00 | X-H torsion
[ 27226 7818 7817 7816 ] final -151.19 input    0.00 | X-H torsion

> <Gold.Protein.ActiveResidues>
 ASP403  THR404  LEU406  ILE407  TYR408  ALA410  LYS411  TRP414  TRP426  SER427 
 LYS428  LEU429  GLN430  VAL431  PHE432  ASP433  TYR453  SER462  ALA463  ILE464 
 ILE466 

> <Gold.Protein.RotatedAtoms>
  242.2735   -0.6531   50.0396 H   0  0  0  0  0  0  0  0  0  0  0  0  # atno 6614 bound_to 6573
  240.2420   -2.0555   47.2461 H   0  0  0  0  0  0  0  0  0  0  0  0  # atno 6700 bound_to 6661
  240.8042    1.1769   45.1437 H   0  0  0  0  0  0  0  0  0  0  0  0  # atno 6852 bound_to 6804
  240.3868    0.0344   38.0286 H   0  0  0  0  0  0  0  0  0  0  0  0  # atno 7908 bound_to 7887
  238.9595   -3.2821   36.3832 H   0  0  0  0  0  0  0  0  0  0  0  0  # atno 7912 bound_to 7892
  241.9708   -2.9211   38.1390 H   0  0  0  0  0  0  0  0  0  0  0  0  # atno 7988 bound_to 7940
  245.6367   -2.7456   39.2044 H   0  0  0  0  0  0  0  0  0  0  0  0  # atno 8066 bound_to 8025
  246.8634   -1.9179   41.4396 H   0  0  0  0  0  0  0  0  0  0  0  0  # atno 8137 bound_to 8104
  247.3993   -1.5953   44.3209 H   0  0  0  0  0  0  0  0  0  0  0  0  # atno 8200 bound_to 8166
  248.8319   -0.3956   47.7363 H   0  0  0  0  0  0  0  0  0  0  0  0  # atno 8280 bound_to 8242
  250.9874   -1.0581   50.9476 H   0  0  0  0  0  0  0  0  0  0  0  0  # atno 8333 bound_to 8313
  251.8661   -4.0326   38.9581 H   0  0  0  0  0  0  0  0  0  0  0  0  # atno 9580 bound_to 9544
  249.8875    1.9075   44.1146 H   0  0  0  0  0  0  0  0  0  0  0  0  # atno 10226 bound_to 10185
  243.0855   -2.9743   51.6292 LP  0  0  0  0  0  0  0  0  0  0  0  0  # atno 27193 bound_to 6336
  241.6430   -3.5616   50.8715 LP  0  0  0  0  0  0  0  0  0  0  0  0  # atno 27194 bound_to 6336
  242.1994    1.6479   49.5631 LP  0  0  0  0  0  0  0  0  0  0  0  0  # atno 27195 bound_to 6500
  241.2832    0.7984   48.3635 LP  0  0  0  0  0  0  0  0  0  0  0  0  # atno 27196 bound_to 6500
  241.0323   -1.8804   50.1342 LP  0  0  0  0  0  0  0  0  0  0  0  0  # atno 27197 bound_to 6573
  241.7570   -0.1617   46.1507 LP  0  0  0  0  0  0  0  0  0  0  0  0  # atno 27198 bound_to 6576
  240.0505   -0.2351   45.8634 LP  0  0  0  0  0  0  0  0  0  0  0  0  # atno 27199 bound_to 6576
  239.7014   -1.5255   48.8245 LP  0  0  0  0  0  0  0  0  0  0  0  0  # atno 27200 bound_to 6661
  241.4290   -3.7636   40.2277 LP  0  0  0  0  0  0  0  0  0  0  0  0  # atno 27201 bound_to 7890
  242.9514   -4.0780   39.4637 LP  0  0  0  0  0  0  0  0  0  0  0  0  # atno 27202 bound_to 7890
  244.1063   -1.9348   39.4561 LP  0  0  0  0  0  0  0  0  0  0  0  0  # atno 27203 bound_to 8025
  245.7686   -2.1614   43.3871 LP  0  0  0  0  0  0  0  0  0  0  0  0  # atno 27204 bound_to 8028
  245.2663   -3.1723   42.0734 LP  0  0  0  0  0  0  0  0  0  0  0  0  # atno 27205 bound_to 8028
  248.1253   -0.7226   41.2658 LP  0  0  0  0  0  0  0  0  0  0  0  0  # atno 27206 bound_to 8104
  249.8695    0.1584   43.9344 LP  0  0  0  0  0  0  0  0  0  0  0  0  # atno 27207 bound_to 8107
  248.2408    0.6946   43.6894 LP  0  0  0  0  0  0  0  0  0  0  0  0  # atno 27208 bound_to 8107
  248.7684   -2.3490   45.1031 LP  0  0  0  0  0  0  0  0  0  0  0  0  # atno 27209 bound_to 8166
  249.4884   -2.4871   48.5779 LP  0  0  0  0  0  0  0  0  0  0  0  0  # atno 27210 bound_to 8169
  248.1416   -2.9257   47.5810 LP  0  0  0  0  0  0  0  0  0  0  0  0  # atno 27211 bound_to 8169
  250.1706   -0.0202   46.6807 LP  0  0  0  0  0  0  0  0  0  0  0  0  # atno 27212 bound_to 8242
  249.1141   -0.3607   40.5341 LP  0  0  0  0  0  0  0  0  0  0  0  0  # atno 27213 bound_to 10098
  250.2659   -0.7856   39.3123 LP  0  0  0  0  0  0  0  0  0  0  0  0  # atno 27214 bound_to 10098
  250.6739    1.7135   46.5936 LP  0  0  0  0  0  0  0  0  0  0  0  0  # atno 27215 bound_to 10188
  248.9790    1.6798   46.2383 LP  0  0  0  0  0  0  0  0  0  0  0  0  # atno 27216 bound_to 10188
  249.0272    1.6087   49.4688 LP  0  0  0  0  0  0  0  0  0  0  0  0  # atno 27217 bound_to 8245
  250.3954    1.9626   50.4702 LP  0  0  0  0  0  0  0  0  0  0  0  0  # atno 27218 bound_to 8245
  249.5080   -0.6767   50.0971 LP  0  0  0  0  0  0  0  0  0  0  0  0  # atno 27219 bound_to 8313
  251.1463   -4.0646   40.4176 LP  0  0  0  0  0  0  0  0  0  0  0  0  # atno 27220 bound_to 9544
  252.0607   -5.3256   39.9273 LP  0  0  0  0  0  0  0  0  0  0  0  0  # atno 27221 bound_to 9544
  249.2266    2.8989   42.8366 LP  0  0  0  0  0  0  0  0  0  0  0  0  # atno 27222 bound_to 10185
  242.4602   -1.4807   37.2734 LP  0  0  0  0  0  0  0  0  0  0  0  0  # atno 27223 bound_to 7940
  246.3822   -0.5605   37.9361 LP  0  0  0  0  0  0  0  0  0  0  0  0  # atno 27224 bound_to 7943
  245.0549   -0.5768   36.8233 LP  0  0  0  0  0  0  0  0  0  0  0  0  # atno 27225 bound_to 7943
  241.5967   -0.2072   39.7737 LP  0  0  0  0  0  0  0  0  0  0  0  0  # atno 27226 bound_to 7818
  240.8869    1.3718   39.7195 LP  0  0  0  0  0  0  0  0  0  0  0  0  # atno 27227 bound_to 7818
  240.3911   -1.0819   36.6887 LP  0  0  0  0  0  0  0  0  0  0  0  0  # atno 27228 bound_to 7887
  239.3547   -4.6680   37.1393 LP  0  0  0  0  0  0  0  0  0  0  0  0  # atno 27229 bound_to 7892
  240.5067   -3.5600   36.8048 LP  0  0  0  0  0  0  0  0  0  0  0  0  # atno 27230 bound_to 7892

> <Gold.Score>
     Fitness  S(hb_ext) S(vdw_ext)  S(hb_int)    S(int)      intcor
     22.87       7.33      13.57       0.00      -3.13      -0.76

> <Gold.Goldscore.Fitness>
22.8705

> <Gold.Goldscore.Internal.Vdw>
-3.1162

> <Gold.Goldscore.Internal.Torsion>
-0.7652

> <Gold.Goldscore.External.Vdw>
13.5730

> <Gold.Goldscore.Internal.HBond>
0.0000

> <Gold.Goldscore.External.HBond>
7.3332

> <Gold.Goldscore.Internal.Correction>
-0.7558

> <Gold.Goldscore.Hbonds>
donor molecule, donor type, donor heavy atom, donor atom, acceptor molecule, acceptor atom, score
      P1  H  6812  6863       L1    17  0.97
      P1  H  8025  8066       L1     9  0.38
      L1  H     8    22       P1  7890  0.38

> <Gold.Goldscore.Internal.Vdw.Weighted>
-3.1162

> <Gold.Goldscore.Internal.Torsion.Weighted>
-0.7652

> <Gold.Goldscore.External.Vdw.Weighted>
18.6629

> <Gold.Goldscore.Internal.HBond.Weighted>
0.0000

> <Gold.Goldscore.External.HBond.Weighted>
7.3332

> <Gold.Goldscore.Internal.Correction.Weighted>
-0.7558

> <Gold.Rescore>
     Score     S(PLP)   S(hbond)     S(cho)   S(metal)  DE(clash)   DE(tors)     intcor
     18.41     -12.92       2.30       0.00       0.00       1.36       0.02       ----

> <Gold.PLP.Fitness>
18.4104

> <Gold.PLP.PLP>
-12.9248

> <Gold.PLP.part.hbond>
-2.9885

> <Gold.PLP.part.metal>
0.0000

> <Gold.PLP.part.buried>
1.4391

> <Gold.PLP.part.nonpolar>
-12.2234

> <Gold.PLP.part.repulsive>
0.3538

> <Gold.PLP.ligand.clash>
1.3572

> <Gold.PLP.ligand.torsion>
0.0215

> <Gold.PLP.Chemscore.Hbond>
2.2953

> <Gold.PLP.Chemscore.CHOScore>
0.0000

> <Gold.PLP.Chemscore.Metal>
0.0000

> <Gold.Chemscore.Hbonds>
donor molecule, donor type, donor heavy atom, donor atom, acceptor molecule, acceptor atom, score
      P1  H  6812  6863       L1    17  1.00
      P1  H  8025  8066       L1     9  0.91
      P1  H  8111  8143       L1    11  0.12

> <Gold.PLP.Chemscore.Internal.Correction>
   9.000000E+99

