#       Name:                CT1002167954
#       Creating user name   hitesit
#       Creation time:       Sun Apr 16 20:34:41 2023


#       File generated by GOLD software.
#

@<TRIPOS>MOLECULE
CT1002167954|ligand_prepared|mol2|1|dock3
    29    30     1
SMALL
NO_CHARGES


@<TRIPOS>ATOM
      1 C1         248.9050  -4.1615  37.2391 C.3            1 RES1               0.0000
      2 C2         249.9974  -5.2464  37.3307 C.ar           1 RES1               0.0000
      3 C3         247.5866  -4.8982  37.0215 C.2            1 RES1               0.0000
      4 C4         248.9716  -3.3777  38.5452 C.2            1 RES1               0.0000
      5 C5         249.1095  -3.1658  36.0735 C.3            1 RES1               0.0000
      6 C6         250.2417  -5.9064  38.5313 C.ar           1 RES1               0.0000
      7 C7         250.7657  -5.5995  36.2244 C.ar           1 RES1               0.0000
      8 N8         246.7209  -4.9679  38.0729 N.am           1 RES1               0.0000
      9 O9         247.3277  -5.4436  35.9558 O.2            1 RES1               0.0000
     10 N10        247.8981  -3.4515  39.3937 N.am           1 RES1               0.0000
     11 O11        249.9509  -2.7103  38.8548 O.2            1 RES1               0.0000
     12 C12        248.2348  -1.9255  36.1661 C.3            1 RES1               0.0000
     13 C13        251.2167  -6.8859  38.6221 C.ar           1 RES1               0.0000
     14 C14        251.7404  -6.5792  36.3175 C.ar           1 RES1               0.0000
     15 C15        246.7886  -4.2356  39.2309 C.2            1 RES1               0.0000
     16 C16        251.9663  -7.2232  37.5154 C.ar           1 RES1               0.0000
     17 O17        245.8893  -4.2897  40.0648 O.2            1 RES1               0.0000
     18 H18        250.1615  -2.8554  36.0547 H              1 RES1               0.0000
     19 H19        248.8946  -3.6796  35.1284 H              1 RES1               0.0000
     20 H20        249.6635  -5.6526  39.4135 H              1 RES1               0.0000
     21 H21        250.6061  -5.1053  35.2721 H              1 RES1               0.0000
     22 H22        245.9520  -5.6254  37.9907 H              1 RES1               0.0000
     23 H23        247.9290  -2.8678  40.2236 H              1 RES1               0.0000
     24 H24        248.4178  -1.2608  35.3245 H              1 RES1               0.0000
     25 H25        247.1808  -2.1955  36.1618 H              1 RES1               0.0000
     26 H26        248.4402  -1.3762  37.0826 H              1 RES1               0.0000
     27 H27        251.3916  -7.3888  39.5675 H              1 RES1               0.0000
     28 H28        252.3284  -6.8410  35.4441 H              1 RES1               0.0000
     29 H29        252.7298  -7.9909  37.5867 H              1 RES1               0.0000
@<TRIPOS>BOND
    1    1    2 1     
    2    1    3 1     
    3    1    4 1     
    4    1    5 1     
    5    2    6 ar    
    6    2    7 ar    
    7    3    8 1     
    8    3    9 2     
    9    4   10 1     
   10    4   11 2     
   11    5   12 1     
   12    5   18 1     
   13    5   19 1     
   14    6   13 ar    
   15    6   20 1     
   16    7   14 ar    
   17    7   21 1     
   18    8   15 1     
   19    8   22 1     
   20   10   15 1     
   21   10   23 1     
   22   12   24 1     
   23   12   25 1     
   24   12   26 1     
   25   13   16 ar    
   26   13   27 1     
   27   14   16 ar    
   28   14   28 1     
   29   15   17 2     
   30   16   29 1     
@<TRIPOS>SUBSTRUCTURE
      1 RES1           1
@<TRIPOS>SET
DONOR_HYDROGENS      STATIC     ATOMS    <user>   **** ""
2 22 23
ATOM$RED        STATIC     ATOMS    COLORGROUP SYSTEM
2 22 23
@<TRIPOS>COMMENT
> <Gold.Version>
2022.3.0

> <Gold.Id.Protein>
unknown|4d1n_clean|pdb

> <Gold.Protein.RotatedTorsions>
[ 6614 6573 6574 6575 ] final  103.09 input  116.02 | X-H torsion
[ 6700 6661 6662 6663 ] final   44.43 input  125.25 | X-H torsion
[ 8066 8025 8026 8027 ] final    8.11 input   31.90 | X-H torsion
[ 8137 8104 8105 8106 ] final   16.55 input   91.64 | X-H torsion
[ 8200 8166 8167 8168 ] final  159.10 input   70.29 | X-H torsion
[ 8280 8242 8243 8244 ] final -120.78 input   89.64 | X-H torsion
[ 8333 8313 8314 8315 ] final -147.88 input   85.58 | X-H torsion
[ 9580 9544 9543 9541 ] final -105.34 input   60.01 | X-H torsion
[ 10226 10185 10186 10187 ] final  -62.47 input   40.00 | X-H torsion
[ 7988 7940 7941 7942 ] final  160.43 input   82.26 | X-H torsion
[ 7908 7887 7888 7889 ] final  -52.85 input   90.27 | X-H torsion
[ 7912 7892 7891 7888 ] final   60.04 input   59.97 | X-H torsion
[ 6852 6804 6805 6806 ] final -123.33 input  117.17 | X-H torsion
[ 27193 6336 6335 6334 ] final  122.32 input   -0.00 | X-H torsion
[ 27195 6500 6499 6498 ] final  159.80 input    0.00 | X-H torsion
[ 27198 6576 6575 6574 ] final  -49.72 input   -0.00 | X-H torsion
[ 27201 7890 7889 7888 ] final   93.51 input    0.00 | X-H torsion
[ 27204 8028 8027 8026 ] final   21.17 input   -0.00 | X-H torsion
[ 27207 8107 8106 8105 ] final  104.57 input    0.00 | X-H torsion
[ 27210 8169 8168 8167 ] final   39.19 input    0.00 | X-H torsion
[ 27213 10098 10097 10096 ] final  -59.31 input    0.00 | X-H torsion
[ 27215 10188 10187 10186 ] final  -90.78 input   -0.00 | X-H torsion
[ 27217 8245 8244 8243 ] final  114.73 input   -0.00 | X-H torsion
[ 27224 7943 7942 7941 ] final  135.84 input    0.00 | X-H torsion
[ 27226 7818 7817 7816 ] final  -66.62 input    0.00 | X-H torsion

> <Gold.Protein.ActiveResidues>
 ASP403  THR404  LEU406  ILE407  TYR408  ALA410  LYS411  TRP414  TRP426  SER427 
 LYS428  LEU429  GLN430  VAL431  PHE432  ASP433  TYR453  SER462  ALA463  ILE464 
 ILE466 

> <Gold.Protein.RotatedAtoms>
  241.4579   -2.1253   50.2449 H   0  0  0  0  0  0  0  0  0  0  0  0  # atno 6614 bound_to 6573
  239.8644   -1.1671   48.6806 H   0  0  0  0  0  0  0  0  0  0  0  0  # atno 6700 bound_to 6661
  241.6268    2.2836   44.6721 H   0  0  0  0  0  0  0  0  0  0  0  0  # atno 6852 bound_to 6804
  241.1033   -0.1864   37.7325 H   0  0  0  0  0  0  0  0  0  0  0  0  # atno 7908 bound_to 7887
  240.4275   -4.1569   37.0874 H   0  0  0  0  0  0  0  0  0  0  0  0  # atno 7912 bound_to 7892
  241.9935   -2.7419   37.0401 H   0  0  0  0  0  0  0  0  0  0  0  0  # atno 7988 bound_to 7940
  245.0253   -2.9476   39.9534 H   0  0  0  0  0  0  0  0  0  0  0  0  # atno 8066 bound_to 8025
  247.5739   -0.5356   41.7608 H   0  0  0  0  0  0  0  0  0  0  0  0  # atno 8137 bound_to 8104
  247.2610   -1.8139   44.4622 H   0  0  0  0  0  0  0  0  0  0  0  0  # atno 8200 bound_to 8166
  249.4385   -1.0756   47.0832 H   0  0  0  0  0  0  0  0  0  0  0  0  # atno 8280 bound_to 8242
  249.5276   -0.5665   50.0796 H   0  0  0  0  0  0  0  0  0  0  0  0  # atno 8333 bound_to 8313
  251.9643   -4.1809   38.9190 H   0  0  0  0  0  0  0  0  0  0  0  0  # atno 9580 bound_to 9544
  250.4267    2.5089   43.5550 H   0  0  0  0  0  0  0  0  0  0  0  0  # atno 10226 bound_to 10185
  242.4524   -3.9744   50.7571 LP  0  0  0  0  0  0  0  0  0  0  0  0  # atno 27193 bound_to 6336
  242.2760   -2.5616   51.7435 LP  0  0  0  0  0  0  0  0  0  0  0  0  # atno 27194 bound_to 6336
  242.1714    0.7328   48.3935 LP  0  0  0  0  0  0  0  0  0  0  0  0  # atno 27195 bound_to 6500
  241.3113    1.7134   49.5331 LP  0  0  0  0  0  0  0  0  0  0  0  0  # atno 27196 bound_to 6500
  241.8275   -0.4453   49.9340 LP  0  0  0  0  0  0  0  0  0  0  0  0  # atno 27197 bound_to 6573
  241.3977    0.3342   46.4785 LP  0  0  0  0  0  0  0  0  0  0  0  0  # atno 27198 bound_to 6576
  240.4097   -0.7311   45.5356 LP  0  0  0  0  0  0  0  0  0  0  0  0  # atno 27199 bound_to 6576
  240.0663   -2.3839   47.4384 LP  0  0  0  0  0  0  0  0  0  0  0  0  # atno 27200 bound_to 6661
  241.9277   -4.5552   39.3179 LP  0  0  0  0  0  0  0  0  0  0  0  0  # atno 27201 bound_to 7890
  242.4528   -3.2864   40.3735 LP  0  0  0  0  0  0  0  0  0  0  0  0  # atno 27202 bound_to 7890
  244.6986   -1.7391   38.7304 LP  0  0  0  0  0  0  0  0  0  0  0  0  # atno 27203 bound_to 8025
  244.8981   -2.7556   42.1316 LP  0  0  0  0  0  0  0  0  0  0  0  0  # atno 27204 bound_to 8028
  246.1369   -2.5780   43.3290 LP  0  0  0  0  0  0  0  0  0  0  0  0  # atno 27205 bound_to 8028
  247.4293   -2.0767   40.9512 LP  0  0  0  0  0  0  0  0  0  0  0  0  # atno 27206 bound_to 8104
  248.2365    0.7091   43.8166 LP  0  0  0  0  0  0  0  0  0  0  0  0  # atno 27207 bound_to 8107
  249.8738    0.1440   43.8072 LP  0  0  0  0  0  0  0  0  0  0  0  0  # atno 27208 bound_to 8107
  248.9036   -2.1353   44.9651 LP  0  0  0  0  0  0  0  0  0  0  0  0  # atno 27209 bound_to 8166
  248.5947   -3.0718   47.3258 LP  0  0  0  0  0  0  0  0  0  0  0  0  # atno 27210 bound_to 8169
  249.0353   -2.3410   48.8331 LP  0  0  0  0  0  0  0  0  0  0  0  0  # atno 27211 bound_to 8169
  249.5742    0.6483   47.3228 LP  0  0  0  0  0  0  0  0  0  0  0  0  # atno 27212 bound_to 8242
  248.8881   -0.6210   39.5998 LP  0  0  0  0  0  0  0  0  0  0  0  0  # atno 27213 bound_to 10098
  250.4920   -0.5252   40.2467 LP  0  0  0  0  0  0  0  0  0  0  0  0  # atno 27214 bound_to 10098
  249.0753    1.8121   46.8313 LP  0  0  0  0  0  0  0  0  0  0  0  0  # atno 27215 bound_to 10188
  250.5775    1.5812   46.0006 LP  0  0  0  0  0  0  0  0  0  0  0  0  # atno 27216 bound_to 10188
  248.8836    1.5531   50.0743 LP  0  0  0  0  0  0  0  0  0  0  0  0  # atno 27217 bound_to 8245
  250.5389    2.0182   49.8647 LP  0  0  0  0  0  0  0  0  0  0  0  0  # atno 27218 bound_to 8245
  250.9298   -1.1554   50.9424 LP  0  0  0  0  0  0  0  0  0  0  0  0  # atno 27219 bound_to 8313
  251.1348   -3.9275   40.2962 LP  0  0  0  0  0  0  0  0  0  0  0  0  # atno 27220 bound_to 9544
  251.9733   -5.3133   40.0881 LP  0  0  0  0  0  0  0  0  0  0  0  0  # atno 27221 bound_to 9544
  248.6991    2.3106   43.3840 LP  0  0  0  0  0  0  0  0  0  0  0  0  # atno 27222 bound_to 10185
  242.4382   -1.6542   38.3372 LP  0  0  0  0  0  0  0  0  0  0  0  0  # atno 27223 bound_to 7940
  245.5176   -0.0065   38.0072 LP  0  0  0  0  0  0  0  0  0  0  0  0  # atno 27224 bound_to 7943
  245.9195   -1.1307   36.7523 LP  0  0  0  0  0  0  0  0  0  0  0  0  # atno 27225 bound_to 7943
  242.0211    0.8329   39.4641 LP  0  0  0  0  0  0  0  0  0  0  0  0  # atno 27226 bound_to 7818
  240.4625    0.3317   40.0291 LP  0  0  0  0  0  0  0  0  0  0  0  0  # atno 27227 bound_to 7818
  239.6824   -0.8636   36.9816 LP  0  0  0  0  0  0  0  0  0  0  0  0  # atno 27228 bound_to 7887
  239.5586   -2.9951   36.3500 LP  0  0  0  0  0  0  0  0  0  0  0  0  # atno 27229 bound_to 7892
  238.8245   -4.3521   36.8850 LP  0  0  0  0  0  0  0  0  0  0  0  0  # atno 27230 bound_to 7892

> <Gold.Score>
     Fitness  S(hb_ext) S(vdw_ext)  S(hb_int)    S(int)      intcor
     39.38       6.13      24.36       0.00      -0.25      -0.76

> <Gold.Goldscore.Fitness>
39.3784

> <Gold.Goldscore.Internal.Vdw>
-0.3656

> <Gold.Goldscore.Internal.Torsion>
-0.6366

> <Gold.Goldscore.External.Vdw>
24.3610

> <Gold.Goldscore.Internal.HBond>
0.0000

> <Gold.Goldscore.External.HBond>
6.1284

> <Gold.Goldscore.Internal.Correction>
-0.7558

> <Gold.Goldscore.Hbonds>
donor molecule, donor type, donor heavy atom, donor atom, acceptor molecule, acceptor atom, score
      P1  H  8025  8066       L1    17  0.06
      L1  H    10    23       P1  8104  1.00

> <Gold.Goldscore.Internal.Vdw.Weighted>
-0.3656

> <Gold.Goldscore.Internal.Torsion.Weighted>
-0.6366

> <Gold.Goldscore.External.Vdw.Weighted>
33.4964

> <Gold.Goldscore.Internal.HBond.Weighted>
0.0000

> <Gold.Goldscore.External.HBond.Weighted>
6.1284

> <Gold.Goldscore.Internal.Correction.Weighted>
-0.7558

> <Gold.Rescore>
     Score     S(PLP)   S(hbond)     S(cho)   S(metal)  DE(clash)   DE(tors)     intcor
     30.65     -28.13       1.21       0.00       0.00       0.00       0.56       ----

> <Gold.PLP.Fitness>
30.6457

> <Gold.PLP.PLP>
-28.1277

> <Gold.PLP.part.hbond>
-2.3204

> <Gold.PLP.part.metal>
0.0000

> <Gold.PLP.part.buried>
-4.3966

> <Gold.PLP.part.nonpolar>
-22.6870

> <Gold.PLP.part.repulsive>
0.3007

> <Gold.PLP.ligand.clash>
0.0000

> <Gold.PLP.ligand.torsion>
0.5581

> <Gold.PLP.Chemscore.Hbond>
1.2114

> <Gold.PLP.Chemscore.CHOScore>
0.0000

> <Gold.PLP.Chemscore.Metal>
0.0000

> <Gold.Chemscore.Hbonds>
donor molecule, donor type, donor heavy atom, donor atom, acceptor molecule, acceptor atom, score
      L1  H    10    23       P1  8104  1.00
      P1  H  8025  8066       L1    17  0.82

> <Gold.PLP.Chemscore.Internal.Correction>
   9.000000E+99

