#       Name:                CT1002167954
#       Creating user name   hitesit
#       Creation time:       Sun Apr 16 20:34:43 2023


#       File generated by GOLD software.
#

@<TRIPOS>MOLECULE
CT1002167954|ligand_prepared|mol2|1|dock9
    29    30     1
SMALL
NO_CHARGES


@<TRIPOS>ATOM
      1 C1         246.1116  -7.0681  43.4332 C.3            1 RES1               0.0000
      2 C2         245.7252  -8.3141  44.2560 C.ar           1 RES1               0.0000
      3 C3         244.9661  -6.0737  43.5979 C.2            1 RES1               0.0000
      4 C4         247.4431  -6.5820  43.9950 C.2            1 RES1               0.0000
      5 C5         246.3040  -7.3504  41.9249 C.3            1 RES1               0.0000
      6 C6         245.1629  -9.4261  43.6363 C.ar           1 RES1               0.0000
      7 C7         245.9271  -8.3673  45.6326 C.ar           1 RES1               0.0000
      8 N8         245.1799  -4.9905  44.3983 N.am           1 RES1               0.0000
      9 O9         243.8786  -6.2578  43.0652 O.2            1 RES1               0.0000
     10 N10        247.4694  -5.3629  44.6201 N.am           1 RES1               0.0000
     11 O11        248.4660  -7.2511  43.9166 O.2            1 RES1               0.0000
     12 C12        246.9423  -6.2001  41.1624 C.3            1 RES1               0.0000
     13 C13        244.8176 -10.5516  44.3658 C.ar           1 RES1               0.0000
     14 C14        245.5808  -9.4938  46.3603 C.ar           1 RES1               0.0000
     15 C15        246.3918  -4.5588  44.8743 C.2            1 RES1               0.0000
     16 C16        245.0267 -10.5865  45.7281 C.ar           1 RES1               0.0000
     17 O17        246.4870  -3.5014  45.4906 O.2            1 RES1               0.0000
     18 H18        246.9325  -8.2421  41.8099 H              1 RES1               0.0000
     19 H19        245.3260  -7.5698  41.4792 H              1 RES1               0.0000
     20 H20        244.9886  -9.4161  42.5655 H              1 RES1               0.0000
     21 H21        246.3606  -7.5190  46.1513 H              1 RES1               0.0000
     22 H22        244.3631  -4.4515  44.6680 H              1 RES1               0.0000
     23 H23        248.3764  -5.0232  44.9240 H              1 RES1               0.0000
     24 H24        247.0544  -6.4503  40.1095 H              1 RES1               0.0000
     25 H25        246.3307  -5.3031  41.2343 H              1 RES1               0.0000
     26 H26        247.9277  -5.9714  41.5631 H              1 RES1               0.0000
     27 H27        244.3805 -11.4084  43.8637 H              1 RES1               0.0000
     28 H28        245.7466  -9.5166  47.4323 H              1 RES1               0.0000
     29 H29        244.7564 -11.4685  46.2993 H              1 RES1               0.0000
@<TRIPOS>BOND
    1    1    2 1     
    2    1    3 1     
    3    1    4 1     
    4    1    5 1     
    5    2    6 ar    
    6    2    7 ar    
    7    3    8 1     
    8    3    9 2     
    9    4   10 1     
   10    4   11 2     
   11    5   12 1     
   12    5   18 1     
   13    5   19 1     
   14    6   13 ar    
   15    6   20 1     
   16    7   14 ar    
   17    7   21 1     
   18    8   15 1     
   19    8   22 1     
   20   10   15 1     
   21   10   23 1     
   22   12   24 1     
   23   12   25 1     
   24   12   26 1     
   25   13   16 ar    
   26   13   27 1     
   27   14   16 ar    
   28   14   28 1     
   29   15   17 2     
   30   16   29 1     
@<TRIPOS>SUBSTRUCTURE
      1 RES1           1
@<TRIPOS>SET
DONOR_HYDROGENS      STATIC     ATOMS    <user>   **** ""
2 22 23
ATOM$RED        STATIC     ATOMS    COLORGROUP SYSTEM
2 22 23
@<TRIPOS>COMMENT
> <Gold.Version>
2022.3.0

> <Gold.Id.Protein>
unknown|4d1n_clean|pdb

> <Gold.Protein.RotatedTorsions>
[ 6614 6573 6574 6575 ] final  166.36 input  116.02 | X-H torsion
[ 6700 6661 6662 6663 ] final -145.08 input  125.25 | X-H torsion
[ 8066 8025 8026 8027 ] final  -24.49 input   31.90 | X-H torsion
[ 8137 8104 8105 8106 ] final   19.30 input   91.64 | X-H torsion
[ 8200 8166 8167 8168 ] final  -81.38 input   70.29 | X-H torsion
[ 8280 8242 8243 8244 ] final  -93.37 input   89.64 | X-H torsion
[ 8333 8313 8314 8315 ] final  -56.18 input   85.58 | X-H torsion
[ 9580 9544 9543 9541 ] final   48.80 input   60.01 | X-H torsion
[ 10226 10185 10186 10187 ] final   72.95 input   40.00 | X-H torsion
[ 7988 7940 7941 7942 ] final -134.56 input   82.26 | X-H torsion
[ 7908 7887 7888 7889 ] final  -22.33 input   90.27 | X-H torsion
[ 7912 7892 7891 7888 ] final  -77.47 input   59.97 | X-H torsion
[ 6852 6804 6805 6806 ] final   60.74 input  117.17 | X-H torsion
[ 27193 6336 6335 6334 ] final  -58.07 input   -0.00 | X-H torsion
[ 27195 6500 6499 6498 ] final   70.28 input    0.00 | X-H torsion
[ 27198 6576 6575 6574 ] final  148.25 input   -0.00 | X-H torsion
[ 27201 7890 7889 7888 ] final  159.38 input    0.00 | X-H torsion
[ 27204 8028 8027 8026 ] final   11.28 input   -0.00 | X-H torsion
[ 27207 8107 8106 8105 ] final -127.60 input    0.00 | X-H torsion
[ 27210 8169 8168 8167 ] final   61.52 input    0.00 | X-H torsion
[ 27213 10098 10097 10096 ] final   65.62 input    0.00 | X-H torsion
[ 27215 10188 10187 10186 ] final   81.12 input   -0.00 | X-H torsion
[ 27217 8245 8244 8243 ] final  149.65 input   -0.00 | X-H torsion
[ 27224 7943 7942 7941 ] final -172.09 input    0.00 | X-H torsion
[ 27226 7818 7817 7816 ] final -107.31 input    0.00 | X-H torsion

> <Gold.Protein.ActiveResidues>
 ASP403  THR404  LEU406  ILE407  TYR408  ALA410  LYS411  TRP414  TRP426  SER427 
 LYS428  LEU429  GLN430  VAL431  PHE432  ASP433  TYR453  SER462  ALA463  ILE464 
 ILE466 

> <Gold.Protein.RotatedAtoms>
  242.3249   -1.7983   50.3043 H   0  0  0  0  0  0  0  0  0  0  0  0  # atno 6614 bound_to 6573
  239.9760   -2.4867   47.4998 H   0  0  0  0  0  0  0  0  0  0  0  0  # atno 6700 bound_to 6661
  240.0420    1.7445   45.2510 H   0  0  0  0  0  0  0  0  0  0  0  0  # atno 6852 bound_to 6804
  241.2621   -0.4581   37.3951 H   0  0  0  0  0  0  0  0  0  0  0  0  # atno 7908 bound_to 7887
  239.2832   -3.0718   36.3391 H   0  0  0  0  0  0  0  0  0  0  0  0  # atno 7912 bound_to 7892
  241.9370   -2.9908   37.9610 H   0  0  0  0  0  0  0  0  0  0  0  0  # atno 7988 bound_to 7940
  245.4146   -2.9553   39.6414 H   0  0  0  0  0  0  0  0  0  0  0  0  # atno 8066 bound_to 8025
  247.6099   -0.5290   41.7396 H   0  0  0  0  0  0  0  0  0  0  0  0  # atno 8137 bound_to 8104
  248.7443   -1.4528   44.4322 H   0  0  0  0  0  0  0  0  0  0  0  0  # atno 8200 bound_to 8166
  249.1361   -0.9898   47.3575 H   0  0  0  0  0  0  0  0  0  0  0  0  # atno 8280 bound_to 8242
  250.6444   -0.0811   50.4443 H   0  0  0  0  0  0  0  0  0  0  0  0  # atno 8333 bound_to 8313
  251.6575   -5.0819   40.4769 H   0  0  0  0  0  0  0  0  0  0  0  0  # atno 9580 bound_to 9544
  248.9320    1.9292   43.8737 H   0  0  0  0  0  0  0  0  0  0  0  0  # atno 10226 bound_to 10185
  242.2703   -2.5615   51.7423 LP  0  0  0  0  0  0  0  0  0  0  0  0  # atno 27193 bound_to 6336
  242.4582   -3.9745   50.7584 LP  0  0  0  0  0  0  0  0  0  0  0  0  # atno 27194 bound_to 6336
  242.4935    1.4389   49.3343 LP  0  0  0  0  0  0  0  0  0  0  0  0  # atno 27195 bound_to 6500
  240.9892    1.0074   48.5922 LP  0  0  0  0  0  0  0  0  0  0  0  0  # atno 27196 bound_to 6500
  240.9822   -0.7640   49.8761 LP  0  0  0  0  0  0  0  0  0  0  0  0  # atno 27197 bound_to 6573
  240.2162   -0.5687   45.6326 LP  0  0  0  0  0  0  0  0  0  0  0  0  # atno 27198 bound_to 6576
  241.5912    0.1719   46.3815 LP  0  0  0  0  0  0  0  0  0  0  0  0  # atno 27199 bound_to 6576
  239.9584   -1.1088   48.5794 LP  0  0  0  0  0  0  0  0  0  0  0  0  # atno 27200 bound_to 6661
  242.8168   -4.2458   39.3439 LP  0  0  0  0  0  0  0  0  0  0  0  0  # atno 27201 bound_to 7890
  241.5637   -3.5957   40.3475 LP  0  0  0  0  0  0  0  0  0  0  0  0  # atno 27202 bound_to 7890
  244.3215   -1.7316   39.0326 LP  0  0  0  0  0  0  0  0  0  0  0  0  # atno 27203 bound_to 8025
  244.8400   -2.6320   42.1919 LP  0  0  0  0  0  0  0  0  0  0  0  0  # atno 27204 bound_to 8028
  246.1949   -2.7017   43.2687 LP  0  0  0  0  0  0  0  0  0  0  0  0  # atno 27205 bound_to 8028
  247.3941   -2.0832   40.9719 LP  0  0  0  0  0  0  0  0  0  0  0  0  # atno 27206 bound_to 8104
  249.5822    0.3142   44.4899 LP  0  0  0  0  0  0  0  0  0  0  0  0  # atno 27207 bound_to 8107
  248.5281    0.5389   43.1340 LP  0  0  0  0  0  0  0  0  0  0  0  0  # atno 27208 bound_to 8107
  247.4535   -2.4883   44.9944 LP  0  0  0  0  0  0  0  0  0  0  0  0  # atno 27209 bound_to 8166
  248.9292   -3.0925   47.3127 LP  0  0  0  0  0  0  0  0  0  0  0  0  # atno 27210 bound_to 8169
  248.7008   -2.3203   48.8462 LP  0  0  0  0  0  0  0  0  0  0  0  0  # atno 27211 bound_to 8169
  249.8715    0.5640   47.0531 LP  0  0  0  0  0  0  0  0  0  0  0  0  # atno 27212 bound_to 8242
  250.4143   -0.7450   39.4806 LP  0  0  0  0  0  0  0  0  0  0  0  0  # atno 27213 bound_to 10098
  248.9658   -0.4013   40.3659 LP  0  0  0  0  0  0  0  0  0  0  0  0  # atno 27214 bound_to 10098
  250.5094    1.5605   45.9012 LP  0  0  0  0  0  0  0  0  0  0  0  0  # atno 27215 bound_to 10188
  249.1434    1.8328   46.9307 LP  0  0  0  0  0  0  0  0  0  0  0  0  # atno 27216 bound_to 10188
  249.0938    1.5991   50.5474 LP  0  0  0  0  0  0  0  0  0  0  0  0  # atno 27217 bound_to 8245
  250.3287    1.9721   49.3916 LP  0  0  0  0  0  0  0  0  0  0  0  0  # atno 27218 bound_to 8245
  249.8421   -1.6281   50.5873 LP  0  0  0  0  0  0  0  0  0  0  0  0  # atno 27219 bound_to 8313
  252.1891   -4.6794   38.9921 LP  0  0  0  0  0  0  0  0  0  0  0  0  # atno 27220 bound_to 9544
  251.2278   -3.6543   39.8237 LP  0  0  0  0  0  0  0  0  0  0  0  0  # atno 27221 bound_to 9544
  250.1612    2.8777   43.0723 LP  0  0  0  0  0  0  0  0  0  0  0  0  # atno 27222 bound_to 10185
  242.4928   -1.4132   37.4457 LP  0  0  0  0  0  0  0  0  0  0  0  0  # atno 27223 bound_to 7940
  246.1914   -0.3527   38.0724 LP  0  0  0  0  0  0  0  0  0  0  0  0  # atno 27224 bound_to 7943
  245.2457   -0.7846   36.6870 LP  0  0  0  0  0  0  0  0  0  0  0  0  # atno 27225 bound_to 7943
  242.0168    0.2398   39.5677 LP  0  0  0  0  0  0  0  0  0  0  0  0  # atno 27226 bound_to 7818
  240.4668    0.9248   39.9255 LP  0  0  0  0  0  0  0  0  0  0  0  0  # atno 27227 bound_to 7818
  239.5253   -0.5948   37.3153 LP  0  0  0  0  0  0  0  0  0  0  0  0  # atno 27228 bound_to 7887
  239.0127   -4.5306   37.0081 LP  0  0  0  0  0  0  0  0  0  0  0  0  # atno 27229 bound_to 7892
  240.5226   -3.9093   36.9804 LP  0  0  0  0  0  0  0  0  0  0  0  0  # atno 27230 bound_to 7892

> <Gold.Score>
     Fitness  S(hb_ext) S(vdw_ext)  S(hb_int)    S(int)      intcor
     27.68      12.30      11.57       0.00      -0.54      -0.76

> <Gold.Goldscore.Fitness>
27.6751

> <Gold.Goldscore.Internal.Vdw>
-0.7363

> <Gold.Goldscore.Internal.Torsion>
-0.5609

> <Gold.Goldscore.External.Vdw>
11.5734

> <Gold.Goldscore.Internal.HBond>
0.0000

> <Gold.Goldscore.External.HBond>
12.3030

> <Gold.Goldscore.Internal.Correction>
-0.7558

> <Gold.Goldscore.Hbonds>
donor molecule, donor type, donor heavy atom, donor atom, acceptor molecule, acceptor atom, score
      P1  H  6812  6863       L1     9  1.00
      P1  H  8111  8143       L1    11  0.15
      L1  H    10    23       P1  8112  1.00

> <Gold.Goldscore.Internal.Vdw.Weighted>
-0.7363

> <Gold.Goldscore.Internal.Torsion.Weighted>
-0.5609

> <Gold.Goldscore.External.Vdw.Weighted>
15.9134

> <Gold.Goldscore.Internal.HBond.Weighted>
0.0000

> <Gold.Goldscore.External.HBond.Weighted>
12.3030

> <Gold.Goldscore.Internal.Correction.Weighted>
-0.7558

> <Gold.Rescore>
     Score     S(PLP)   S(hbond)     S(cho)   S(metal)  DE(clash)   DE(tors)     intcor
     21.16     -14.38       2.94       0.00       0.00       0.00       1.03       ----

> <Gold.PLP.Fitness>
21.1588

> <Gold.PLP.PLP>
-14.3812

> <Gold.PLP.part.hbond>
-4.0000

> <Gold.PLP.part.metal>
0.0000

> <Gold.PLP.part.buried>
-1.9353

> <Gold.PLP.part.nonpolar>
-9.3563

> <Gold.PLP.part.repulsive>
0.4661

> <Gold.PLP.ligand.clash>
0.0000

> <Gold.PLP.ligand.torsion>
1.0272

> <Gold.PLP.Chemscore.Hbond>
2.9440

> <Gold.PLP.Chemscore.CHOScore>
0.0000

> <Gold.PLP.Chemscore.Metal>
0.0000

> <Gold.Chemscore.Hbonds>
donor molecule, donor type, donor heavy atom, donor atom, acceptor molecule, acceptor atom, score
      L1  H    10    23       P1  8112  0.45
      P1  H  6812  6863       L1     9  1.00
      P1  H  8111  8143       L1    11  0.90

> <Gold.PLP.Chemscore.Internal.Correction>
   9.000000E+99

