#       Name:                CT1002167954
#       Creating user name   hitesit
#       Creation time:       Sun Apr 16 20:34:41 2023


#       File generated by GOLD software.
#

@<TRIPOS>MOLECULE
CT1002167954|ligand_prepared|mol2|1|dock4
    29    30     1
SMALL
NO_CHARGES


@<TRIPOS>ATOM
      1 C1         246.1455  -6.7944  43.4967 C.3            1 RES1               0.0000
      2 C2         246.4958  -6.2622  44.9013 C.ar           1 RES1               0.0000
      3 C3         245.0389  -5.8912  42.9600 C.2            1 RES1               0.0000
      4 C4         247.4366  -6.7446  42.6873 C.2            1 RES1               0.0000
      5 C5         245.6342  -8.2539  43.4912 C.3            1 RES1               0.0000
      6 C6         246.2908  -7.0509  46.0294 C.ar           1 RES1               0.0000
      7 C7         247.0263  -4.9880  45.0842 C.ar           1 RES1               0.0000
      8 N8         245.3709  -4.9953  41.9869 N.am           1 RES1               0.0000
      9 O9         243.9013  -5.9371  43.4117 O.2            1 RES1               0.0000
     10 N10        247.4947  -5.8826  41.6237 N.am           1 RES1               0.0000
     11 O11        248.4100  -7.4318  42.9711 O.2            1 RES1               0.0000
     12 C12        245.2859  -8.7763  42.1063 C.3            1 RES1               0.0000
     13 C13        246.6074  -6.5839  47.2943 C.ar           1 RES1               0.0000
     14 C14        247.3420  -4.5228  46.3501 C.ar           1 RES1               0.0000
     15 C15        246.5313  -4.9834  41.2554 C.2            1 RES1               0.0000
     16 C16        247.1335  -5.3198  47.4555 C.ar           1 RES1               0.0000
     17 O17        246.6789  -4.2027  40.3196 O.2            1 RES1               0.0000
     18 H18        246.4054  -8.8999  43.9286 H              1 RES1               0.0000
     19 H19        244.7427  -8.3182  44.1272 H              1 RES1               0.0000
     20 H20        245.8753  -8.0474  45.9224 H              1 RES1               0.0000
     21 H21        247.1978  -4.3430  44.2291 H              1 RES1               0.0000
     22 H22        244.6938  -4.2668  41.7843 H              1 RES1               0.0000
     23 H23        248.3339  -5.9142  41.0535 H              1 RES1               0.0000
     24 H24        244.9327  -9.8040  42.1593 H              1 RES1               0.0000
     25 H25        244.5036  -8.1722  41.6516 H              1 RES1               0.0000
     26 H26        246.1565  -8.7504  41.4541 H              1 RES1               0.0000
     27 H27        246.4401  -7.2146  48.1612 H              1 RES1               0.0000
     28 H28        247.7553  -3.5270  46.4723 H              1 RES1               0.0000
     29 H29        247.3818  -4.9543  48.4464 H              1 RES1               0.0000
@<TRIPOS>BOND
    1    1    2 1     
    2    1    3 1     
    3    1    4 1     
    4    1    5 1     
    5    2    6 ar    
    6    2    7 ar    
    7    3    8 1     
    8    3    9 2     
    9    4   10 1     
   10    4   11 2     
   11    5   12 1     
   12    5   18 1     
   13    5   19 1     
   14    6   13 ar    
   15    6   20 1     
   16    7   14 ar    
   17    7   21 1     
   18    8   15 1     
   19    8   22 1     
   20   10   15 1     
   21   10   23 1     
   22   12   24 1     
   23   12   25 1     
   24   12   26 1     
   25   13   16 ar    
   26   13   27 1     
   27   14   16 ar    
   28   14   28 1     
   29   15   17 2     
   30   16   29 1     
@<TRIPOS>SUBSTRUCTURE
      1 RES1           1
@<TRIPOS>SET
DONOR_HYDROGENS      STATIC     ATOMS    <user>   **** ""
2 22 23
ATOM$RED        STATIC     ATOMS    COLORGROUP SYSTEM
2 22 23
@<TRIPOS>COMMENT
> <Gold.Version>
2022.3.0

> <Gold.Id.Protein>
unknown|4d1n_clean|pdb

> <Gold.Protein.RotatedTorsions>
[ 6614 6573 6574 6575 ] final -124.28 input  116.02 | X-H torsion
[ 6700 6661 6662 6663 ] final   60.81 input  125.25 | X-H torsion
[ 8066 8025 8026 8027 ] final  -26.75 input   31.90 | X-H torsion
[ 8137 8104 8105 8106 ] final -140.13 input   91.64 | X-H torsion
[ 8200 8166 8167 8168 ] final  -40.55 input   70.29 | X-H torsion
[ 8280 8242 8243 8244 ] final  -59.77 input   89.64 | X-H torsion
[ 8333 8313 8314 8315 ] final -112.53 input   85.58 | X-H torsion
[ 9580 9544 9543 9541 ] final -125.70 input   60.01 | X-H torsion
[ 10226 10185 10186 10187 ] final   37.35 input   40.00 | X-H torsion
[ 7988 7940 7941 7942 ] final  -64.38 input   82.26 | X-H torsion
[ 7908 7887 7888 7889 ] final  130.89 input   90.27 | X-H torsion
[ 7912 7892 7891 7888 ] final  -85.27 input   59.97 | X-H torsion
[ 6852 6804 6805 6806 ] final   20.11 input  117.17 | X-H torsion
[ 27193 6336 6335 6334 ] final  126.07 input   -0.00 | X-H torsion
[ 27195 6500 6499 6498 ] final   53.02 input    0.00 | X-H torsion
[ 27198 6576 6575 6574 ] final  103.35 input   -0.00 | X-H torsion
[ 27201 7890 7889 7888 ] final  152.40 input    0.00 | X-H torsion
[ 27204 8028 8027 8026 ] final   77.11 input   -0.00 | X-H torsion
[ 27207 8107 8106 8105 ] final  134.42 input    0.00 | X-H torsion
[ 27210 8169 8168 8167 ] final -143.50 input    0.00 | X-H torsion
[ 27213 10098 10097 10096 ] final  -15.88 input    0.00 | X-H torsion
[ 27215 10188 10187 10186 ] final    5.47 input   -0.00 | X-H torsion
[ 27217 8245 8244 8243 ] final   54.22 input   -0.00 | X-H torsion
[ 27224 7943 7942 7941 ] final   35.94 input    0.00 | X-H torsion
[ 27226 7818 7817 7816 ] final -169.19 input    0.00 | X-H torsion

> <Gold.Protein.ActiveResidues>
 ASP403  THR404  LEU406  ILE407  TYR408  ALA410  LYS411  TRP414  TRP426  SER427 
 LYS428  LEU429  GLN430  VAL431  PHE432  ASP433  TYR453  SER462  ALA463  ILE464 
 ILE466 

> <Gold.Protein.RotatedAtoms>
  242.4021   -0.8159   50.0958 H   0  0  0  0  0  0  0  0  0  0  0  0  # atno 6614 bound_to 6573
  239.7446   -1.3580   48.7972 H   0  0  0  0  0  0  0  0  0  0  0  0  # atno 6700 bound_to 6661
  240.0101    2.3480   45.1355 H   0  0  0  0  0  0  0  0  0  0  0  0  # atno 6852 bound_to 6804
  239.6428   -0.8271   37.0062 H   0  0  0  0  0  0  0  0  0  0  0  0  # atno 7908 bound_to 7887
  239.1686   -3.1273   36.3453 H   0  0  0  0  0  0  0  0  0  0  0  0  # atno 7912 bound_to 7892
  242.2459   -2.2433   38.5865 H   0  0  0  0  0  0  0  0  0  0  0  0  # atno 7988 bound_to 7940
  245.4364   -2.9482   39.6148 H   0  0  0  0  0  0  0  0  0  0  0  0  # atno 8066 bound_to 8025
  247.1360   -2.0912   41.1479 H   0  0  0  0  0  0  0  0  0  0  0  0  # atno 8137 bound_to 8104
  248.9676   -1.8949   44.7993 H   0  0  0  0  0  0  0  0  0  0  0  0  # atno 8200 bound_to 8166
  248.8843   -0.6500   47.6403 H   0  0  0  0  0  0  0  0  0  0  0  0  # atno 8280 bound_to 8242
  249.8826   -0.1633   50.1090 H   0  0  0  0  0  0  0  0  0  0  0  0  # atno 8333 bound_to 8313
  251.7800   -3.9226   39.0134 H   0  0  0  0  0  0  0  0  0  0  0  0  # atno 9580 bound_to 9544
  249.4057    1.8173   44.1078 H   0  0  0  0  0  0  0  0  0  0  0  0  # atno 10226 bound_to 10185
  242.3969   -3.9716   50.7464 LP  0  0  0  0  0  0  0  0  0  0  0  0  # atno 27193 bound_to 6336
  242.3315   -2.5644   51.7542 LP  0  0  0  0  0  0  0  0  0  0  0  0  # atno 27194 bound_to 6336
  242.3339    1.5752   49.4876 LP  0  0  0  0  0  0  0  0  0  0  0  0  # atno 27195 bound_to 6500
  241.1488    0.8711   48.4389 LP  0  0  0  0  0  0  0  0  0  0  0  0  # atno 27196 bound_to 6500
  240.9070   -1.7217   50.0794 LP  0  0  0  0  0  0  0  0  0  0  0  0  # atno 27197 bound_to 6573
  240.7827   -0.8734   45.4782 LP  0  0  0  0  0  0  0  0  0  0  0  0  # atno 27198 bound_to 6576
  241.0248    0.4766   46.5359 LP  0  0  0  0  0  0  0  0  0  0  0  0  # atno 27199 bound_to 6576
  240.1820   -2.1995   47.3257 LP  0  0  0  0  0  0  0  0  0  0  0  0  # atno 27200 bound_to 6661
  242.7431   -4.3102   39.3047 LP  0  0  0  0  0  0  0  0  0  0  0  0  # atno 27201 bound_to 7890
  241.6374   -3.5314   40.3867 LP  0  0  0  0  0  0  0  0  0  0  0  0  # atno 27202 bound_to 7890
  244.3004   -1.7385   39.0585 LP  0  0  0  0  0  0  0  0  0  0  0  0  # atno 27203 bound_to 8025
  245.4948   -3.3066   42.1470 LP  0  0  0  0  0  0  0  0  0  0  0  0  # atno 27204 bound_to 8028
  245.5402   -2.0271   43.3136 LP  0  0  0  0  0  0  0  0  0  0  0  0  # atno 27205 bound_to 8028
  247.8583   -0.5528   41.5515 LP  0  0  0  0  0  0  0  0  0  0  0  0  # atno 27206 bound_to 8104
  248.3609    0.7100   44.2451 LP  0  0  0  0  0  0  0  0  0  0  0  0  # atno 27207 bound_to 8107
  249.7494    0.1430   43.3787 LP  0  0  0  0  0  0  0  0  0  0  0  0  # atno 27208 bound_to 8107
  247.2351   -2.0561   44.6354 LP  0  0  0  0  0  0  0  0  0  0  0  0  # atno 27209 bound_to 8166
  249.0743   -2.3473   48.8237 LP  0  0  0  0  0  0  0  0  0  0  0  0  # atno 27210 bound_to 8169
  248.5557   -3.0654   47.3352 LP  0  0  0  0  0  0  0  0  0  0  0  0  # atno 27211 bound_to 8169
  250.1191    0.2299   46.7751 LP  0  0  0  0  0  0  0  0  0  0  0  0  # atno 27212 bound_to 8242
  249.3299   -0.7749   39.1619 LP  0  0  0  0  0  0  0  0  0  0  0  0  # atno 27213 bound_to 10098
  250.0502   -0.3713   40.6845 LP  0  0  0  0  0  0  0  0  0  0  0  0  # atno 27214 bound_to 10098
  249.4803    1.5296   45.6399 LP  0  0  0  0  0  0  0  0  0  0  0  0  # atno 27215 bound_to 10188
  250.1726    1.8637   47.1920 LP  0  0  0  0  0  0  0  0  0  0  0  0  # atno 27216 bound_to 10188
  249.2109    1.6648   49.2731 LP  0  0  0  0  0  0  0  0  0  0  0  0  # atno 27217 bound_to 8245
  250.2116    1.9065   50.6660 LP  0  0  0  0  0  0  0  0  0  0  0  0  # atno 27218 bound_to 8245
  250.5840   -1.5481   50.9138 LP  0  0  0  0  0  0  0  0  0  0  0  0  # atno 27219 bound_to 8313
  251.1713   -4.1893   40.4992 LP  0  0  0  0  0  0  0  0  0  0  0  0  # atno 27220 bound_to 9544
  252.1223   -5.3115   39.7900 LP  0  0  0  0  0  0  0  0  0  0  0  0  # atno 27221 bound_to 9544
  249.6979    2.9872   42.8433 LP  0  0  0  0  0  0  0  0  0  0  0  0  # atno 27222 bound_to 10185
  242.1938   -2.1369   36.8402 LP  0  0  0  0  0  0  0  0  0  0  0  0  # atno 27223 bound_to 7940
  245.0084   -0.5035   36.8884 LP  0  0  0  0  0  0  0  0  0  0  0  0  # atno 27224 bound_to 7943
  246.4287   -0.6338   37.8710 LP  0  0  0  0  0  0  0  0  0  0  0  0  # atno 27225 bound_to 7943
  241.3478   -0.2696   39.8609 LP  0  0  0  0  0  0  0  0  0  0  0  0  # atno 27226 bound_to 7818
  241.1358    1.4342   39.6323 LP  0  0  0  0  0  0  0  0  0  0  0  0  # atno 27227 bound_to 7818
  241.1271   -0.2298   37.7000 LP  0  0  0  0  0  0  0  0  0  0  0  0  # atno 27228 bound_to 7887
  239.1156   -4.5901   37.0566 LP  0  0  0  0  0  0  0  0  0  0  0  0  # atno 27229 bound_to 7892
  240.5352   -3.7938   36.9257 LP  0  0  0  0  0  0  0  0  0  0  0  0  # atno 27230 bound_to 7892

> <Gold.Score>
     Fitness  S(hb_ext) S(vdw_ext)  S(hb_int)    S(int)      intcor
     28.81       6.82      16.63       0.00      -0.87      -0.76

> <Gold.Goldscore.Fitness>
28.8140

> <Gold.Goldscore.Internal.Vdw>
-1.2618

> <Gold.Goldscore.Internal.Torsion>
-0.3671

> <Gold.Goldscore.External.Vdw>
16.6312

> <Gold.Goldscore.Internal.HBond>
0.0000

> <Gold.Goldscore.External.HBond>
6.8192

> <Gold.Goldscore.Internal.Correction>
-0.7558

> <Gold.Goldscore.Hbonds>
donor molecule, donor type, donor heavy atom, donor atom, acceptor molecule, acceptor atom, score
      P1  H  6812  6863       L1     9  1.00
      P1  H  8025  8066       L1    17  0.29
      P1  H  8104  8137       L1    17  0.01
      P1  H  8111  8143       L1    11  0.11

> <Gold.Goldscore.Internal.Vdw.Weighted>
-1.2618

> <Gold.Goldscore.Internal.Torsion.Weighted>
-0.3671

> <Gold.Goldscore.External.Vdw.Weighted>
22.8679

> <Gold.Goldscore.Internal.HBond.Weighted>
0.0000

> <Gold.Goldscore.External.HBond.Weighted>
6.8192

> <Gold.Goldscore.Internal.Correction.Weighted>
-0.7558

> <Gold.Rescore>
     Score     S(PLP)   S(hbond)     S(cho)   S(metal)  DE(clash)   DE(tors)     intcor
     30.48     -22.59       2.66       0.00       0.00       0.00       0.04       ----

> <Gold.PLP.Fitness>
30.4831

> <Gold.PLP.PLP>
-22.5915

> <Gold.PLP.part.hbond>
-3.2940

> <Gold.PLP.part.metal>
0.0000

> <Gold.PLP.part.buried>
-2.3603

> <Gold.PLP.part.nonpolar>
-18.4838

> <Gold.PLP.part.repulsive>
0.3938

> <Gold.PLP.ligand.clash>
0.0000

> <Gold.PLP.ligand.torsion>
0.0382

> <Gold.PLP.Chemscore.Hbond>
2.6560

> <Gold.PLP.Chemscore.CHOScore>
0.0000

> <Gold.PLP.Chemscore.Metal>
0.0000

> <Gold.Chemscore.Hbonds>
donor molecule, donor type, donor heavy atom, donor atom, acceptor molecule, acceptor atom, score
      L1  H     8    22       P1  8028  0.03
      P1  H  6812  6863       L1     9  1.00
      P1  H  8025  8066       L1    17  0.94
      P1  H  8104  8137       L1    17  0.43
      P1  H  8111  8143       L1    11  0.78

> <Gold.PLP.Chemscore.Internal.Correction>
   9.000000E+99

