#       Name:                CT1002167954
#       Creating user name   hitesit
#       Creation time:       Sun Apr 16 20:34:40 2023


#       File generated by GOLD software.
#

@<TRIPOS>MOLECULE
CT1002167954|ligand_prepared|mol2|1|dock2
    29    30     1
SMALL
NO_CHARGES


@<TRIPOS>ATOM
      1 C1         246.3046  -6.8633  42.9908 C.3            1 RES1               0.0000
      2 C2         246.6893  -6.6055  41.5196 C.ar           1 RES1               0.0000
      3 C3         247.5681  -6.6241  43.8122 C.2            1 RES1               0.0000
      4 C4         245.1647  -5.9019  43.3085 C.2            1 RES1               0.0000
      5 C5         245.8064  -8.3017  43.2635 C.3            1 RES1               0.0000
      6 C6         246.9759  -5.3175  41.0774 C.ar           1 RES1               0.0000
      7 C7         246.7641  -7.6441  40.5952 C.ar           1 RES1               0.0000
      8 N8         247.6320  -5.4822  44.5550 N.am           1 RES1               0.0000
      9 O9         248.5102  -7.4061  43.7778 O.2            1 RES1               0.0000
     10 N10        245.3951  -4.9155  44.2313 N.am           1 RES1               0.0000
     11 O11        244.0744  -5.9793  42.7557 O.2            1 RES1               0.0000
     12 C12        245.3017  -8.5172  44.6816 C.3            1 RES1               0.0000
     13 C13        247.3276  -5.0768  39.7595 C.ar           1 RES1               0.0000
     14 C14        247.1157  -7.4011  39.2777 C.ar           1 RES1               0.0000
     15 C15        246.5867  -4.6431  44.8463 C.2            1 RES1               0.0000
     16 C16        247.3981  -6.1183  38.8590 C.ar           1 RES1               0.0000
     17 O17        246.7296  -3.7041  45.6241 O.2            1 RES1               0.0000
     18 H18        244.9963  -8.5339  42.5612 H              1 RES1               0.0000
     19 H19        246.6282  -9.0025  43.0710 H              1 RES1               0.0000
     20 H20        246.9232  -4.4850  41.7710 H              1 RES1               0.0000
     21 H21        246.5451  -8.6612  40.9020 H              1 RES1               0.0000
     22 H22        248.5412  -5.2285  44.9282 H              1 RES1               0.0000
     23 H23        244.6050  -4.3301  44.4833 H              1 RES1               0.0000
     24 H24        244.9643  -9.5424  44.8193 H              1 RES1               0.0000
     25 H25        246.0894  -8.3195  45.4056 H              1 RES1               0.0000
     26 H26        244.4672  -7.8537  44.8989 H              1 RES1               0.0000
     27 H27        247.5476  -4.0652  39.4347 H              1 RES1               0.0000
     28 H28        247.1694  -8.2237  38.5723 H              1 RES1               0.0000
     29 H29        247.6740  -5.9294  37.8268 H              1 RES1               0.0000
@<TRIPOS>BOND
    1    1    2 1     
    2    1    3 1     
    3    1    4 1     
    4    1    5 1     
    5    2    6 ar    
    6    2    7 ar    
    7    3    8 1     
    8    3    9 2     
    9    4   10 1     
   10    4   11 2     
   11    5   12 1     
   12    5   18 1     
   13    5   19 1     
   14    6   13 ar    
   15    6   20 1     
   16    7   14 ar    
   17    7   21 1     
   18    8   15 1     
   19    8   22 1     
   20   10   15 1     
   21   10   23 1     
   22   12   24 1     
   23   12   25 1     
   24   12   26 1     
   25   13   16 ar    
   26   13   27 1     
   27   14   16 ar    
   28   14   28 1     
   29   15   17 2     
   30   16   29 1     
@<TRIPOS>SUBSTRUCTURE
      1 RES1           1
@<TRIPOS>SET
DONOR_HYDROGENS      STATIC     ATOMS    <user>   **** ""
2 22 23
ATOM$RED        STATIC     ATOMS    COLORGROUP SYSTEM
2 22 23
@<TRIPOS>COMMENT
> <Gold.Version>
2022.3.0

> <Gold.Id.Protein>
unknown|4d1n_clean|pdb

> <Gold.Protein.RotatedTorsions>
[ 6614 6573 6574 6575 ] final  -88.70 input  116.02 | X-H torsion
[ 6700 6661 6662 6663 ] final   57.39 input  125.25 | X-H torsion
[ 8066 8025 8026 8027 ] final   -3.33 input   31.90 | X-H torsion
[ 8137 8104 8105 8106 ] final  160.48 input   91.64 | X-H torsion
[ 8200 8166 8167 8168 ] final -166.54 input   70.29 | X-H torsion
[ 8280 8242 8243 8244 ] final -174.09 input   89.64 | X-H torsion
[ 8333 8313 8314 8315 ] final -178.72 input   85.58 | X-H torsion
[ 9580 9544 9543 9541 ] final  -80.55 input   60.01 | X-H torsion
[ 10226 10185 10186 10187 ] final   30.07 input   40.00 | X-H torsion
[ 7988 7940 7941 7942 ] final -106.60 input   82.26 | X-H torsion
[ 7908 7887 7888 7889 ] final  -77.37 input   90.27 | X-H torsion
[ 7912 7892 7891 7888 ] final   37.13 input   59.97 | X-H torsion
[ 6852 6804 6805 6806 ] final  147.54 input  117.17 | X-H torsion
[ 27193 6336 6335 6334 ] final -118.74 input   -0.00 | X-H torsion
[ 27195 6500 6499 6498 ] final  149.88 input    0.00 | X-H torsion
[ 27198 6576 6575 6574 ] final   41.46 input   -0.00 | X-H torsion
[ 27201 7890 7889 7888 ] final  -53.33 input    0.00 | X-H torsion
[ 27204 8028 8027 8026 ] final   46.81 input   -0.00 | X-H torsion
[ 27207 8107 8106 8105 ] final  -29.20 input    0.00 | X-H torsion
[ 27210 8169 8168 8167 ] final  -72.74 input    0.00 | X-H torsion
[ 27213 10098 10097 10096 ] final  118.04 input    0.00 | X-H torsion
[ 27215 10188 10187 10186 ] final -165.87 input   -0.00 | X-H torsion
[ 27217 8245 8244 8243 ] final   48.01 input   -0.00 | X-H torsion
[ 27224 7943 7942 7941 ] final   -5.59 input    0.00 | X-H torsion
[ 27226 7818 7817 7816 ] final   40.75 input    0.00 | X-H torsion

> <Gold.Protein.ActiveResidues>
 ASP403  THR404  LEU406  ILE407  TYR408  ALA410  LYS411  TRP414  TRP426  SER427 
 LYS428  LEU429  GLN430  VAL431  PHE432  ASP433  TYR453  SER462  ALA463  ILE464 
 ILE466 

> <Gold.Protein.RotatedAtoms>
  242.0042   -0.4759   49.9586 H   0  0  0  0  0  0  0  0  0  0  0  0  # atno 6614 bound_to 6573
  239.7686   -1.3147   48.7776 H   0  0  0  0  0  0  0  0  0  0  0  0  # atno 6700 bound_to 6661
  241.1173    1.2117   45.0441 H   0  0  0  0  0  0  0  0  0  0  0  0  # atno 6852 bound_to 6804
  240.8282   -0.0324   37.9306 H   0  0  0  0  0  0  0  0  0  0  0  0  # atno 7908 bound_to 7887
  240.5265   -3.8286   36.9434 H   0  0  0  0  0  0  0  0  0  0  0  0  # atno 7912 bound_to 7892
  242.0290   -2.7880   38.3286 H   0  0  0  0  0  0  0  0  0  0  0  0  # atno 7988 bound_to 7940
  245.1749   -2.9741   39.8620 H   0  0  0  0  0  0  0  0  0  0  0  0  # atno 8066 bound_to 8025
  247.8859   -1.8518   40.7676 H   0  0  0  0  0  0  0  0  0  0  0  0  # atno 8137 bound_to 8104
  247.5640   -1.4515   44.2400 H   0  0  0  0  0  0  0  0  0  0  0  0  # atno 8200 bound_to 8166
  250.0052   -0.7048   46.6766 H   0  0  0  0  0  0  0  0  0  0  0  0  # atno 8280 bound_to 8242
  249.4290   -1.0142   50.1881 H   0  0  0  0  0  0  0  0  0  0  0  0  # atno 8333 bound_to 8313
  252.1409   -4.5410   38.9470 H   0  0  0  0  0  0  0  0  0  0  0  0  # atno 9580 bound_to 9544
  249.5159    1.8218   44.1276 H   0  0  0  0  0  0  0  0  0  0  0  0  # atno 10226 bound_to 10185
  241.5804   -2.9088   51.3316 LP  0  0  0  0  0  0  0  0  0  0  0  0  # atno 27193 bound_to 6336
  243.1480   -3.6271   51.1691 LP  0  0  0  0  0  0  0  0  0  0  0  0  # atno 27194 bound_to 6336
  242.2939    0.7780   48.4668 LP  0  0  0  0  0  0  0  0  0  0  0  0  # atno 27195 bound_to 6500
  241.1887    1.6682   49.4598 LP  0  0  0  0  0  0  0  0  0  0  0  0  # atno 27196 bound_to 6500
  241.2948   -2.0532   50.2131 LP  0  0  0  0  0  0  0  0  0  0  0  0  # atno 27197 bound_to 6573
  241.5986   -0.6512   45.7577 LP  0  0  0  0  0  0  0  0  0  0  0  0  # atno 27198 bound_to 6576
  240.2089    0.2543   46.2565 LP  0  0  0  0  0  0  0  0  0  0  0  0  # atno 27199 bound_to 6576
  240.1589   -2.2414   47.3446 LP  0  0  0  0  0  0  0  0  0  0  0  0  # atno 27200 bound_to 6661
  241.9701   -3.3503   40.4590 LP  0  0  0  0  0  0  0  0  0  0  0  0  # atno 27201 bound_to 7890
  242.4104   -4.4913   39.2324 LP  0  0  0  0  0  0  0  0  0  0  0  0  # atno 27202 bound_to 7890
  244.5537   -1.7134   38.8190 LP  0  0  0  0  0  0  0  0  0  0  0  0  # atno 27203 bound_to 8025
  245.1284   -3.0551   42.0610 LP  0  0  0  0  0  0  0  0  0  0  0  0  # atno 27204 bound_to 8028
  245.9065   -2.2786   43.3995 LP  0  0  0  0  0  0  0  0  0  0  0  0  # atno 27205 bound_to 8028
  247.1237   -0.7874   41.9240 LP  0  0  0  0  0  0  0  0  0  0  0  0  # atno 27206 bound_to 8104
  249.5986    0.1753   43.1862 LP  0  0  0  0  0  0  0  0  0  0  0  0  # atno 27207 bound_to 8107
  248.5117    0.6777   44.4377 LP  0  0  0  0  0  0  0  0  0  0  0  0  # atno 27208 bound_to 8107
  248.6074   -2.4895   45.1823 LP  0  0  0  0  0  0  0  0  0  0  0  0  # atno 27209 bound_to 8166
  248.1210   -2.4525   48.5309 LP  0  0  0  0  0  0  0  0  0  0  0  0  # atno 27210 bound_to 8169
  249.5091   -2.9603   47.6280 LP  0  0  0  0  0  0  0  0  0  0  0  0  # atno 27211 bound_to 8169
  249.0170    0.2838   47.7225 LP  0  0  0  0  0  0  0  0  0  0  0  0  # atno 27212 bound_to 8242
  250.5061   -0.5365   40.2109 LP  0  0  0  0  0  0  0  0  0  0  0  0  # atno 27213 bound_to 10098
  248.8740   -0.6097   39.6355 LP  0  0  0  0  0  0  0  0  0  0  0  0  # atno 27214 bound_to 10098
  250.0492    1.8765   47.2333 LP  0  0  0  0  0  0  0  0  0  0  0  0  # atno 27215 bound_to 10188
  249.6037    1.5168   45.5986 LP  0  0  0  0  0  0  0  0  0  0  0  0  # atno 27216 bound_to 10188
  249.2862    1.6870   49.2215 LP  0  0  0  0  0  0  0  0  0  0  0  0  # atno 27217 bound_to 8245
  250.1364    1.8842   50.7176 LP  0  0  0  0  0  0  0  0  0  0  0  0  # atno 27218 bound_to 8245
  251.0258   -0.7195   50.8368 LP  0  0  0  0  0  0  0  0  0  0  0  0  # atno 27219 bound_to 8313
  251.1839   -3.7034   39.9627 LP  0  0  0  0  0  0  0  0  0  0  0  0  # atno 27220 bound_to 9544
  251.7463   -5.1748   40.3933 LP  0  0  0  0  0  0  0  0  0  0  0  0  # atno 27221 bound_to 9544
  249.5901    2.9827   42.8239 LP  0  0  0  0  0  0  0  0  0  0  0  0  # atno 27222 bound_to 10185
  242.4038   -1.6096   37.0899 LP  0  0  0  0  0  0  0  0  0  0  0  0  # atno 27223 bound_to 7940
  245.4043   -0.9057   36.6465 LP  0  0  0  0  0  0  0  0  0  0  0  0  # atno 27224 bound_to 7943
  246.0328   -0.2316   38.1129 LP  0  0  0  0  0  0  0  0  0  0  0  0  # atno 27225 bound_to 7943
  240.7396    1.2871   39.7793 LP  0  0  0  0  0  0  0  0  0  0  0  0  # atno 27226 bound_to 7818
  241.7440   -0.1225   39.7139 LP  0  0  0  0  0  0  0  0  0  0  0  0  # atno 27227 bound_to 7818
  239.9545   -1.0159   36.7857 LP  0  0  0  0  0  0  0  0  0  0  0  0  # atno 27228 bound_to 7887
  239.2007   -3.1046   36.3379 LP  0  0  0  0  0  0  0  0  0  0  0  0  # atno 27229 bound_to 7892
  239.0827   -4.5732   37.0421 LP  0  0  0  0  0  0  0  0  0  0  0  0  # atno 27230 bound_to 7892

> <Gold.Score>
     Fitness  S(hb_ext) S(vdw_ext)  S(hb_int)    S(int)      intcor
     32.72      12.17      14.96       0.00      -0.02      -0.76

> <Gold.Goldscore.Fitness>
32.7219

> <Gold.Goldscore.Internal.Vdw>
-0.3628

> <Gold.Goldscore.Internal.Torsion>
-0.4151

> <Gold.Goldscore.External.Vdw>
14.9636

> <Gold.Goldscore.Internal.HBond>
0.0000

> <Gold.Goldscore.External.HBond>
12.1692

> <Gold.Goldscore.Internal.Correction>
-0.7558

> <Gold.Goldscore.Hbonds>
donor molecule, donor type, donor heavy atom, donor atom, acceptor molecule, acceptor atom, score
      P1  H  6812  6863       L1    11  0.99
      P1  H  8111  8143       L1     9  0.14
      L1  H     8    22       P1  8112  1.00

> <Gold.Goldscore.Internal.Vdw.Weighted>
-0.3628

> <Gold.Goldscore.Internal.Torsion.Weighted>
-0.4151

> <Gold.Goldscore.External.Vdw.Weighted>
20.5749

> <Gold.Goldscore.Internal.HBond.Weighted>
0.0000

> <Gold.Goldscore.External.HBond.Weighted>
12.1692

> <Gold.Goldscore.Internal.Correction.Weighted>
-0.7558

> <Gold.Rescore>
     Score     S(PLP)   S(hbond)     S(cho)   S(metal)  DE(clash)   DE(tors)     intcor
     28.14     -19.23       2.99       0.00       0.00       0.00       0.03       ----

> <Gold.PLP.Fitness>
28.1361

> <Gold.PLP.PLP>
-19.2322

> <Gold.PLP.part.hbond>
-4.0000

> <Gold.PLP.part.metal>
0.0000

> <Gold.PLP.part.buried>
-1.9421

> <Gold.PLP.part.nonpolar>
-14.3593

> <Gold.PLP.part.repulsive>
0.4912

> <Gold.PLP.ligand.clash>
0.0000

> <Gold.PLP.ligand.torsion>
0.0349

> <Gold.PLP.Chemscore.Hbond>
2.9913

> <Gold.PLP.Chemscore.CHOScore>
0.0000

> <Gold.PLP.Chemscore.Metal>
0.0000

> <Gold.Chemscore.Hbonds>
donor molecule, donor type, donor heavy atom, donor atom, acceptor molecule, acceptor atom, score
      L1  H     8    22       P1  8112  0.50
      P1  H  6812  6863       L1    11  1.00
      P1  H  8111  8143       L1     9  0.94

> <Gold.PLP.Chemscore.Internal.Correction>
   9.000000E+99

