#       Name:                CT1002167954
#       Creating user name   hitesit
#       Creation time:       Sun Apr 16 20:34:43 2023


#       File generated by GOLD software.
#

@<TRIPOS>MOLECULE
CT1002167954|ligand_prepared|mol2|1|dock7
    29    30     1
SMALL
NO_CHARGES


@<TRIPOS>ATOM
      1 C1         248.6590  -4.0695  36.9753 C.3            1 RES1               0.0000
      2 C2         248.1972  -2.9055  36.0749 C.ar           1 RES1               0.0000
      3 C3         248.9803  -3.4575  38.3356 C.2            1 RES1               0.0000
      4 C4         247.5101  -5.0716  36.9997 C.2            1 RES1               0.0000
      5 C5         249.9190  -4.7998  36.4552 C.3            1 RES1               0.0000
      6 C6         247.5282  -1.8124  36.6173 C.ar           1 RES1               0.0000
      7 C7         248.4351  -2.9093  34.7030 C.ar           1 RES1               0.0000
      8 N8         248.1014  -3.6834  39.3536 N.am           1 RES1               0.0000
      9 O9         249.9694  -2.7545  38.5024 O.2            1 RES1               0.0000
     10 N10        246.8640  -5.2788  38.1902 N.am           1 RES1               0.0000
     11 O11        247.1477  -5.6713  35.9950 O.2            1 RES1               0.0000
     12 C12        250.4799  -5.8240  37.4292 C.3            1 RES1               0.0000
     13 C13        247.1145  -0.7598  35.8178 C.ar           1 RES1               0.0000
     14 C14        248.0203  -1.8558  33.9052 C.ar           1 RES1               0.0000
     15 C15        247.0876  -4.6074  39.3613 C.2            1 RES1               0.0000
     16 C16        247.3605  -0.7805  34.4615 C.ar           1 RES1               0.0000
     17 O17        246.4281  -4.8116  40.3765 O.2            1 RES1               0.0000
     18 H18        249.6705  -5.3064  35.5144 H              1 RES1               0.0000
     19 H19        250.6953  -4.0551  36.2402 H              1 RES1               0.0000
     20 H20        247.3235  -1.7796  37.6822 H              1 RES1               0.0000
     21 H21        248.9514  -3.7453  34.2435 H              1 RES1               0.0000
     22 H22        248.2077  -3.1125  40.1861 H              1 RES1               0.0000
     23 H23        246.1503  -6.0005  38.2048 H              1 RES1               0.0000
     24 H24        251.3626  -6.3069  37.0153 H              1 RES1               0.0000
     25 H25        250.7612  -5.3504  38.3675 H              1 RES1               0.0000
     26 H26        249.7425  -6.5942  37.6461 H              1 RES1               0.0000
     27 H27        246.5944   0.0834  36.2602 H              1 RES1               0.0000
     28 H28        248.2155  -1.8766  32.8382 H              1 RES1               0.0000
     29 H29        247.0367   0.0443  33.8354 H              1 RES1               0.0000
@<TRIPOS>BOND
    1    1    2 1     
    2    1    3 1     
    3    1    4 1     
    4    1    5 1     
    5    2    6 ar    
    6    2    7 ar    
    7    3    8 1     
    8    3    9 2     
    9    4   10 1     
   10    4   11 2     
   11    5   12 1     
   12    5   18 1     
   13    5   19 1     
   14    6   13 ar    
   15    6   20 1     
   16    7   14 ar    
   17    7   21 1     
   18    8   15 1     
   19    8   22 1     
   20   10   15 1     
   21   10   23 1     
   22   12   24 1     
   23   12   25 1     
   24   12   26 1     
   25   13   16 ar    
   26   13   27 1     
   27   14   16 ar    
   28   14   28 1     
   29   15   17 2     
   30   16   29 1     
@<TRIPOS>SUBSTRUCTURE
      1 RES1           1
@<TRIPOS>SET
DONOR_HYDROGENS      STATIC     ATOMS    <user>   **** ""
2 22 23
ATOM$RED        STATIC     ATOMS    COLORGROUP SYSTEM
2 22 23
@<TRIPOS>COMMENT
> <Gold.Version>
2022.3.0

> <Gold.Id.Protein>
unknown|4d1n_clean|pdb

> <Gold.Protein.RotatedTorsions>
[ 6614 6573 6574 6575 ] final  149.07 input  116.02 | X-H torsion
[ 6700 6661 6662 6663 ] final   46.74 input  125.25 | X-H torsion
[ 8066 8025 8026 8027 ] final   -2.30 input   31.90 | X-H torsion
[ 8137 8104 8105 8106 ] final  164.77 input   91.64 | X-H torsion
[ 8200 8166 8167 8168 ] final   36.62 input   70.29 | X-H torsion
[ 8280 8242 8243 8244 ] final   44.56 input   89.64 | X-H torsion
[ 8333 8313 8314 8315 ] final  -94.62 input   85.58 | X-H torsion
[ 9580 9544 9543 9541 ] final -163.91 input   60.01 | X-H torsion
[ 10226 10185 10186 10187 ] final   37.96 input   40.00 | X-H torsion
[ 7988 7940 7941 7942 ] final   75.61 input   82.26 | X-H torsion
[ 7908 7887 7888 7889 ] final  113.12 input   90.27 | X-H torsion
[ 7912 7892 7891 7888 ] final   74.48 input   59.97 | X-H torsion
[ 6852 6804 6805 6806 ] final -130.08 input  117.17 | X-H torsion
[ 27193 6336 6335 6334 ] final -177.18 input   -0.00 | X-H torsion
[ 27195 6500 6499 6498 ] final  130.25 input    0.00 | X-H torsion
[ 27198 6576 6575 6574 ] final  175.48 input   -0.00 | X-H torsion
[ 27201 7890 7889 7888 ] final  -77.56 input    0.00 | X-H torsion
[ 27204 8028 8027 8026 ] final  110.03 input   -0.00 | X-H torsion
[ 27207 8107 8106 8105 ] final -156.91 input    0.00 | X-H torsion
[ 27210 8169 8168 8167 ] final  138.47 input    0.00 | X-H torsion
[ 27213 10098 10097 10096 ] final   84.90 input    0.00 | X-H torsion
[ 27215 10188 10187 10186 ] final -170.03 input   -0.00 | X-H torsion
[ 27217 8245 8244 8243 ] final   35.19 input   -0.00 | X-H torsion
[ 27224 7943 7942 7941 ] final   95.16 input    0.00 | X-H torsion
[ 27226 7818 7817 7816 ] final   42.10 input    0.00 | X-H torsion

> <Gold.Protein.ActiveResidues>
 ASP403  THR404  LEU406  ILE407  TYR408  ALA410  LYS411  TRP414  TRP426  SER427 
 LYS428  LEU429  GLN430  VAL431  PHE432  ASP433  TYR453  SER462  ALA463  ILE464 
 ILE466 

> <Gold.Protein.RotatedAtoms>
  242.1301   -1.9793   50.3150 H   0  0  0  0  0  0  0  0  0  0  0  0  # atno 6614 bound_to 6573
  239.8468   -1.1914   48.7005 H   0  0  0  0  0  0  0  0  0  0  0  0  # atno 6700 bound_to 6661
  241.6543    2.1837   44.6847 H   0  0  0  0  0  0  0  0  0  0  0  0  # atno 6852 bound_to 6804
  239.8187   -0.9543   36.8444 H   0  0  0  0  0  0  0  0  0  0  0  0  # atno 7908 bound_to 7887
  240.2966   -4.3408   37.1540 H   0  0  0  0  0  0  0  0  0  0  0  0  # atno 7912 bound_to 7892
  242.4186   -1.6203   37.0453 H   0  0  0  0  0  0  0  0  0  0  0  0  # atno 7988 bound_to 7940
  245.1618   -2.9727   39.8712 H   0  0  0  0  0  0  0  0  0  0  0  0  # atno 8066 bound_to 8025
  247.8361   -1.8940   40.7774 H   0  0  0  0  0  0  0  0  0  0  0  0  # atno 8137 bound_to 8104
  248.3010   -2.6460   45.2537 H   0  0  0  0  0  0  0  0  0  0  0  0  # atno 8200 bound_to 8166
  249.3999    0.6288   47.4609 H   0  0  0  0  0  0  0  0  0  0  0  0  # atno 8280 bound_to 8242
  250.1229   -0.0516   50.1850 H   0  0  0  0  0  0  0  0  0  0  0  0  # atno 8333 bound_to 8313
  251.4239   -3.6424   39.4263 H   0  0  0  0  0  0  0  0  0  0  0  0  # atno 9580 bound_to 9544
  249.3965    1.8173   44.1057 H   0  0  0  0  0  0  0  0  0  0  0  0  # atno 10226 bound_to 10185
  241.6705   -3.5986   50.8509 LP  0  0  0  0  0  0  0  0  0  0  0  0  # atno 27193 bound_to 6336
  243.0579   -2.9374   51.6497 LP  0  0  0  0  0  0  0  0  0  0  0  0  # atno 27194 bound_to 6336
  242.4846    0.9050   48.6529 LP  0  0  0  0  0  0  0  0  0  0  0  0  # atno 27195 bound_to 6500
  240.9981    1.5413   49.2737 LP  0  0  0  0  0  0  0  0  0  0  0  0  # atno 27196 bound_to 6500
  241.1722   -0.5877   49.8657 LP  0  0  0  0  0  0  0  0  0  0  0  0  # atno 27197 bound_to 6573
  240.0552   -0.2602   45.8450 LP  0  0  0  0  0  0  0  0  0  0  0  0  # atno 27198 bound_to 6576
  241.7522   -0.1366   46.1691 LP  0  0  0  0  0  0  0  0  0  0  0  0  # atno 27199 bound_to 6576
  240.0833   -2.3605   47.4192 LP  0  0  0  0  0  0  0  0  0  0  0  0  # atno 27200 bound_to 6661
  242.3247   -3.2829   40.4158 LP  0  0  0  0  0  0  0  0  0  0  0  0  # atno 27201 bound_to 7890
  242.0557   -4.5587   39.2756 LP  0  0  0  0  0  0  0  0  0  0  0  0  # atno 27202 bound_to 7890
  244.5664   -1.7147   38.8101 LP  0  0  0  0  0  0  0  0  0  0  0  0  # atno 27203 bound_to 8025
  245.8965   -3.3806   42.4191 LP  0  0  0  0  0  0  0  0  0  0  0  0  # atno 27204 bound_to 8028
  245.1385   -1.9530   43.0414 LP  0  0  0  0  0  0  0  0  0  0  0  0  # atno 27205 bound_to 8028
  247.1725   -0.7460   41.9145 LP  0  0  0  0  0  0  0  0  0  0  0  0  # atno 27206 bound_to 8104
  249.2077    0.4610   44.6637 LP  0  0  0  0  0  0  0  0  0  0  0  0  # atno 27207 bound_to 8107
  248.9026    0.3921   42.9601 LP  0  0  0  0  0  0  0  0  0  0  0  0  # atno 27208 bound_to 8107
  247.8868   -1.3217   44.1912 LP  0  0  0  0  0  0  0  0  0  0  0  0  # atno 27209 bound_to 8166
  249.6765   -2.7725   48.0200 LP  0  0  0  0  0  0  0  0  0  0  0  0  # atno 27210 bound_to 8169
  247.9536   -2.6403   48.1389 LP  0  0  0  0  0  0  0  0  0  0  0  0  # atno 27211 bound_to 8169
  249.6121   -1.0274   46.9514 LP  0  0  0  0  0  0  0  0  0  0  0  0  # atno 27212 bound_to 8242
  250.5296   -0.6764   39.7377 LP  0  0  0  0  0  0  0  0  0  0  0  0  # atno 27213 bound_to 10098
  248.8505   -0.4698   40.1088 LP  0  0  0  0  0  0  0  0  0  0  0  0  # atno 27214 bound_to 10098
  250.1092    1.8709   47.2158 LP  0  0  0  0  0  0  0  0  0  0  0  0  # atno 27215 bound_to 10188
  249.5437    1.5224   45.6161 LP  0  0  0  0  0  0  0  0  0  0  0  0  # atno 27216 bound_to 10188
  249.4560    1.7362   49.1434 LP  0  0  0  0  0  0  0  0  0  0  0  0  # atno 27217 bound_to 8245
  249.9665    1.8350   50.7956 LP  0  0  0  0  0  0  0  0  0  0  0  0  # atno 27218 bound_to 8245
  250.3500   -1.6569   50.8398 LP  0  0  0  0  0  0  0  0  0  0  0  0  # atno 27219 bound_to 8313
  251.4052   -4.7472   40.6214 LP  0  0  0  0  0  0  0  0  0  0  0  0  # atno 27220 bound_to 9544
  252.2469   -5.0358   39.2522 LP  0  0  0  0  0  0  0  0  0  0  0  0  # atno 27221 bound_to 9544
  249.7068    2.9871   42.8454 LP  0  0  0  0  0  0  0  0  0  0  0  0  # atno 27222 bound_to 10185
  242.0266   -2.7400   38.3321 LP  0  0  0  0  0  0  0  0  0  0  0  0  # atno 27223 bound_to 7940
  245.0734   -0.0353   37.6018 LP  0  0  0  0  0  0  0  0  0  0  0  0  # atno 27224 bound_to 7943
  246.3637   -1.1019   37.1576 LP  0  0  0  0  0  0  0  0  0  0  0  0  # atno 27225 bound_to 7943
  240.7242    1.2755   39.7860 LP  0  0  0  0  0  0  0  0  0  0  0  0  # atno 27226 bound_to 7818
  241.7594   -0.1109   39.7072 LP  0  0  0  0  0  0  0  0  0  0  0  0  # atno 27227 bound_to 7818
  240.9530   -0.1040   37.8601 LP  0  0  0  0  0  0  0  0  0  0  0  0  # atno 27228 bound_to 7887
  239.7917   -2.9939   36.3926 LP  0  0  0  0  0  0  0  0  0  0  0  0  # atno 27229 bound_to 7892
  238.7232   -4.1681   36.7753 LP  0  0  0  0  0  0  0  0  0  0  0  0  # atno 27230 bound_to 7892

> <Gold.Score>
     Fitness  S(hb_ext) S(vdw_ext)  S(hb_int)    S(int)      intcor
     29.46       0.25      21.75       0.00      -0.70      -0.76

> <Gold.Goldscore.Fitness>
29.4569

> <Gold.Goldscore.Internal.Vdw>
-0.9986

> <Gold.Goldscore.Internal.Torsion>
-0.4609

> <Gold.Goldscore.External.Vdw>
21.7517

> <Gold.Goldscore.Internal.HBond>
0.0000

> <Gold.Goldscore.External.HBond>
0.2519

> <Gold.Goldscore.Internal.Correction>
-0.7558

> <Gold.Goldscore.Hbonds>
donor molecule, donor type, donor heavy atom, donor atom, acceptor molecule, acceptor atom, score
      P1  H  8025  8066       L1    17  0.08
      P1  H  9544  9580       L1     9  0.04

> <Gold.Goldscore.Internal.Vdw.Weighted>
-0.9986

> <Gold.Goldscore.Internal.Torsion.Weighted>
-0.4609

> <Gold.Goldscore.External.Vdw.Weighted>
29.9086

> <Gold.Goldscore.Internal.HBond.Weighted>
0.0000

> <Gold.Goldscore.External.HBond.Weighted>
0.2519

> <Gold.Goldscore.Internal.Correction.Weighted>
-0.7558

> <Gold.Rescore>
     Score     S(PLP)   S(hbond)     S(cho)   S(metal)  DE(clash)   DE(tors)     intcor
     41.00     -35.75       1.98       0.00       0.00       0.00       0.34       ----

> <Gold.PLP.Fitness>
41.0034

> <Gold.PLP.PLP>
-35.7481

> <Gold.PLP.part.hbond>
-2.0537

> <Gold.PLP.part.metal>
0.0000

> <Gold.PLP.part.buried>
-5.1838

> <Gold.PLP.part.nonpolar>
-30.4986

> <Gold.PLP.part.repulsive>
0.3493

> <Gold.PLP.ligand.clash>
0.0000

> <Gold.PLP.ligand.torsion>
0.3364

> <Gold.PLP.Chemscore.Hbond>
1.9760

> <Gold.PLP.Chemscore.CHOScore>
0.0000

> <Gold.PLP.Chemscore.Metal>
0.0000

> <Gold.Chemscore.Hbonds>
donor molecule, donor type, donor heavy atom, donor atom, acceptor molecule, acceptor atom, score
      P1  H  8025  8066       L1    17  0.23
      P1  H  9544  9580       L1     9  1.00

> <Gold.PLP.Chemscore.Internal.Correction>
   9.000000E+99

