#       Name:                CT1002167954
#       Creating user name   hitesit
#       Creation time:       Sun Apr 16 20:34:40 2023


#       File generated by GOLD software.
#

@<TRIPOS>MOLECULE
CT1002167954|ligand_prepared|mol2|1|dock1
    29    30     1
SMALL
NO_CHARGES


@<TRIPOS>ATOM
      1 C1         246.1214  -6.8878  43.0730 C.3            1 RES1               0.0000
      2 C2         246.4527  -6.6656  41.5831 C.ar           1 RES1               0.0000
      3 C3         247.3939  -6.5596  43.8485 C.2            1 RES1               0.0000
      4 C4         244.9456  -5.9705  43.3900 C.2            1 RES1               0.0000
      5 C5         245.7009  -8.3373  43.4101 C.3            1 RES1               0.0000
      6 C6         246.2162  -7.6682  40.6474 C.ar           1 RES1               0.0000
      7 C7         246.9919  -5.4646  41.1298 C.ar           1 RES1               0.0000
      8 N8         247.4230  -5.3897  44.5488 N.am           1 RES1               0.0000
      9 O9         248.3714  -7.2969  43.8140 O.2            1 RES1               0.0000
     10 N10        245.1532  -4.9415  44.2708 N.am           1 RES1               0.0000
     11 O11        243.8456  -6.1194  42.8722 O.2            1 RES1               0.0000
     12 C12        245.4706  -8.5797  44.8935 C.3            1 RES1               0.0000
     13 C13        246.5053  -7.4761  39.3066 C.ar           1 RES1               0.0000
     14 C14        247.2805  -5.2747  39.7885 C.ar           1 RES1               0.0000
     15 C15        246.3467  -4.5910  44.8410 C.2            1 RES1               0.0000
     16 C16        247.0372  -6.2793  38.8762 C.ar           1 RES1               0.0000
     17 O17        246.4654  -3.6187  45.5811 O.2            1 RES1               0.0000
     18 H18        244.7777  -8.5727  42.8663 H              1 RES1               0.0000
     19 H19        246.4817  -9.0226  43.0575 H              1 RES1               0.0000
     20 H20        245.8004  -8.6176  40.9679 H              1 RES1               0.0000
     21 H21        247.1926  -4.6606  41.8298 H              1 RES1               0.0000
     22 H22        248.3287  -5.0800  44.8864 H              1 RES1               0.0000
     23 H23        244.3431  -4.3853  44.5251 H              1 RES1               0.0000
     24 H24        245.1778  -9.6117  45.0748 H              1 RES1               0.0000
     25 H25        246.3762  -8.3794  45.4622 H              1 RES1               0.0000
     26 H26        244.6824  -7.9322  45.2722 H              1 RES1               0.0000
     27 H27        246.3133  -8.2704  38.5928 H              1 RES1               0.0000
     28 H28        247.6995  -4.3313  39.4543 H              1 RES1               0.0000
     29 H29        247.2632  -6.1289  37.8257 H              1 RES1               0.0000
@<TRIPOS>BOND
    1    1    2 1     
    2    1    3 1     
    3    1    4 1     
    4    1    5 1     
    5    2    6 ar    
    6    2    7 ar    
    7    3    8 1     
    8    3    9 2     
    9    4   10 1     
   10    4   11 2     
   11    5   12 1     
   12    5   18 1     
   13    5   19 1     
   14    6   13 ar    
   15    6   20 1     
   16    7   14 ar    
   17    7   21 1     
   18    8   15 1     
   19    8   22 1     
   20   10   15 1     
   21   10   23 1     
   22   12   24 1     
   23   12   25 1     
   24   12   26 1     
   25   13   16 ar    
   26   13   27 1     
   27   14   16 ar    
   28   14   28 1     
   29   15   17 2     
   30   16   29 1     
@<TRIPOS>SUBSTRUCTURE
      1 RES1           1
@<TRIPOS>SET
DONOR_HYDROGENS      STATIC     ATOMS    <user>   **** ""
2 22 23
ATOM$RED        STATIC     ATOMS    COLORGROUP SYSTEM
2 22 23
@<TRIPOS>COMMENT
> <Gold.Version>
2022.3.0

> <Gold.Id.Protein>
unknown|4d1n_clean|pdb

> <Gold.Protein.RotatedTorsions>
[ 6614 6573 6574 6575 ] final  125.23 input  116.02 | X-H torsion
[ 6700 6661 6662 6663 ] final -155.44 input  125.25 | X-H torsion
[ 8066 8025 8026 8027 ] final    0.51 input   31.90 | X-H torsion
[ 8137 8104 8105 8106 ] final   64.61 input   91.64 | X-H torsion
[ 8200 8166 8167 8168 ] final   93.30 input   70.29 | X-H torsion
[ 8280 8242 8243 8244 ] final   77.48 input   89.64 | X-H torsion
[ 8333 8313 8314 8315 ] final  140.23 input   85.58 | X-H torsion
[ 9580 9544 9543 9541 ] final   23.47 input   60.01 | X-H torsion
[ 10226 10185 10186 10187 ] final  145.68 input   40.00 | X-H torsion
[ 7988 7940 7941 7942 ] final  -52.49 input   82.26 | X-H torsion
[ 7908 7887 7888 7889 ] final -170.15 input   90.27 | X-H torsion
[ 7912 7892 7891 7888 ] final    2.06 input   59.97 | X-H torsion
[ 6852 6804 6805 6806 ] final   10.58 input  117.17 | X-H torsion
[ 27193 6336 6335 6334 ] final  101.86 input   -0.00 | X-H torsion
[ 27195 6500 6499 6498 ] final  173.14 input    0.00 | X-H torsion
[ 27198 6576 6575 6574 ] final   31.14 input   -0.00 | X-H torsion
[ 27201 7890 7889 7888 ] final   84.30 input    0.00 | X-H torsion
[ 27204 8028 8027 8026 ] final    6.71 input   -0.00 | X-H torsion
[ 27207 8107 8106 8105 ] final  -46.28 input    0.00 | X-H torsion
[ 27210 8169 8168 8167 ] final -145.90 input    0.00 | X-H torsion
[ 27213 10098 10097 10096 ] final  -12.08 input    0.00 | X-H torsion
[ 27215 10188 10187 10186 ] final  150.91 input   -0.00 | X-H torsion
[ 27217 8245 8244 8243 ] final   99.04 input   -0.00 | X-H torsion
[ 27224 7943 7942 7941 ] final   -4.41 input    0.00 | X-H torsion
[ 27226 7818 7817 7816 ] final  -29.77 input    0.00 | X-H torsion

> <Gold.Protein.ActiveResidues>
 ASP403  THR404  LEU406  ILE407  TYR408  ALA410  LYS411  TRP414  TRP426  SER427 
 LYS428  LEU429  GLN430  VAL431  PHE432  ASP433  TYR453  SER462  ALA463  ILE464 
 ILE466 

> <Gold.Protein.RotatedAtoms>
  241.7939   -2.1220   50.2956 H   0  0  0  0  0  0  0  0  0  0  0  0  # atno 6614 bound_to 6573
  239.8953   -2.5612   47.6171 H   0  0  0  0  0  0  0  0  0  0  0  0  # atno 6700 bound_to 6661
  240.0632    2.4787   45.0928 H   0  0  0  0  0  0  0  0  0  0  0  0  # atno 6852 bound_to 6804
  239.6100   -0.2808   37.6735 H   0  0  0  0  0  0  0  0  0  0  0  0  # atno 7908 bound_to 7887
  240.3981   -3.3458   36.6809 H   0  0  0  0  0  0  0  0  0  0  0  0  # atno 7912 bound_to 7892
  242.3107   -2.0712   38.5759 H   0  0  0  0  0  0  0  0  0  0  0  0  # atno 7988 bound_to 7940
  245.1257   -2.9680   39.8953 H   0  0  0  0  0  0  0  0  0  0  0  0  # atno 8066 bound_to 8025
  248.1103   -0.6777   41.3041 H   0  0  0  0  0  0  0  0  0  0  0  0  # atno 8137 bound_to 8104
  247.4955   -2.5405   45.0442 H   0  0  0  0  0  0  0  0  0  0  0  0  # atno 8200 bound_to 8166
  249.7799    0.6280   47.1378 H   0  0  0  0  0  0  0  0  0  0  0  0  # atno 8280 bound_to 8242
  249.6472   -1.5232   50.4692 H   0  0  0  0  0  0  0  0  0  0  0  0  # atno 8333 bound_to 8313
  251.8967   -5.2748   40.2045 H   0  0  0  0  0  0  0  0  0  0  0  0  # atno 9580 bound_to 9544
  248.7823    2.5980   43.0816 H   0  0  0  0  0  0  0  0  0  0  0  0  # atno 10226 bound_to 10185
  242.7429   -3.9367   50.8511 LP  0  0  0  0  0  0  0  0  0  0  0  0  # atno 27193 bound_to 6336
  241.9855   -2.5992   51.6495 LP  0  0  0  0  0  0  0  0  0  0  0  0  # atno 27194 bound_to 6336
  241.9870    0.6953   48.3221 LP  0  0  0  0  0  0  0  0  0  0  0  0  # atno 27195 bound_to 6500
  241.4957    1.7509   49.6044 LP  0  0  0  0  0  0  0  0  0  0  0  0  # atno 27196 bound_to 6500
  241.4998   -0.4485   49.8846 LP  0  0  0  0  0  0  0  0  0  0  0  0  # atno 27197 bound_to 6573
  241.6784   -0.5501   45.8452 LP  0  0  0  0  0  0  0  0  0  0  0  0  # atno 27198 bound_to 6576
  240.1290    0.1532   46.1689 LP  0  0  0  0  0  0  0  0  0  0  0  0  # atno 27199 bound_to 6576
  240.0364   -1.0368   48.4661 LP  0  0  0  0  0  0  0  0  0  0  0  0  # atno 27200 bound_to 6661
  241.8024   -4.5355   39.3749 LP  0  0  0  0  0  0  0  0  0  0  0  0  # atno 27201 bound_to 7890
  242.5781   -3.3061   40.3165 LP  0  0  0  0  0  0  0  0  0  0  0  0  # atno 27202 bound_to 7890
  244.6014   -1.7193   38.7867 LP  0  0  0  0  0  0  0  0  0  0  0  0  # atno 27203 bound_to 8025
  244.8199   -2.5750   42.2253 LP  0  0  0  0  0  0  0  0  0  0  0  0  # atno 27204 bound_to 8028
  246.2150   -2.7587   43.2353 LP  0  0  0  0  0  0  0  0  0  0  0  0  # atno 27205 bound_to 8028
  246.9040   -1.9375   41.3986 LP  0  0  0  0  0  0  0  0  0  0  0  0  # atno 27206 bound_to 8104
  249.7547    0.1422   43.3879 LP  0  0  0  0  0  0  0  0  0  0  0  0  # atno 27207 bound_to 8107
  248.3556    0.7109   44.2360 LP  0  0  0  0  0  0  0  0  0  0  0  0  # atno 27208 bound_to 8107
  248.6744   -1.4249   44.3961 LP  0  0  0  0  0  0  0  0  0  0  0  0  # atno 27209 bound_to 8166
  249.1087   -2.3537   48.8139 LP  0  0  0  0  0  0  0  0  0  0  0  0  # atno 27210 bound_to 8169
  248.5213   -3.0591   47.3450 LP  0  0  0  0  0  0  0  0  0  0  0  0  # atno 27211 bound_to 8169
  249.2385   -1.0265   47.2691 LP  0  0  0  0  0  0  0  0  0  0  0  0  # atno 27212 bound_to 8242
  249.3828   -0.7840   39.1415 LP  0  0  0  0  0  0  0  0  0  0  0  0  # atno 27213 bound_to 10098
  249.9973   -0.3622   40.7050 LP  0  0  0  0  0  0  0  0  0  0  0  0  # atno 27214 bound_to 10098
  250.5616    1.7787   46.8662 LP  0  0  0  0  0  0  0  0  0  0  0  0  # atno 27215 bound_to 10188
  249.0913    1.6146   45.9656 LP  0  0  0  0  0  0  0  0  0  0  0  0  # atno 27216 bound_to 10188
  248.8856    1.5598   49.8380 LP  0  0  0  0  0  0  0  0  0  0  0  0  # atno 27217 bound_to 8245
  250.5369    2.0115   50.1011 LP  0  0  0  0  0  0  0  0  0  0  0  0  # atno 27218 bound_to 8245
  250.8133   -0.2237   50.5630 LP  0  0  0  0  0  0  0  0  0  0  0  0  # atno 27219 bound_to 8313
  252.0355   -4.3058   38.9042 LP  0  0  0  0  0  0  0  0  0  0  0  0  # atno 27220 bound_to 9544
  251.1406   -3.8336   40.1859 LP  0  0  0  0  0  0  0  0  0  0  0  0  # atno 27221 bound_to 9544
  250.3077    2.2235   43.8471 LP  0  0  0  0  0  0  0  0  0  0  0  0  # atno 27222 bound_to 10185
  242.1311   -2.3035   36.8505 LP  0  0  0  0  0  0  0  0  0  0  0  0  # atno 27223 bound_to 7940
  245.3896   -0.8957   36.6484 LP  0  0  0  0  0  0  0  0  0  0  0  0  # atno 27224 bound_to 7943
  246.0475   -0.2415   38.1110 LP  0  0  0  0  0  0  0  0  0  0  0  0  # atno 27225 bound_to 7943
  241.6961    1.2728   39.4881 LP  0  0  0  0  0  0  0  0  0  0  0  0  # atno 27226 bound_to 7818
  240.7875   -0.1082   40.0051 LP  0  0  0  0  0  0  0  0  0  0  0  0  # atno 27227 bound_to 7818
  241.1594   -0.7701   37.0400 LP  0  0  0  0  0  0  0  0  0  0  0  0  # atno 27228 bound_to 7887
  238.7930   -3.4841   36.4501 LP  0  0  0  0  0  0  0  0  0  0  0  0  # atno 27229 bound_to 7892
  239.6197   -4.6798   37.1942 LP  0  0  0  0  0  0  0  0  0  0  0  0  # atno 27230 bound_to 7892

> <Gold.Score>
     Fitness  S(hb_ext) S(vdw_ext)  S(hb_int)    S(int)      intcor
     31.77      12.26      14.74       0.00      -0.77      -0.77

> <Gold.Goldscore.Fitness>
31.7653

> <Gold.Goldscore.Internal.Vdw>
-1.1382

> <Gold.Goldscore.Internal.Torsion>
-0.3968

> <Gold.Goldscore.External.Vdw>
14.7400

> <Gold.Goldscore.Internal.HBond>
0.0000

> <Gold.Goldscore.External.HBond>
12.2641

> <Gold.Goldscore.Internal.Correction>
-0.7686

> <Gold.Goldscore.Hbonds>
donor molecule, donor type, donor heavy atom, donor atom, acceptor molecule, acceptor atom, score
      P1  H  6812  6863       L1    11  0.89
      P1  H  8111  8143       L1     9  0.10
      P1  H  8166  8200       L1    17  0.37
      L1  H     8    22       P1  8112  1.00

> <Gold.Goldscore.Internal.Vdw.Weighted>
-1.1382

> <Gold.Goldscore.Internal.Torsion.Weighted>
-0.3968

> <Gold.Goldscore.External.Vdw.Weighted>
20.2676

> <Gold.Goldscore.Internal.HBond.Weighted>
0.0000

> <Gold.Goldscore.External.HBond.Weighted>
12.2641

> <Gold.Goldscore.Internal.Correction.Weighted>
-0.7686

> <Gold.Rescore>
     Score     S(PLP)   S(hbond)     S(cho)   S(metal)  DE(clash)   DE(tors)     intcor
     32.04     -20.23       3.96       0.00       0.00       0.00       0.03       ----

> <Gold.PLP.Fitness>
32.0418

> <Gold.PLP.PLP>
-20.2348

> <Gold.PLP.part.hbond>
-4.0000

> <Gold.PLP.part.metal>
0.0000

> <Gold.PLP.part.buried>
-1.8127

> <Gold.PLP.part.nonpolar>
-15.4680

> <Gold.PLP.part.repulsive>
0.4968

> <Gold.PLP.ligand.clash>
0.0000

> <Gold.PLP.ligand.torsion>
0.0350

> <Gold.PLP.Chemscore.Hbond>
3.9590

> <Gold.PLP.Chemscore.CHOScore>
0.0000

> <Gold.PLP.Chemscore.Metal>
0.0000

> <Gold.Chemscore.Hbonds>
donor molecule, donor type, donor heavy atom, donor atom, acceptor molecule, acceptor atom, score
      L1  H     8    22       P1  8112  0.45
      P1  H  6812  6863       L1    11  0.99
      P1  H  8111  8143       L1     9  0.88
      P1  H  8166  8200       L1    17  0.96

> <Gold.PLP.Chemscore.Internal.Correction>
   9.000000E+99

