#       Name:                CT1002167954
#       Creating user name   hitesit
#       Creation time:       Sun Apr 16 20:32:55 2023


#       File generated by GOLD software.
#

@<TRIPOS>MOLECULE
CT1002167954|ligand_prepared|mol2|1|dock3
    29    30     1
SMALL
NO_CHARGES


@<TRIPOS>ATOM
      1 C1         138.1025 144.0813 166.9749 C.3            1 RES1               0.0000
      2 C2         137.4595 142.9818 166.1053 C.ar           1 RES1               0.0000
      3 C3         139.4895 143.5710 167.3545 C.2            1 RES1               0.0000
      4 C4         138.1165 145.3455 166.1227 C.2            1 RES1               0.0000
      5 C5         137.3201 144.3888 168.2729 C.3            1 RES1               0.0000
      6 C6         137.7245 142.9118 164.7409 C.ar           1 RES1               0.0000
      7 C7         136.6028 142.0304 166.6528 C.ar           1 RES1               0.0000
      8 N8         140.5632 144.1379 166.7334 N.am           1 RES1               0.0000
      9 O9         139.6367 142.6577 168.1573 O.2            1 RES1               0.0000
     10 N10        139.3326 145.8537 165.7477 N.am           1 RES1               0.0000
     11 O11        137.0851 145.8967 165.7585 O.2            1 RES1               0.0000
     12 C12        137.7631 145.6668 168.9677 C.3            1 RES1               0.0000
     13 C13        137.1561 141.9249 163.9528 C.ar           1 RES1               0.0000
     14 C14        136.0353 141.0444 165.8627 C.ar           1 RES1               0.0000
     15 C15        140.5558 145.2899 165.9887 C.2            1 RES1               0.0000
     16 C16        136.3116 140.9903 164.5131 C.ar           1 RES1               0.0000
     17 O17        141.6023 145.7780 165.5719 O.2            1 RES1               0.0000
     18 H18        136.2531 144.4700 168.0312 H              1 RES1               0.0000
     19 H19        137.4436 143.5485 168.9672 H              1 RES1               0.0000
     20 H20        138.3847 143.6401 164.2818 H              1 RES1               0.0000
     21 H21        136.3703 142.0542 167.7120 H              1 RES1               0.0000
     22 H22        141.4539 143.6612 166.8317 H              1 RES1               0.0000
     23 H23        139.3254 146.7339 165.2423 H              1 RES1               0.0000
     24 H24        137.1824 145.8352 169.8722 H              1 RES1               0.0000
     25 H25        138.8137 145.6108 169.2450 H              1 RES1               0.0000
     26 H26        137.6303 146.5268 168.3146 H              1 RES1               0.0000
     27 H27        137.3757 141.8875 162.8909 H              1 RES1               0.0000
     28 H28        135.3707 140.3113 166.3079 H              1 RES1               0.0000
     29 H29        135.8668 140.2170 163.8956 H              1 RES1               0.0000
@<TRIPOS>BOND
    1    1    2 1     
    2    1    3 1     
    3    1    4 1     
    4    1    5 1     
    5    2    6 ar    
    6    2    7 ar    
    7    3    8 1     
    8    3    9 2     
    9    4   10 1     
   10    4   11 2     
   11    5   12 1     
   12    5   18 1     
   13    5   19 1     
   14    6   13 ar    
   15    6   20 1     
   16    7   14 ar    
   17    7   21 1     
   18    8   15 1     
   19    8   22 1     
   20   10   15 1     
   21   10   23 1     
   22   12   24 1     
   23   12   25 1     
   24   12   26 1     
   25   13   16 ar    
   26   13   27 1     
   27   14   16 ar    
   28   14   28 1     
   29   15   17 2     
   30   16   29 1     
@<TRIPOS>SUBSTRUCTURE
      1 RES1           1
@<TRIPOS>SET
DONOR_HYDROGENS      STATIC     ATOMS    <user>   **** ""
2 22 23
ATOM$RED        STATIC     ATOMS    COLORGROUP SYSTEM
2 22 23
@<TRIPOS>COMMENT
> <Gold.Version>
2022.3.0

> <Gold.Id.Protein>
unknown|7rmi_cavity_clean|pdb

> <Gold.Protein.RotatedTorsions>
[ 4998 4979 4980 4981 ] final  114.49 input  111.67 | X-H torsion
[ 5077 5072 5071 5069 ] final   25.95 input   59.98 | X-H torsion
[ 5036 5025 5024 5021 ] final   -0.71 input   60.00 | X-H torsion
[ 5037 5026 5027 5028 ] final -101.45 input  106.27 | X-H torsion
[ 5041 5031 5030 5027 ] final  -13.98 input   60.01 | X-H torsion
[ 5133 5126 5127 5128 ] final  -56.90 input   60.01 | X-H torsion
[ 14305 4982 4981 4980 ] final   13.95 input    0.00 | X-H torsion
[ 14326 5029 5028 5027 ] final  -58.85 input    0.00 | X-H torsion

> <Gold.Protein.ActiveResidues>
 TRP99   VAL100  MET101  CYS103  ALA104  ASP118  ASN119  ILE120  SER122  TYR124 
 LEU126  VAL133  LEU139  HIS142 

> <Gold.Protein.RotatedAtoms>
  134.9657  135.8531  115.8052 H   0  0  0  0  0  0  0  0  0  0  0  0  # atno 4998 bound_to 4979
  155.6755  141.5480  166.3309 H   0  0  0  0  0  0  0  0  0  0  0  0  # atno 5036 bound_to 5025
  138.2095  135.5746  119.9854 H   0  0  0  0  0  0  0  0  0  0  0  0  # atno 5037 bound_to 5026
  134.7671  135.4862  120.2748 H   0  0  0  0  0  0  0  0  0  0  0  0  # atno 5041 bound_to 5031
  157.1204  143.6982  160.1751 H   0  0  0  0  0  0  0  0  0  0  0  0  # atno 5077 bound_to 5072
  161.0368  151.4564  156.2469 H   0  0  0  0  0  0  0  0  0  0  0  0  # atno 5133 bound_to 5126
  159.8080  150.8353  155.3237 H   0  0  0  0  0  0  0  0  0  0  0  0  # atno 5134 bound_to 5126
  134.5996  135.4489  117.4622 LP  0  0  0  0  0  0  0  0  0  0  0  0  # atno 14304 bound_to 4979
  136.8514  132.0280  117.7716 LP  0  0  0  0  0  0  0  0  0  0  0  0  # atno 14305 bound_to 4982
  137.9653  132.9586  118.7168 LP  0  0  0  0  0  0  0  0  0  0  0  0  # atno 14306 bound_to 4982
  155.7225  143.7549  159.3446 LP  0  0  0  0  0  0  0  0  0  0  0  0  # atno 14317 bound_to 5072
  155.7566  143.1222  160.8497 LP  0  0  0  0  0  0  0  0  0  0  0  0  # atno 14318 bound_to 5072
  156.3603  141.8307  164.8813 LP  0  0  0  0  0  0  0  0  0  0  0  0  # atno 14323 bound_to 5025
  154.8879  141.1299  164.9690 LP  0  0  0  0  0  0  0  0  0  0  0  0  # atno 14324 bound_to 5025
  136.5548  135.6003  119.4321 LP  0  0  0  0  0  0  0  0  0  0  0  0  # atno 14325 bound_to 5026
  137.3948  133.5202  123.4189 LP  0  0  0  0  0  0  0  0  0  0  0  0  # atno 14326 bound_to 5029
  135.6922  133.2295  123.5475 LP  0  0  0  0  0  0  0  0  0  0  0  0  # atno 14327 bound_to 5029
  134.1465  136.9568  120.5907 LP  0  0  0  0  0  0  0  0  0  0  0  0  # atno 14328 bound_to 5031
  133.7709  135.6865  121.5457 LP  0  0  0  0  0  0  0  0  0  0  0  0  # atno 14329 bound_to 5031
  159.7488  152.3958  155.8400 LP  0  0  0  0  0  0  0  0  0  0  0  0  # atno 14334 bound_to 5126

> <Gold.Score>
     Fitness  S(hb_ext) S(vdw_ext)  S(hb_int)    S(int)      intcor
     34.90       1.96      24.14       0.00      -0.24      -0.76

> <Gold.Goldscore.Fitness>
34.9038

> <Gold.Goldscore.Internal.Vdw>
-0.3712

> <Gold.Goldscore.Internal.Torsion>
-0.6289

> <Gold.Goldscore.External.Vdw>
24.1385

> <Gold.Goldscore.Internal.HBond>
0.0000

> <Gold.Goldscore.External.HBond>
1.9550

> <Gold.Goldscore.Internal.Correction>
-0.7585

> <Gold.Goldscore.Hbonds>
donor molecule, donor type, donor heavy atom, donor atom, acceptor molecule, acceptor atom, score
      P1  H  4756  4762       L1    17  0.98

> <Gold.Goldscore.Internal.Vdw.Weighted>
-0.3712

> <Gold.Goldscore.Internal.Torsion.Weighted>
-0.6289

> <Gold.Goldscore.External.Vdw.Weighted>
33.1904

> <Gold.Goldscore.Internal.HBond.Weighted>
0.0000

> <Gold.Goldscore.External.HBond.Weighted>
1.9550

> <Gold.Goldscore.Internal.Correction.Weighted>
-0.7585

> <Gold.Rescore>
     Score     S(PLP)   S(hbond)     S(cho)   S(metal)  DE(clash)   DE(tors)     intcor
     25.75     -24.98       0.94       0.00       0.00       0.00       1.03       ----

> <Gold.PLP.Fitness>
25.7541

> <Gold.PLP.PLP>
-24.9791

> <Gold.PLP.part.hbond>
-2.4854

> <Gold.PLP.part.metal>
0.0000

> <Gold.PLP.part.buried>
-3.8715

> <Gold.PLP.part.nonpolar>
-21.3951

> <Gold.PLP.part.repulsive>
0.6376

> <Gold.PLP.ligand.clash>
0.0000

> <Gold.PLP.ligand.torsion>
1.0263

> <Gold.PLP.Chemscore.Hbond>
0.9425

> <Gold.PLP.Chemscore.CHOScore>
0.0000

> <Gold.PLP.Chemscore.Metal>
0.0000

> <Gold.Chemscore.Hbonds>
donor molecule, donor type, donor heavy atom, donor atom, acceptor molecule, acceptor atom, score
      P1  H  4756  4762       L1    17  0.54

> <Gold.PLP.Chemscore.Internal.Correction>
   9.000000E+99

