#       Name:                CT1002167954
#       Creating user name   hitesit
#       Creation time:       Sun Apr 16 20:33:05 2023


#       File generated by GOLD software.
#

@<TRIPOS>MOLECULE
CT1002167954|ligand_prepared|mol2|1|dock7
    29    30     1
SMALL
NO_CHARGES


@<TRIPOS>ATOM
      1 C1         136.6702 141.4964 166.3892 C.3            1 RES1               0.0000
      2 C2         136.4599 142.9054 166.9800 C.ar           1 RES1               0.0000
      3 C3         137.8243 141.6153 165.3981 C.2            1 RES1               0.0000
      4 C4         136.9572 140.5767 167.5709 C.2            1 RES1               0.0000
      5 C5         135.4355 140.9419 165.6411 C.3            1 RES1               0.0000
      6 C6         137.1512 143.3065 168.1193 C.ar           1 RES1               0.0000
      7 C7         135.5815 143.8146 166.3965 C.ar           1 RES1               0.0000
      8 N8         139.0289 141.0920 165.7653 N.am           1 RES1               0.0000
      9 O9         137.6898 142.1943 164.3271 O.2            1 RES1               0.0000
     10 N10        138.2008 140.0073 167.6541 N.am           1 RES1               0.0000
     11 O11        136.1231 140.3533 168.4396 O.2            1 RES1               0.0000
     12 C12        135.5359 139.4624 165.3046 C.3            1 RES1               0.0000
     13 C13        136.9732 144.5717 168.6541 C.ar           1 RES1               0.0000
     14 C14        135.4048 145.0792 166.9331 C.ar           1 RES1               0.0000
     15 C15        139.2596 140.2475 166.8214 C.2            1 RES1               0.0000
     16 C16        136.1003 145.4589 168.0613 C.ar           1 RES1               0.0000
     17 O17        140.3639 139.7392 166.9928 O.2            1 RES1               0.0000
     18 H18        134.5451 141.1034 166.2611 H              1 RES1               0.0000
     19 H19        135.3031 141.5074 164.7105 H              1 RES1               0.0000
     20 H20        137.8405 142.6211 168.6010 H              1 RES1               0.0000
     21 H21        135.0229 143.5372 165.5090 H              1 RES1               0.0000
     22 H22        139.8326 141.3527 165.2028 H              1 RES1               0.0000
     23 H23        138.3511 139.3426 168.4064 H              1 RES1               0.0000
     24 H24        134.6442 139.1246 164.7807 H              1 RES1               0.0000
     25 H25        136.3966 139.2692 164.6678 H              1 RES1               0.0000
     26 H26        135.6431 138.8675 166.2093 H              1 RES1               0.0000
     27 H27        137.5219 144.8651 169.5429 H              1 RES1               0.0000
     28 H28        134.7163 145.7740 166.4636 H              1 RES1               0.0000
     29 H29        135.9613 146.4500 168.4802 H              1 RES1               0.0000
@<TRIPOS>BOND
    1    1    2 1     
    2    1    3 1     
    3    1    4 1     
    4    1    5 1     
    5    2    6 ar    
    6    2    7 ar    
    7    3    8 1     
    8    3    9 2     
    9    4   10 1     
   10    4   11 2     
   11    5   12 1     
   12    5   18 1     
   13    5   19 1     
   14    6   13 ar    
   15    6   20 1     
   16    7   14 ar    
   17    7   21 1     
   18    8   15 1     
   19    8   22 1     
   20   10   15 1     
   21   10   23 1     
   22   12   24 1     
   23   12   25 1     
   24   12   26 1     
   25   13   16 ar    
   26   13   27 1     
   27   14   16 ar    
   28   14   28 1     
   29   15   17 2     
   30   16   29 1     
@<TRIPOS>SUBSTRUCTURE
      1 RES1           1
@<TRIPOS>SET
DONOR_HYDROGENS      STATIC     ATOMS    <user>   **** ""
2 22 23
ATOM$RED        STATIC     ATOMS    COLORGROUP SYSTEM
2 22 23
@<TRIPOS>COMMENT
> <Gold.Version>
2022.3.0

> <Gold.Id.Protein>
unknown|7rmi_cavity_clean|pdb

> <Gold.Protein.RotatedTorsions>
[ 4998 4979 4980 4981 ] final  -70.09 input  111.67 | X-H torsion
[ 5077 5072 5071 5069 ] final  134.91 input   59.98 | X-H torsion
[ 5036 5025 5024 5021 ] final  164.23 input   60.00 | X-H torsion
[ 5037 5026 5027 5028 ] final -153.73 input  106.27 | X-H torsion
[ 5041 5031 5030 5027 ] final  -25.86 input   60.01 | X-H torsion
[ 5133 5126 5127 5128 ] final  -18.09 input   60.01 | X-H torsion
[ 14305 4982 4981 4980 ] final   21.54 input    0.00 | X-H torsion
[ 14326 5029 5028 5027 ] final  177.00 input    0.00 | X-H torsion

> <Gold.Protein.ActiveResidues>
 TRP99   VAL100  MET101  CYS103  ALA104  ASP118  ASN119  ILE120  SER122  TYR124 
 LEU126  VAL133  LEU139  HIS142 

> <Gold.Protein.RotatedAtoms>
  134.5341  135.4234  117.4509 H   0  0  0  0  0  0  0  0  0  0  0  0  # atno 4998 bound_to 4979
  155.3876  141.3576  164.5056 H   0  0  0  0  0  0  0  0  0  0  0  0  # atno 5036 bound_to 5025
  137.8776  136.2723  119.9346 H   0  0  0  0  0  0  0  0  0  0  0  0  # atno 5037 bound_to 5026
  134.7999  135.6481  120.1735 H   0  0  0  0  0  0  0  0  0  0  0  0  # atno 5041 bound_to 5031
  155.9218  143.1284  160.9229 H   0  0  0  0  0  0  0  0  0  0  0  0  # atno 5077 bound_to 5072
  160.8745  150.9108  155.9631 H   0  0  0  0  0  0  0  0  0  0  0  0  # atno 5133 bound_to 5126
  159.4264  151.3418  155.2811 H   0  0  0  0  0  0  0  0  0  0  0  0  # atno 5134 bound_to 5126
  135.0254  135.8728  115.8386 LP  0  0  0  0  0  0  0  0  0  0  0  0  # atno 14304 bound_to 4979
  136.9393  132.0092  117.7004 LP  0  0  0  0  0  0  0  0  0  0  0  0  # atno 14305 bound_to 4982
  137.8774  132.9774  118.7879 LP  0  0  0  0  0  0  0  0  0  0  0  0  # atno 14306 bound_to 4982
  157.1069  143.7641  160.0072 LP  0  0  0  0  0  0  0  0  0  0  0  0  # atno 14317 bound_to 5072
  155.5799  143.6871  159.4336 LP  0  0  0  0  0  0  0  0  0  0  0  0  # atno 14318 bound_to 5072
  155.0660  141.2477  166.0976 LP  0  0  0  0  0  0  0  0  0  0  0  0  # atno 14323 bound_to 5025
  156.4720  141.9046  165.5895 LP  0  0  0  0  0  0  0  0  0  0  0  0  # atno 14324 bound_to 5025
  136.8819  134.9125  119.4822 LP  0  0  0  0  0  0  0  0  0  0  0  0  # atno 14325 bound_to 5026
  136.1578  132.6350  123.2511 LP  0  0  0  0  0  0  0  0  0  0  0  0  # atno 14326 bound_to 5029
  136.9292  134.1147  123.7153 LP  0  0  0  0  0  0  0  0  0  0  0  0  # atno 14327 bound_to 5029
  134.0297  136.9616  120.7470 LP  0  0  0  0  0  0  0  0  0  0  0  0  # atno 14328 bound_to 5031
  133.8547  135.5188  121.4915 LP  0  0  0  0  0  0  0  0  0  0  0  0  # atno 14329 bound_to 5031
  160.2850  152.4340  156.1616 LP  0  0  0  0  0  0  0  0  0  0  0  0  # atno 14334 bound_to 5126

> <Gold.Score>
     Fitness  S(hb_ext) S(vdw_ext)  S(hb_int)    S(int)      intcor
     32.24       0.36      23.48       0.00      -0.41      -0.76

> <Gold.Goldscore.Fitness>
32.2362

> <Gold.Goldscore.Internal.Vdw>
-0.5865

> <Gold.Goldscore.Internal.Torsion>
-0.5772

> <Gold.Goldscore.External.Vdw>
23.4788

> <Gold.Goldscore.Internal.HBond>
0.0000

> <Gold.Goldscore.External.HBond>
0.3580

> <Gold.Goldscore.Internal.Correction>
-0.7585

> <Gold.Goldscore.Hbonds>
donor molecule, donor type, donor heavy atom, donor atom, acceptor molecule, acceptor atom, score
      L1  H     8    22       P1  4728  0.18

> <Gold.Goldscore.Internal.Vdw.Weighted>
-0.5865

> <Gold.Goldscore.Internal.Torsion.Weighted>
-0.5772

> <Gold.Goldscore.External.Vdw.Weighted>
32.2834

> <Gold.Goldscore.Internal.HBond.Weighted>
0.0000

> <Gold.Goldscore.External.HBond.Weighted>
0.3580

> <Gold.Goldscore.Internal.Correction.Weighted>
-0.7585

> <Gold.Rescore>
     Score     S(PLP)   S(hbond)     S(cho)   S(metal)  DE(clash)   DE(tors)     intcor
     29.91     -27.08       1.00       0.00       0.00       0.00       0.08       ----

> <Gold.PLP.Fitness>
29.9119

> <Gold.PLP.PLP>
-27.0794

> <Gold.PLP.part.hbond>
-2.9587

> <Gold.PLP.part.metal>
0.0000

> <Gold.PLP.part.buried>
-4.1468

> <Gold.PLP.part.nonpolar>
-25.0853

> <Gold.PLP.part.repulsive>
3.6080

> <Gold.PLP.ligand.clash>
0.0000

> <Gold.PLP.ligand.torsion>
0.0837

> <Gold.PLP.Chemscore.Hbond>
1.0000

> <Gold.PLP.Chemscore.CHOScore>
0.0000

> <Gold.PLP.Chemscore.Metal>
0.0000

> <Gold.Chemscore.Hbonds>
donor molecule, donor type, donor heavy atom, donor atom, acceptor molecule, acceptor atom, score
      L1  H     8    22       P1  4728  0.37

> <Gold.PLP.Chemscore.Internal.Correction>
   9.000000E+99

