#       Name:                CT1002167954
#       Creating user name   hitesit
#       Creation time:       Sun Apr 16 20:33:12 2023


#       File generated by GOLD software.
#

@<TRIPOS>MOLECULE
CT1002167954|ligand_prepared|mol2|1|dock10
    29    30     1
SMALL
NO_CHARGES


@<TRIPOS>ATOM
      1 C1         137.8802 144.7803 166.2592 C.3            1 RES1               0.0000
      2 C2         137.7907 146.1546 165.5649 C.ar           1 RES1               0.0000
      3 C3         136.6370 144.0040 165.8346 C.2            1 RES1               0.0000
      4 C4         139.1919 144.1543 165.7986 C.2            1 RES1               0.0000
      5 C5         137.9054 144.8608 167.8033 C.3            1 RES1               0.0000
      6 C6         138.2273 146.3157 164.2534 C.ar           1 RES1               0.0000
      7 C7         137.2724 147.2679 166.2210 C.ar           1 RES1               0.0000
      8 N8         136.7998 142.9953 164.9313 N.am           1 RES1               0.0000
      9 O9         135.5251 144.2983 166.2558 O.2            1 RES1               0.0000
     10 N10        139.1278 143.0227 165.0285 N.am           1 RES1               0.0000
     11 O11        140.2800 144.6402 166.0818 O.2            1 RES1               0.0000
     12 C12        138.3129 143.5607 168.4785 C.3            1 RES1               0.0000
     13 C13        138.1460 147.5446 163.6196 C.ar           1 RES1               0.0000
     14 C14        137.1922 148.4960 165.5854 C.ar           1 RES1               0.0000
     15 C15        137.9907 142.4323 164.5484 C.2            1 RES1               0.0000
     16 C16        137.6281 148.6353 164.2849 C.ar           1 RES1               0.0000
     17 O17        138.0159 141.4475 163.8159 O.2            1 RES1               0.0000
     18 H18        138.6057 145.6497 168.1044 H              1 RES1               0.0000
     19 H19        136.9072 145.1452 168.1584 H              1 RES1               0.0000
     20 H20        138.6401 145.4693 163.7146 H              1 RES1               0.0000
     21 H21        136.9245 147.1821 167.2448 H              1 RES1               0.0000
     22 H22        135.9584 142.6255 164.5007 H              1 RES1               0.0000
     23 H23        140.0095 142.5792 164.7913 H              1 RES1               0.0000
     24 H24        138.3143 143.6721 169.5608 H              1 RES1               0.0000
     25 H25        137.6231 142.7597 168.2211 H              1 RES1               0.0000
     26 H26        139.3116 143.2611 168.1674 H              1 RES1               0.0000
     27 H27        138.4917 147.6493 162.5965 H              1 RES1               0.0000
     28 H28        136.7845 149.3519 166.1131 H              1 RES1               0.0000
     29 H29        137.5642 149.5977 163.7881 H              1 RES1               0.0000
@<TRIPOS>BOND
    1    1    2 1     
    2    1    3 1     
    3    1    4 1     
    4    1    5 1     
    5    2    6 ar    
    6    2    7 ar    
    7    3    8 1     
    8    3    9 2     
    9    4   10 1     
   10    4   11 2     
   11    5   12 1     
   12    5   18 1     
   13    5   19 1     
   14    6   13 ar    
   15    6   20 1     
   16    7   14 ar    
   17    7   21 1     
   18    8   15 1     
   19    8   22 1     
   20   10   15 1     
   21   10   23 1     
   22   12   24 1     
   23   12   25 1     
   24   12   26 1     
   25   13   16 ar    
   26   13   27 1     
   27   14   16 ar    
   28   14   28 1     
   29   15   17 2     
   30   16   29 1     
@<TRIPOS>SUBSTRUCTURE
      1 RES1           1
@<TRIPOS>SET
DONOR_HYDROGENS      STATIC     ATOMS    <user>   **** ""
2 22 23
ATOM$RED        STATIC     ATOMS    COLORGROUP SYSTEM
2 22 23
@<TRIPOS>COMMENT
> <Gold.Version>
2022.3.0

> <Gold.Id.Protein>
unknown|7rmi_cavity_clean|pdb

> <Gold.Protein.RotatedTorsions>
[ 4998 4979 4980 4981 ] final  -43.62 input  111.67 | X-H torsion
[ 5077 5072 5071 5069 ] final  153.66 input   59.98 | X-H torsion
[ 5036 5025 5024 5021 ] final   26.78 input   60.00 | X-H torsion
[ 5037 5026 5027 5028 ] final -153.26 input  106.27 | X-H torsion
[ 5041 5031 5030 5027 ] final  -46.77 input   60.01 | X-H torsion
[ 5133 5126 5127 5128 ] final   52.60 input   60.01 | X-H torsion
[ 14305 4982 4981 4980 ] final -129.60 input    0.00 | X-H torsion
[ 14326 5029 5028 5027 ] final   62.17 input    0.00 | X-H torsion

> <Gold.Protein.ActiveResidues>
 TRP99   VAL100  MET101  CYS103  ALA104  ASP118  ASN119  ILE120  SER122  TYR124 
 LEU126  VAL133  LEU139  HIS142 

> <Gold.Protein.RotatedAtoms>
  134.8830  135.6137  117.5108 H   0  0  0  0  0  0  0  0  0  0  0  0  # atno 4998 bound_to 4979
  155.2816  141.3574  166.2484 H   0  0  0  0  0  0  0  0  0  0  0  0  # atno 5036 bound_to 5025
  137.8831  136.2678  119.9360 H   0  0  0  0  0  0  0  0  0  0  0  0  # atno 5037 bound_to 5026
  134.7982  135.9693  120.0627 H   0  0  0  0  0  0  0  0  0  0  0  0  # atno 5041 bound_to 5031
  155.6555  143.1354  160.7749 H   0  0  0  0  0  0  0  0  0  0  0  0  # atno 5077 bound_to 5072
  159.9507  150.7466  155.3747 H   0  0  0  0  0  0  0  0  0  0  0  0  # atno 5133 bound_to 5126
  159.6230  152.3302  155.7391 H   0  0  0  0  0  0  0  0  0  0  0  0  # atno 5134 bound_to 5126
  134.6811  135.6851  115.7795 LP  0  0  0  0  0  0  0  0  0  0  0  0  # atno 14304 bound_to 4979
  137.4830  132.9704  118.9631 LP  0  0  0  0  0  0  0  0  0  0  0  0  # atno 14305 bound_to 4982
  137.3337  132.0162  117.5253 LP  0  0  0  0  0  0  0  0  0  0  0  0  # atno 14306 bound_to 4982
  157.1220  143.6469  160.2906 LP  0  0  0  0  0  0  0  0  0  0  0  0  # atno 14317 bound_to 5072
  155.8330  143.7973  159.2994 LP  0  0  0  0  0  0  0  0  0  0  0  0  # atno 14318 bound_to 5072
  156.4894  141.9046  165.3041 LP  0  0  0  0  0  0  0  0  0  0  0  0  # atno 14323 bound_to 5025
  155.1553  141.2478  164.6292 LP  0  0  0  0  0  0  0  0  0  0  0  0  # atno 14324 bound_to 5025
  136.8766  134.9170  119.4808 LP  0  0  0  0  0  0  0  0  0  0  0  0  # atno 14325 bound_to 5026
  136.0093  133.9815  123.7940 LP  0  0  0  0  0  0  0  0  0  0  0  0  # atno 14326 bound_to 5029
  137.0777  132.7682  123.1724 LP  0  0  0  0  0  0  0  0  0  0  0  0  # atno 14327 bound_to 5029
  133.8477  136.8751  121.0235 LP  0  0  0  0  0  0  0  0  0  0  0  0  # atno 14328 bound_to 5031
  134.0384  135.2818  121.3265 LP  0  0  0  0  0  0  0  0  0  0  0  0  # atno 14329 bound_to 5031
  161.0014  151.6216  156.2898 LP  0  0  0  0  0  0  0  0  0  0  0  0  # atno 14334 bound_to 5126

> <Gold.Score>
     Fitness  S(hb_ext) S(vdw_ext)  S(hb_int)    S(int)      intcor
     35.07       1.34      24.71       0.00      -0.26      -0.76

> <Gold.Goldscore.Fitness>
35.0653

> <Gold.Goldscore.Internal.Vdw>
-0.3754

> <Gold.Goldscore.Internal.Torsion>
-0.6405

> <Gold.Goldscore.External.Vdw>
24.7111

> <Gold.Goldscore.Internal.HBond>
0.0000

> <Gold.Goldscore.External.HBond>
1.3450

> <Gold.Goldscore.Internal.Correction>
-0.7585

> <Gold.Goldscore.Hbonds>
donor molecule, donor type, donor heavy atom, donor atom, acceptor molecule, acceptor atom, score
      L1  H    10    23       P1  4728  0.67

> <Gold.Goldscore.Internal.Vdw.Weighted>
-0.3754

> <Gold.Goldscore.Internal.Torsion.Weighted>
-0.6405

> <Gold.Goldscore.External.Vdw.Weighted>
33.9778

> <Gold.Goldscore.Internal.HBond.Weighted>
0.0000

> <Gold.Goldscore.External.HBond.Weighted>
1.3450

> <Gold.Goldscore.Internal.Correction.Weighted>
-0.7585

> <Gold.Rescore>
     Score     S(PLP)   S(hbond)     S(cho)   S(metal)  DE(clash)   DE(tors)     intcor
     17.75     -18.29       0.00       0.00       0.00       0.00       0.27       ----

> <Gold.PLP.Fitness>
17.7533

> <Gold.PLP.PLP>
-18.2851

> <Gold.PLP.part.hbond>
-1.9894

> <Gold.PLP.part.metal>
0.0000

> <Gold.PLP.part.buried>
3.2629

> <Gold.PLP.part.nonpolar>
-22.1971

> <Gold.PLP.part.repulsive>
1.8588

> <Gold.PLP.ligand.clash>
0.0000

> <Gold.PLP.ligand.torsion>
0.2659

> <Gold.PLP.Chemscore.Hbond>
0.0000

> <Gold.PLP.Chemscore.CHOScore>
0.0000

> <Gold.PLP.Chemscore.Metal>
0.0000

> <Gold.Chemscore.Hbonds>
donor molecule, donor type, donor heavy atom, donor atom, acceptor molecule, acceptor atom, score
      L1  H    10    23       P1  4728  0.11

> <Gold.PLP.Chemscore.Internal.Correction>
   9.000000E+99

