#       Name:                CT1002167954
#       Creating user name   hitesit
#       Creation time:       Sun Apr 16 20:33:07 2023


#       File generated by GOLD software.
#

@<TRIPOS>MOLECULE
CT1002167954|ligand_prepared|mol2|1|dock8
    29    30     1
SMALL
NO_CHARGES


@<TRIPOS>ATOM
      1 C1         137.3668 142.3723 165.8269 C.3            1 RES1               0.0000
      2 C2         137.1870 143.7453 166.5060 C.ar           1 RES1               0.0000
      3 C3         138.6506 142.4644 165.0074 C.2            1 RES1               0.0000
      4 C4         137.4189 141.3438 166.9512 C.2            1 RES1               0.0000
      5 C5         136.2064 141.9868 164.8802 C.3            1 RES1               0.0000
      6 C6         135.9156 144.2698 166.7184 C.ar           1 RES1               0.0000
      7 C7         138.2810 144.4966 166.9272 C.ar           1 RES1               0.0000
      8 N8         139.7503 141.8110 165.4803 N.am           1 RES1               0.0000
      9 O9         138.7079 143.1328 163.9826 O.2            1 RES1               0.0000
     10 N10        138.5921 140.6627 167.1446 N.am           1 RES1               0.0000
     11 O11        136.4598 141.1290 167.6821 O.2            1 RES1               0.0000
     12 C12        136.5261 140.8168 163.9631 C.3            1 RES1               0.0000
     13 C13        135.7438 145.4994 167.3323 C.ar           1 RES1               0.0000
     14 C14        138.1070 145.7262 167.5408 C.ar           1 RES1               0.0000
     15 C15        139.7697 140.8717 166.4798 C.2            1 RES1               0.0000
     16 C16        136.8392 146.2282 167.7442 C.ar           1 RES1               0.0000
     17 O17        140.7980 140.2568 166.7475 O.2            1 RES1               0.0000
     18 H18        135.3273 141.7316 165.4848 H              1 RES1               0.0000
     19 H19        135.9486 142.8575 164.2647 H              1 RES1               0.0000
     20 H20        135.0418 143.7118 166.3987 H              1 RES1               0.0000
     21 H21        139.2878 144.1220 166.7766 H              1 RES1               0.0000
     22 H22        140.6406 142.0422 165.0511 H              1 RES1               0.0000
     23 H23        138.5872 139.9321 167.8492 H              1 RES1               0.0000
     24 H24        135.6788 140.5878 163.3203 H              1 RES1               0.0000
     25 H25        137.3803 141.0457 163.3292 H              1 RES1               0.0000
     26 H26        136.7627 139.9264 164.5420 H              1 RES1               0.0000
     27 H27        134.7440 145.8907 167.4888 H              1 RES1               0.0000
     28 H28        138.9720 146.2965 167.8628 H              1 RES1               0.0000
     29 H29        136.7043 147.1912 168.2255 H              1 RES1               0.0000
@<TRIPOS>BOND
    1    1    2 1     
    2    1    3 1     
    3    1    4 1     
    4    1    5 1     
    5    2    6 ar    
    6    2    7 ar    
    7    3    8 1     
    8    3    9 2     
    9    4   10 1     
   10    4   11 2     
   11    5   12 1     
   12    5   18 1     
   13    5   19 1     
   14    6   13 ar    
   15    6   20 1     
   16    7   14 ar    
   17    7   21 1     
   18    8   15 1     
   19    8   22 1     
   20   10   15 1     
   21   10   23 1     
   22   12   24 1     
   23   12   25 1     
   24   12   26 1     
   25   13   16 ar    
   26   13   27 1     
   27   14   16 ar    
   28   14   28 1     
   29   15   17 2     
   30   16   29 1     
@<TRIPOS>SUBSTRUCTURE
      1 RES1           1
@<TRIPOS>SET
DONOR_HYDROGENS      STATIC     ATOMS    <user>   **** ""
2 22 23
ATOM$RED        STATIC     ATOMS    COLORGROUP SYSTEM
2 22 23
@<TRIPOS>COMMENT
> <Gold.Version>
2022.3.0

> <Gold.Id.Protein>
unknown|7rmi_cavity_clean|pdb

> <Gold.Protein.RotatedTorsions>
[ 4998 4979 4980 4981 ] final   41.44 input  111.67 | X-H torsion
[ 5077 5072 5071 5069 ] final -137.60 input   59.98 | X-H torsion
[ 5036 5025 5024 5021 ] final -103.68 input   60.00 | X-H torsion
[ 5037 5026 5027 5028 ] final  -69.36 input  106.27 | X-H torsion
[ 5041 5031 5030 5027 ] final   90.18 input   60.01 | X-H torsion
[ 5133 5126 5127 5128 ] final   80.06 input   60.01 | X-H torsion
[ 14305 4982 4981 4980 ] final   82.58 input    0.00 | X-H torsion
[ 14326 5029 5028 5027 ] final  -28.02 input    0.00 | X-H torsion

> <Gold.Protein.ActiveResidues>
 TRP99   VAL100  MET101  CYS103  ALA104  ASP118  ASN119  ILE120  SER122  TYR124 
 LEU126  VAL133  LEU139  HIS142 

> <Gold.Protein.RotatedAtoms>
  135.5440  136.0849  116.6446 H   0  0  0  0  0  0  0  0  0  0  0  0  # atno 4998 bound_to 4979
  156.4561  141.8863  165.1369 H   0  0  0  0  0  0  0  0  0  0  0  0  # atno 5036 bound_to 5025
  138.0884  135.1116  119.9026 H   0  0  0  0  0  0  0  0  0  0  0  0  # atno 5037 bound_to 5026
  133.8912  135.4724  121.4639 H   0  0  0  0  0  0  0  0  0  0  0  0  # atno 5041 bound_to 5031
  155.3153  143.4654  159.8306 H   0  0  0  0  0  0  0  0  0  0  0  0  # atno 5077 bound_to 5072
  159.6073  151.0271  155.2752 H   0  0  0  0  0  0  0  0  0  0  0  0  # atno 5133 bound_to 5126
  159.9711  152.4775  155.9907 H   0  0  0  0  0  0  0  0  0  0  0  0  # atno 5134 bound_to 5126
  134.0290  135.2202  116.6342 LP  0  0  0  0  0  0  0  0  0  0  0  0  # atno 14304 bound_to 4979
  137.7907  132.1626  117.5410 LP  0  0  0  0  0  0  0  0  0  0  0  0  # atno 14305 bound_to 4982
  137.0260  132.8240  118.9474 LP  0  0  0  0  0  0  0  0  0  0  0  0  # atno 14306 bound_to 4982
  156.4383  143.2102  160.9798 LP  0  0  0  0  0  0  0  0  0  0  0  0  # atno 14317 bound_to 5072
  156.8595  143.9016  159.5616 LP  0  0  0  0  0  0  0  0  0  0  0  0  # atno 14318 bound_to 5072
  155.0366  141.1944  164.7415 LP  0  0  0  0  0  0  0  0  0  0  0  0  # atno 14323 bound_to 5025
  155.4261  141.4258  166.3104 LP  0  0  0  0  0  0  0  0  0  0  0  0  # atno 14324 bound_to 5025
  136.6741  136.0568  119.5137 LP  0  0  0  0  0  0  0  0  0  0  0  0  # atno 14325 bound_to 5026
  137.2174  133.9073  123.5940 LP  0  0  0  0  0  0  0  0  0  0  0  0  # atno 14326 bound_to 5029
  135.8696  132.8424  123.3723 LP  0  0  0  0  0  0  0  0  0  0  0  0  # atno 14327 bound_to 5029
  134.8071  135.7029  120.1390 LP  0  0  0  0  0  0  0  0  0  0  0  0  # atno 14328 bound_to 5031
  133.9924  136.9544  120.8000 LP  0  0  0  0  0  0  0  0  0  0  0  0  # atno 14329 bound_to 5031
  160.9965  151.2000  156.1398 LP  0  0  0  0  0  0  0  0  0  0  0  0  # atno 14334 bound_to 5126

> <Gold.Score>
     Fitness  S(hb_ext) S(vdw_ext)  S(hb_int)    S(int)      intcor
     31.91       0.46      23.39       0.00      -0.72      -0.76

> <Gold.Goldscore.Fitness>
31.9061

> <Gold.Goldscore.Internal.Vdw>
-0.7975

> <Gold.Goldscore.Internal.Torsion>
-0.6776

> <Gold.Goldscore.External.Vdw>
23.3915

> <Gold.Goldscore.Internal.HBond>
0.0000

> <Gold.Goldscore.External.HBond>
0.4594

> <Gold.Goldscore.Internal.Correction>
-0.7585

> <Gold.Goldscore.Hbonds>
donor molecule, donor type, donor heavy atom, donor atom, acceptor molecule, acceptor atom, score
      L1  H     8    22       P1  4728  0.23

> <Gold.Goldscore.Internal.Vdw.Weighted>
-0.7975

> <Gold.Goldscore.Internal.Torsion.Weighted>
-0.6776

> <Gold.Goldscore.External.Vdw.Weighted>
32.1633

> <Gold.Goldscore.Internal.HBond.Weighted>
0.0000

> <Gold.Goldscore.External.HBond.Weighted>
0.4594

> <Gold.Goldscore.Internal.Correction.Weighted>
-0.7585

> <Gold.Rescore>
     Score     S(PLP)   S(hbond)     S(cho)   S(metal)  DE(clash)   DE(tors)     intcor
     27.54     -26.82       1.00       0.00       0.00       0.00       1.14       ----

> <Gold.PLP.Fitness>
27.5387

> <Gold.PLP.PLP>
-26.8219

> <Gold.PLP.part.hbond>
-3.2397

> <Gold.PLP.part.metal>
0.0000

> <Gold.PLP.part.buried>
-3.5440

> <Gold.PLP.part.nonpolar>
-25.6784

> <Gold.PLP.part.repulsive>
4.0032

> <Gold.PLP.ligand.clash>
0.0000

> <Gold.PLP.ligand.torsion>
1.1416

> <Gold.PLP.Chemscore.Hbond>
1.0000

> <Gold.PLP.Chemscore.CHOScore>
0.0000

> <Gold.PLP.Chemscore.Metal>
0.0000

> <Gold.Chemscore.Hbonds>
donor molecule, donor type, donor heavy atom, donor atom, acceptor molecule, acceptor atom, score
      L1  H     8    22       P1  4728  0.80

> <Gold.PLP.Chemscore.Internal.Correction>
   9.000000E+99

