#       Name:                CT1002167954
#       Creating user name   hitesit
#       Creation time:       Sun Apr 16 20:33:00 2023


#       File generated by GOLD software.
#

@<TRIPOS>MOLECULE
CT1002167954|ligand_prepared|mol2|1|dock5
    29    30     1
SMALL
NO_CHARGES


@<TRIPOS>ATOM
      1 C1         136.5875 146.7242 166.8882 C.3            1 RES1               0.0000
      2 C2         137.0243 147.9383 166.0432 C.ar           1 RES1               0.0000
      3 C3         137.7614 146.3965 167.8063 C.2            1 RES1               0.0000
      4 C4         135.3219 147.1498 167.6242 C.2            1 RES1               0.0000
      5 C5         136.2534 145.4678 166.0506 C.3            1 RES1               0.0000
      6 C6         137.4449 149.1143 166.6571 C.ar           1 RES1               0.0000
      7 C7         137.0146 147.8966 164.6516 C.ar           1 RES1               0.0000
      8 N8         137.6412 146.7206 169.1256 N.am           1 RES1               0.0000
      9 O9         138.7923 145.8976 167.3721 O.2            1 RES1               0.0000
     10 N10        135.3750 147.2454 168.9902 N.am           1 RES1               0.0000
     11 O11        134.2839 147.4193 167.0324 O.2            1 RES1               0.0000
     12 C12        135.9686 144.2308 166.8878 C.3            1 RES1               0.0000
     13 C13        137.8443 150.2080 165.9070 C.ar           1 RES1               0.0000
     14 C14        137.4141 148.9915 163.9033 C.ar           1 RES1               0.0000
     15 C15        136.4858 147.0799 169.7718 C.2            1 RES1               0.0000
     16 C16        137.8295 150.1473 164.5297 C.ar           1 RES1               0.0000
     17 O17        136.4667 147.2362 170.9893 O.2            1 RES1               0.0000
     18 H18        135.3765 145.6819 165.4273 H              1 RES1               0.0000
     19 H19        137.0964 145.2550 165.3817 H              1 RES1               0.0000
     20 H20        137.4609 149.1816 167.7398 H              1 RES1               0.0000
     21 H21        136.6906 146.9982 164.1372 H              1 RES1               0.0000
     22 H22        138.4889 146.6933 169.6832 H              1 RES1               0.0000
     23 H23        134.5058 147.4598 169.4687 H              1 RES1               0.0000
     24 H24        135.7402 143.3785 166.2513 H              1 RES1               0.0000
     25 H25        136.8293 143.9740 167.5019 H              1 RES1               0.0000
     26 H26        135.1196 144.3984 167.5472 H              1 RES1               0.0000
     27 H27        138.1690 151.1157 166.4048 H              1 RES1               0.0000
     28 H28        137.4003 148.9395 162.8196 H              1 RES1               0.0000
     29 H29        138.1427 151.0040 163.9423 H              1 RES1               0.0000
@<TRIPOS>BOND
    1    1    2 1     
    2    1    3 1     
    3    1    4 1     
    4    1    5 1     
    5    2    6 ar    
    6    2    7 ar    
    7    3    8 1     
    8    3    9 2     
    9    4   10 1     
   10    4   11 2     
   11    5   12 1     
   12    5   18 1     
   13    5   19 1     
   14    6   13 ar    
   15    6   20 1     
   16    7   14 ar    
   17    7   21 1     
   18    8   15 1     
   19    8   22 1     
   20   10   15 1     
   21   10   23 1     
   22   12   24 1     
   23   12   25 1     
   24   12   26 1     
   25   13   16 ar    
   26   13   27 1     
   27   14   16 ar    
   28   14   28 1     
   29   15   17 2     
   30   16   29 1     
@<TRIPOS>SUBSTRUCTURE
      1 RES1           1
@<TRIPOS>SET
DONOR_HYDROGENS      STATIC     ATOMS    <user>   **** ""
2 22 23
ATOM$RED        STATIC     ATOMS    COLORGROUP SYSTEM
2 22 23
@<TRIPOS>COMMENT
> <Gold.Version>
2022.3.0

> <Gold.Id.Protein>
unknown|7rmi_cavity_clean|pdb

> <Gold.Protein.RotatedTorsions>
[ 4998 4979 4980 4981 ] final  118.31 input  111.67 | X-H torsion
[ 5077 5072 5071 5069 ] final -179.00 input   59.98 | X-H torsion
[ 5036 5025 5024 5021 ] final   53.62 input   60.00 | X-H torsion
[ 5037 5026 5027 5028 ] final  120.93 input  106.27 | X-H torsion
[ 5041 5031 5030 5027 ] final  135.23 input   60.01 | X-H torsion
[ 5133 5126 5127 5128 ] final  -94.18 input   60.01 | X-H torsion
[ 14305 4982 4981 4980 ] final  -80.40 input    0.00 | X-H torsion
[ 14326 5029 5028 5027 ] final   17.83 input    0.00 | X-H torsion

> <Gold.Protein.ActiveResidues>
 TRP99   VAL100  MET101  CYS103  ALA104  ASP118  ASN119  ILE120  SER122  TYR124 
 LEU126  VAL133  LEU139  HIS142 

> <Gold.Protein.RotatedAtoms>
  134.9158  135.8266  115.7898 H   0  0  0  0  0  0  0  0  0  0  0  0  # atno 4998 bound_to 4979
  154.9747  141.2031  165.9818 H   0  0  0  0  0  0  0  0  0  0  0  0  # atno 5036 bound_to 5025
  136.7555  136.1879  119.5440 H   0  0  0  0  0  0  0  0  0  0  0  0  # atno 5037 bound_to 5026
  133.6604  136.1472  121.5383 H   0  0  0  0  0  0  0  0  0  0  0  0  # atno 5041 bound_to 5031
  155.3772  143.2188  160.4412 H   0  0  0  0  0  0  0  0  0  0  0  0  # atno 5077 bound_to 5072
  160.8428  152.0298  156.3354 H   0  0  0  0  0  0  0  0  0  0  0  0  # atno 5133 bound_to 5126
  160.3390  150.6513  155.5648 H   0  0  0  0  0  0  0  0  0  0  0  0  # atno 5134 bound_to 5126
  134.6488  135.4750  117.4774 LP  0  0  0  0  0  0  0  0  0  0  0  0  # atno 14304 bound_to 4979
  136.8239  132.7011  118.8486 LP  0  0  0  0  0  0  0  0  0  0  0  0  # atno 14305 bound_to 4982
  137.9928  132.2855  117.6398 LP  0  0  0  0  0  0  0  0  0  0  0  0  # atno 14306 bound_to 4982
  156.9712  143.4563  160.6643 LP  0  0  0  0  0  0  0  0  0  0  0  0  # atno 14317 bound_to 5072
  156.2642  143.9039  159.2619 LP  0  0  0  0  0  0  0  0  0  0  0  0  # atno 14318 bound_to 5072
  156.4306  141.8891  165.7374 LP  0  0  0  0  0  0  0  0  0  0  0  0  # atno 14323 bound_to 5025
  155.5228  141.4186  164.4642 LP  0  0  0  0  0  0  0  0  0  0  0  0  # atno 14324 bound_to 5025
  137.9881  134.9957  119.8672 LP  0  0  0  0  0  0  0  0  0  0  0  0  # atno 14325 bound_to 5026
  136.6313  134.1823  123.7837 LP  0  0  0  0  0  0  0  0  0  0  0  0  # atno 14326 bound_to 5029
  136.4558  132.5674  123.1827 LP  0  0  0  0  0  0  0  0  0  0  0  0  # atno 14327 bound_to 5029
  134.5939  135.1950  120.6060 LP  0  0  0  0  0  0  0  0  0  0  0  0  # atno 14328 bound_to 5031
  134.4379  136.7828  120.2581 LP  0  0  0  0  0  0  0  0  0  0  0  0  # atno 14329 bound_to 5031
  159.4166  152.0122  155.5151 LP  0  0  0  0  0  0  0  0  0  0  0  0  # atno 14334 bound_to 5126

> <Gold.Score>
     Fitness  S(hb_ext) S(vdw_ext)  S(hb_int)    S(int)      intcor
     36.81       0.00      26.98       0.00      -0.29      -0.76

> <Gold.Goldscore.Fitness>
36.8069

> <Gold.Goldscore.Internal.Vdw>
-0.6170

> <Gold.Goldscore.Internal.Torsion>
-0.4318

> <Gold.Goldscore.External.Vdw>
26.9797

> <Gold.Goldscore.Internal.HBond>
0.0000

> <Gold.Goldscore.External.HBond>
0.0000

> <Gold.Goldscore.Internal.Correction>
-0.7585

> <Gold.Goldscore.Internal.Vdw.Weighted>
-0.6170

> <Gold.Goldscore.Internal.Torsion.Weighted>
-0.4318

> <Gold.Goldscore.External.Vdw.Weighted>
37.0971

> <Gold.Goldscore.Internal.HBond.Weighted>
0.0000

> <Gold.Goldscore.External.HBond.Weighted>
0.0000

> <Gold.Goldscore.Internal.Correction.Weighted>
-0.7585

> <Gold.Rescore>
     Score     S(PLP)   S(hbond)     S(cho)   S(metal)  DE(clash)   DE(tors)     intcor
     18.83     -19.08       0.00       0.00       0.00       0.00       0.13       ----

> <Gold.PLP.Fitness>
18.8320

> <Gold.PLP.PLP>
-19.0824

> <Gold.PLP.part.hbond>
-1.9297

> <Gold.PLP.part.metal>
0.0000

> <Gold.PLP.part.buried>
1.3157

> <Gold.PLP.part.nonpolar>
-20.2467

> <Gold.PLP.part.repulsive>
0.5403

> <Gold.PLP.ligand.clash>
0.0000

> <Gold.PLP.ligand.torsion>
0.1252

> <Gold.PLP.Chemscore.Hbond>
0.0000

> <Gold.PLP.Chemscore.CHOScore>
0.0000

> <Gold.PLP.Chemscore.Metal>
0.0000

> <Gold.PLP.Chemscore.Internal.Correction>
   9.000000E+99

