#       Name:                CT1002167954
#       Creating user name   hitesit
#       Creation time:       Sun Apr 16 20:32:58 2023


#       File generated by GOLD software.
#

@<TRIPOS>MOLECULE
CT1002167954|ligand_prepared|mol2|1|dock4
    29    30     1
SMALL
NO_CHARGES


@<TRIPOS>ATOM
      1 C1         138.0457 145.1370 165.7106 C.3            1 RES1               0.0000
      2 C2         137.0961 145.9792 166.5868 C.ar           1 RES1               0.0000
      3 C3         138.7181 146.1117 164.7482 C.2            1 RES1               0.0000
      4 C4         139.0088 144.4448 166.6688 C.2            1 RES1               0.0000
      5 C5         137.3285 144.0454 164.8827 C.3            1 RES1               0.0000
      6 C6         135.8304 146.3292 166.1260 C.ar           1 RES1               0.0000
      7 C7         137.4700 146.4106 167.8567 C.ar           1 RES1               0.0000
      8 N8         140.0248 146.4268 164.9785 N.am           1 RES1               0.0000
      9 O9         138.0999 146.6265 163.8246 O.2            1 RES1               0.0000
     10 N10        140.3329 144.7929 166.6111 N.am           1 RES1               0.0000
     11 O11        138.6303 143.6133 167.4846 O.2            1 RES1               0.0000
     12 C12        138.2672 142.9972 164.3062 C.3            1 RES1               0.0000
     13 C13        134.9685 147.0806 166.9076 C.ar           1 RES1               0.0000
     14 C14        136.6066 147.1621 168.6366 C.ar           1 RES1               0.0000
     15 C15        140.8796 145.7747 165.8305 C.2            1 RES1               0.0000
     16 C16        135.3558 147.4971 168.1634 C.ar           1 RES1               0.0000
     17 O17        142.0712 146.0670 165.8740 O.2            1 RES1               0.0000
     18 H18        136.5906 143.5451 165.5221 H              1 RES1               0.0000
     19 H19        136.7870 144.5259 164.0586 H              1 RES1               0.0000
     20 H20        135.5092 146.0124 165.1393 H              1 RES1               0.0000
     21 H21        138.4496 146.1598 168.2492 H              1 RES1               0.0000
     22 H22        140.4013 147.2207 164.4703 H              1 RES1               0.0000
     23 H23        140.9701 144.2717 167.2050 H              1 RES1               0.0000
     24 H24        137.7130 142.2556 163.7347 H              1 RES1               0.0000
     25 H25        138.9991 143.4568 163.6451 H              1 RES1               0.0000
     26 H26        138.8039 142.4817 165.1000 H              1 RES1               0.0000
     27 H27        133.9857 147.3427 166.5300 H              1 RES1               0.0000
     28 H28        136.9158 147.4884 169.6241 H              1 RES1               0.0000
     29 H29        134.6802 148.0854 168.7756 H              1 RES1               0.0000
@<TRIPOS>BOND
    1    1    2 1     
    2    1    3 1     
    3    1    4 1     
    4    1    5 1     
    5    2    6 ar    
    6    2    7 ar    
    7    3    8 1     
    8    3    9 2     
    9    4   10 1     
   10    4   11 2     
   11    5   12 1     
   12    5   18 1     
   13    5   19 1     
   14    6   13 ar    
   15    6   20 1     
   16    7   14 ar    
   17    7   21 1     
   18    8   15 1     
   19    8   22 1     
   20   10   15 1     
   21   10   23 1     
   22   12   24 1     
   23   12   25 1     
   24   12   26 1     
   25   13   16 ar    
   26   13   27 1     
   27   14   16 ar    
   28   14   28 1     
   29   15   17 2     
   30   16   29 1     
@<TRIPOS>SUBSTRUCTURE
      1 RES1           1
@<TRIPOS>SET
DONOR_HYDROGENS      STATIC     ATOMS    <user>   **** ""
2 22 23
ATOM$RED        STATIC     ATOMS    COLORGROUP SYSTEM
2 22 23
@<TRIPOS>COMMENT
> <Gold.Version>
2022.3.0

> <Gold.Id.Protein>
unknown|7rmi_cavity_clean|pdb

> <Gold.Protein.RotatedTorsions>
[ 4998 4979 4980 4981 ] final  -88.16 input  111.67 | X-H torsion
[ 5077 5072 5071 5069 ] final   56.56 input   59.98 | X-H torsion
[ 5036 5025 5024 5021 ] final   24.64 input   60.00 | X-H torsion
[ 5037 5026 5027 5028 ] final -148.84 input  106.27 | X-H torsion
[ 5041 5031 5030 5027 ] final   44.13 input   60.01 | X-H torsion
[ 5133 5126 5127 5128 ] final   95.70 input   60.01 | X-H torsion
[ 14305 4982 4981 4980 ] final   18.38 input    0.00 | X-H torsion
[ 14326 5029 5028 5027 ] final -112.90 input    0.00 | X-H torsion

> <Gold.Protein.ActiveResidues>
 TRP99   VAL100  MET101  CYS103  ALA104  ASP118  ASN119  ILE120  SER122  TYR124 
 LEU126  VAL133  LEU139  HIS142 

> <Gold.Protein.RotatedAtoms>
  134.3211  135.3190  117.3100 H   0  0  0  0  0  0  0  0  0  0  0  0  # atno 4998 bound_to 4979
  155.3105  141.3716  166.2623 H   0  0  0  0  0  0  0  0  0  0  0  0  # atno 5036 bound_to 5025
  137.9325  136.2232  119.9489 H   0  0  0  0  0  0  0  0  0  0  0  0  # atno 5037 bound_to 5026
  134.3314  135.1303  120.9891 H   0  0  0  0  0  0  0  0  0  0  0  0  # atno 5041 bound_to 5031
  157.0023  143.4898  160.6071 H   0  0  0  0  0  0  0  0  0  0  0  0  # atno 5077 bound_to 5072
  159.4672  151.2467  155.2713 H   0  0  0  0  0  0  0  0  0  0  0  0  # atno 5133 bound_to 5126
  160.1979  152.4699  156.1184 H   0  0  0  0  0  0  0  0  0  0  0  0  # atno 5134 bound_to 5126
  135.2356  135.9758  115.9776 LP  0  0  0  0  0  0  0  0  0  0  0  0  # atno 14304 bound_to 4979
  136.9016  132.0161  117.7290 LP  0  0  0  0  0  0  0  0  0  0  0  0  # atno 14305 bound_to 4982
  137.9151  132.9705  118.7594 LP  0  0  0  0  0  0  0  0  0  0  0  0  # atno 14306 bound_to 4982
  156.1924  143.8919  159.2546 LP  0  0  0  0  0  0  0  0  0  0  0  0  # atno 14317 bound_to 5072
  155.4056  143.1952  160.5045 LP  0  0  0  0  0  0  0  0  0  0  0  0  # atno 14318 bound_to 5072
  156.4861  141.9020  165.2691 LP  0  0  0  0  0  0  0  0  0  0  0  0  # atno 14323 bound_to 5025
  155.1295  141.2361  164.6502 LP  0  0  0  0  0  0  0  0  0  0  0  0  # atno 14324 bound_to 5025
  136.8278  134.9609  119.4681 LP  0  0  0  0  0  0  0  0  0  0  0  0  # atno 14325 bound_to 5026
  137.1335  132.8164  123.1831 LP  0  0  0  0  0  0  0  0  0  0  0  0  # atno 14326 bound_to 5029
  135.9535  133.9333  123.7833 LP  0  0  0  0  0  0  0  0  0  0  0  0  # atno 14327 bound_to 5029
  134.6742  136.4246  120.0646 LP  0  0  0  0  0  0  0  0  0  0  0  0  # atno 14328 bound_to 5031
  133.6819  136.5772  121.3525 LP  0  0  0  0  0  0  0  0  0  0  0  0  # atno 14329 bound_to 5031
  160.9110  150.9911  156.0178 LP  0  0  0  0  0  0  0  0  0  0  0  0  # atno 14334 bound_to 5126

> <Gold.Score>
     Fitness  S(hb_ext) S(vdw_ext)  S(hb_int)    S(int)      intcor
     36.16       1.46      25.92       0.00      -0.94      -0.76

> <Gold.Goldscore.Fitness>
36.1637

> <Gold.Goldscore.Internal.Vdw>
-0.9931

> <Gold.Goldscore.Internal.Torsion>
-0.7005

> <Gold.Goldscore.External.Vdw>
25.9221

> <Gold.Goldscore.Internal.HBond>
0.0000

> <Gold.Goldscore.External.HBond>
1.4559

> <Gold.Goldscore.Internal.Correction>
-0.7585

> <Gold.Goldscore.Hbonds>
donor molecule, donor type, donor heavy atom, donor atom, acceptor molecule, acceptor atom, score
      P1  H  4756  4762       L1    17  0.73

> <Gold.Goldscore.Internal.Vdw.Weighted>
-0.9931

> <Gold.Goldscore.Internal.Torsion.Weighted>
-0.7005

> <Gold.Goldscore.External.Vdw.Weighted>
35.6428

> <Gold.Goldscore.Internal.HBond.Weighted>
0.0000

> <Gold.Goldscore.External.HBond.Weighted>
1.4559

> <Gold.Goldscore.Internal.Correction.Weighted>
-0.7585

> <Gold.Rescore>
     Score     S(PLP)   S(hbond)     S(cho)   S(metal)  DE(clash)   DE(tors)     intcor
     32.28     -31.69       1.00       0.00       0.00       0.00       1.21       ----

> <Gold.PLP.Fitness>
32.2781

> <Gold.PLP.PLP>
-31.6900

> <Gold.PLP.part.hbond>
-2.0807

> <Gold.PLP.part.metal>
0.0000

> <Gold.PLP.part.buried>
-8.1579

> <Gold.PLP.part.nonpolar>
-24.0266

> <Gold.PLP.part.repulsive>
2.1325

> <Gold.PLP.ligand.clash>
0.0000

> <Gold.PLP.ligand.torsion>
1.2059

> <Gold.PLP.Chemscore.Hbond>
1.0000

> <Gold.PLP.Chemscore.CHOScore>
0.0000

> <Gold.PLP.Chemscore.Metal>
0.0000

> <Gold.Chemscore.Hbonds>
donor molecule, donor type, donor heavy atom, donor atom, acceptor molecule, acceptor atom, score
      P1  H  4756  4762       L1    17  1.00

> <Gold.PLP.Chemscore.Internal.Correction>
   9.000000E+99

