#       Name:                CT1002167954
#       Creating user name   hitesit
#       Creation time:       Sun Apr 16 20:32:53 2023


#       File generated by GOLD software.
#

@<TRIPOS>MOLECULE
CT1002167954|ligand_prepared|mol2|1|dock2
    29    30     1
SMALL
NO_CHARGES


@<TRIPOS>ATOM
      1 C1         137.2133 143.8763 166.3155 C.3            1 RES1               0.0000
      2 C2         136.8581 142.6237 165.4886 C.ar           1 RES1               0.0000
      3 C3         138.4217 143.4988 167.1673 C.2            1 RES1               0.0000
      4 C4         137.4847 144.9890 165.3091 C.2            1 RES1               0.0000
      5 C5         136.0785 144.3476 167.2544 C.3            1 RES1               0.0000
      6 C6         137.5640 142.3162 164.3294 C.ar           1 RES1               0.0000
      7 C7         135.8307 141.7663 165.8732 C.ar           1 RES1               0.0000
      8 N8         139.6334 144.0108 166.8070 N.am           1 RES1               0.0000
      9 O9         138.3197 142.7321 168.1170 O.2            1 RES1               0.0000
     10 N10        138.7583 145.4887 165.2323 N.am           1 RES1               0.0000
     11 O11        136.6109 145.4260 164.5702 O.2            1 RES1               0.0000
     12 C12        136.3411 145.6970 167.9042 C.3            1 RES1               0.0000
     13 C13        137.2561 141.1908 163.5832 C.ar           1 RES1               0.0000
     14 C14        135.5242 140.6414 165.1254 C.ar           1 RES1               0.0000
     15 C15        139.8519 145.0288 165.9140 C.2            1 RES1               0.0000
     16 C16        136.2364 140.3525 163.9808 C.ar           1 RES1               0.0000
     17 O17        140.9762 145.4941 165.7509 O.2            1 RES1               0.0000
     18 H18        135.1464 144.4082 166.6791 H              1 RES1               0.0000
     19 H19        135.9379 143.5976 168.0426 H              1 RES1               0.0000
     20 H20        138.3682 142.9655 163.9995 H              1 RES1               0.0000
     21 H21        135.2563 141.9743 166.7695 H              1 RES1               0.0000
     22 H22        140.4527 143.5985 167.2418 H              1 RES1               0.0000
     23 H23        138.9047 146.2765 164.6092 H              1 RES1               0.0000
     24 H24        135.5145 145.9804 168.5525 H              1 RES1               0.0000
     25 H25        137.2477 145.6659 168.5051 H              1 RES1               0.0000
     26 H26        136.4609 146.4717 167.1497 H              1 RES1               0.0000
     27 H27        137.8187 140.9685 162.6825 H              1 RES1               0.0000
     28 H28        134.7205 139.9848 165.4417 H              1 RES1               0.0000
     29 H29        135.9956 139.4707 163.3963 H              1 RES1               0.0000
@<TRIPOS>BOND
    1    1    2 1     
    2    1    3 1     
    3    1    4 1     
    4    1    5 1     
    5    2    6 ar    
    6    2    7 ar    
    7    3    8 1     
    8    3    9 2     
    9    4   10 1     
   10    4   11 2     
   11    5   12 1     
   12    5   18 1     
   13    5   19 1     
   14    6   13 ar    
   15    6   20 1     
   16    7   14 ar    
   17    7   21 1     
   18    8   15 1     
   19    8   22 1     
   20   10   15 1     
   21   10   23 1     
   22   12   24 1     
   23   12   25 1     
   24   12   26 1     
   25   13   16 ar    
   26   13   27 1     
   27   14   16 ar    
   28   14   28 1     
   29   15   17 2     
   30   16   29 1     
@<TRIPOS>SUBSTRUCTURE
      1 RES1           1
@<TRIPOS>SET
DONOR_HYDROGENS      STATIC     ATOMS    <user>   **** ""
2 22 23
ATOM$RED        STATIC     ATOMS    COLORGROUP SYSTEM
2 22 23
@<TRIPOS>COMMENT
> <Gold.Version>
2022.3.0

> <Gold.Id.Protein>
unknown|7rmi_cavity_clean|pdb

> <Gold.Protein.RotatedTorsions>
[ 4998 4979 4980 4981 ] final  -50.78 input  111.67 | X-H torsion
[ 5077 5072 5071 5069 ] final  -95.91 input   59.98 | X-H torsion
[ 5036 5025 5024 5021 ] final   62.70 input   60.00 | X-H torsion
[ 5037 5026 5027 5028 ] final  -20.02 input  106.27 | X-H torsion
[ 5041 5031 5030 5027 ] final  -34.70 input   60.01 | X-H torsion
[ 5133 5126 5127 5128 ] final   53.80 input   60.01 | X-H torsion
[ 14305 4982 4981 4980 ] final   -8.40 input    0.00 | X-H torsion
[ 14326 5029 5028 5027 ] final  122.22 input    0.00 | X-H torsion

> <Gold.Protein.ActiveResidues>
 TRP99   VAL100  MET101  CYS103  ALA104  ASP118  ASN119  ILE120  SER122  TYR124 
 LEU126  VAL133  LEU139  HIS142 

> <Gold.Protein.RotatedAtoms>
  134.7876  135.5596  117.5128 H   0  0  0  0  0  0  0  0  0  0  0  0  # atno 4998 bound_to 4979
  154.9009  141.1643  165.8591 H   0  0  0  0  0  0  0  0  0  0  0  0  # atno 5036 bound_to 5025
  137.5128  134.7202  119.6711 H   0  0  0  0  0  0  0  0  0  0  0  0  # atno 5037 bound_to 5026
  134.8086  135.7798  120.1154 H   0  0  0  0  0  0  0  0  0  0  0  0  # atno 5041 bound_to 5031
  155.7004  143.7445  159.3643 H   0  0  0  0  0  0  0  0  0  0  0  0  # atno 5077 bound_to 5072
  159.9339  150.7553  155.3681 H   0  0  0  0  0  0  0  0  0  0  0  0  # atno 5133 bound_to 5126
  159.6359  152.3405  155.7502 H   0  0  0  0  0  0  0  0  0  0  0  0  # atno 5134 bound_to 5126
  134.7753  135.7385  115.7776 LP  0  0  0  0  0  0  0  0  0  0  0  0  # atno 14304 bound_to 4979
  136.6543  132.1288  118.0240 LP  0  0  0  0  0  0  0  0  0  0  0  0  # atno 14305 bound_to 4982
  138.1624  132.8578  118.4644 LP  0  0  0  0  0  0  0  0  0  0  0  0  # atno 14306 bound_to 4982
  155.7832  143.1213  160.8649 LP  0  0  0  0  0  0  0  0  0  0  0  0  # atno 14317 bound_to 5072
  157.1266  143.7092  160.1463 LP  0  0  0  0  0  0  0  0  0  0  0  0  # atno 14318 bound_to 5072
  156.3705  141.8643  165.8718 LP  0  0  0  0  0  0  0  0  0  0  0  0  # atno 14323 bound_to 5025
  155.6573  141.4825  164.4532 LP  0  0  0  0  0  0  0  0  0  0  0  0  # atno 14324 bound_to 5025
  137.2416  136.4425  119.7419 LP  0  0  0  0  0  0  0  0  0  0  0  0  # atno 14325 bound_to 5026
  135.6944  133.2146  123.5414 LP  0  0  0  0  0  0  0  0  0  0  0  0  # atno 14326 bound_to 5029
  137.3926  133.5351  123.4250 LP  0  0  0  0  0  0  0  0  0  0  0  0  # atno 14327 bound_to 5029
  133.9481  136.9395  120.8651 LP  0  0  0  0  0  0  0  0  0  0  0  0  # atno 14328 bound_to 5031
  133.9276  135.4082  121.4319 LP  0  0  0  0  0  0  0  0  0  0  0  0  # atno 14329 bound_to 5031
  161.0051  151.6028  156.2854 LP  0  0  0  0  0  0  0  0  0  0  0  0  # atno 14334 bound_to 5126

> <Gold.Score>
     Fitness  S(hb_ext) S(vdw_ext)  S(hb_int)    S(int)      intcor
     36.34       0.43      26.22       0.00      -0.13      -0.76

> <Gold.Goldscore.Fitness>
36.3440

> <Gold.Goldscore.Internal.Vdw>
-0.3968

> <Gold.Goldscore.Internal.Torsion>
-0.4942

> <Gold.Goldscore.External.Vdw>
26.2192

> <Gold.Goldscore.Internal.HBond>
0.0000

> <Gold.Goldscore.External.HBond>
0.4250

> <Gold.Goldscore.Internal.Correction>
-0.7585

> <Gold.Goldscore.Hbonds>
donor molecule, donor type, donor heavy atom, donor atom, acceptor molecule, acceptor atom, score
      P1  H  4756  4762       L1    17  0.21

> <Gold.Goldscore.Internal.Vdw.Weighted>
-0.3968

> <Gold.Goldscore.Internal.Torsion.Weighted>
-0.4942

> <Gold.Goldscore.External.Vdw.Weighted>
36.0514

> <Gold.Goldscore.Internal.HBond.Weighted>
0.0000

> <Gold.Goldscore.External.HBond.Weighted>
0.4250

> <Gold.Goldscore.Internal.Correction.Weighted>
-0.7585

> <Gold.Rescore>
     Score     S(PLP)   S(hbond)     S(cho)   S(metal)  DE(clash)   DE(tors)     intcor
     24.93     -26.95       0.00       0.00       0.00       0.00       1.01       ----

> <Gold.PLP.Fitness>
24.9315

> <Gold.PLP.PLP>
-26.9489

> <Gold.PLP.part.hbond>
-2.9407

> <Gold.PLP.part.metal>
0.0000

> <Gold.PLP.part.buried>
-4.2412

> <Gold.PLP.part.nonpolar>
-24.1709

> <Gold.PLP.part.repulsive>
3.3500

> <Gold.PLP.ligand.clash>
0.0000

> <Gold.PLP.ligand.torsion>
1.0087

> <Gold.PLP.Chemscore.Hbond>
0.0000

> <Gold.PLP.Chemscore.CHOScore>
0.0000

> <Gold.PLP.Chemscore.Metal>
0.0000

> <Gold.PLP.Chemscore.Internal.Correction>
   9.000000E+99

