#       Name:                CT1002167954
#       Creating user name   hitesit
#       Creation time:       Sun Apr 16 02:22:00 2023


#       File generated by GOLD software.
#

@<TRIPOS>MOLECULE
CT1002167954|ligand_prepared|mol2|1|dock7
    29    30     1
SMALL
NO_CHARGES


@<TRIPOS>ATOM
      1 C1         -20.1028   9.5156  -3.2721 C.3            1 RES1               0.0000
      2 C2         -20.2884   9.8513  -4.7660 C.ar           1 RES1               0.0000
      3 C3         -20.6076   8.0875  -3.0880 C.2            1 RES1               0.0000
      4 C4         -18.6178   9.6935  -2.9762 C.2            1 RES1               0.0000
      5 C5         -20.8941  10.4428  -2.3204 C.3            1 RES1               0.0000
      6 C6         -19.5091   9.2263  -5.7349 C.ar           1 RES1               0.0000
      7 C7         -21.2350  10.7802  -5.1900 C.ar           1 RES1               0.0000
      8 N8         -19.6773   7.1070  -2.9060 N.am           1 RES1               0.0000
      9 O9         -21.8017   7.8199  -3.1413 O.2            1 RES1               0.0000
     10 N10        -17.8929   8.5812  -2.6369 N.am           1 RES1               0.0000
     11 O11        -18.0653  10.7842  -3.0500 O.2            1 RES1               0.0000
     12 C12        -20.6096  10.1959  -0.8472 C.3            1 RES1               0.0000
     13 C13        -19.6721   9.5170  -7.0792 C.ar           1 RES1               0.0000
     14 C14        -21.3962  11.0697  -6.5349 C.ar           1 RES1               0.0000
     15 C15        -18.3487   7.2913  -2.6183 C.2            1 RES1               0.0000
     16 C16        -20.6160  10.4385  -7.4801 C.ar           1 RES1               0.0000
     17 O17        -17.6221   6.3372  -2.3559 O.2            1 RES1               0.0000
     18 H18        -20.6481  11.4852  -2.5577 H              1 RES1               0.0000
     19 H19        -21.9668  10.3019  -2.5012 H              1 RES1               0.0000
     20 H20        -18.7596   8.5002  -5.4381 H              1 RES1               0.0000
     21 H21        -21.8593  11.2898  -4.4639 H              1 RES1               0.0000
     22 H22        -19.9991   6.1482  -2.9917 H              1 RES1               0.0000
     23 H23        -16.9237   8.7286  -2.3737 H              1 RES1               0.0000
     24 H24        -21.1901  10.8726  -0.2236 H              1 RES1               0.0000
     25 H25        -20.8665   9.1756  -0.5704 H              1 RES1               0.0000
     26 H26        -19.5556  10.3518  -0.6265 H              1 RES1               0.0000
     27 H27        -19.0546   9.0185  -7.8191 H              1 RES1               0.0000
     28 H28        -22.1398  11.7960  -6.8458 H              1 RES1               0.0000
     29 H29        -20.7437  10.6658  -8.5333 H              1 RES1               0.0000
@<TRIPOS>BOND
    1    1    2 1     
    2    1    3 1     
    3    1    4 1     
    4    1    5 1     
    5    2    6 ar    
    6    2    7 ar    
    7    3    8 1     
    8    3    9 2     
    9    4   10 1     
   10    4   11 2     
   11    5   12 1     
   12    5   18 1     
   13    5   19 1     
   14    6   13 ar    
   15    6   20 1     
   16    7   14 ar    
   17    7   21 1     
   18    8   15 1     
   19    8   22 1     
   20   10   15 1     
   21   10   23 1     
   22   12   24 1     
   23   12   25 1     
   24   12   26 1     
   25   13   16 ar    
   26   13   27 1     
   27   14   16 ar    
   28   14   28 1     
   29   15   17 2     
   30   16   29 1     
@<TRIPOS>SUBSTRUCTURE
      1 RES1           1
@<TRIPOS>SET
DONOR_HYDROGENS      STATIC     ATOMS    <user>   **** ""
2 22 23
ATOM$RED        STATIC     ATOMS    COLORGROUP SYSTEM
2 22 23
@<TRIPOS>COMMENT
> <Gold.Version>
2022.3.0

> <Gold.Id.Protein>
unknown|5n23_clean|pdb

> <Gold.Protein.RotatedTorsions>
[ 3769 3760 3759 3757 ] final   18.23 input   59.98 | X-H torsion
[ 3689 3680 3679 3677 ] final -141.59 input   60.00 | X-H torsion
[ 3966 3957 3956 3954 ] final -120.59 input   59.99 | X-H torsion
[ 2694 2683 2682 2681 ] final -175.18 input   59.97 | X-H torsion
[ 3230 3223 3221 3218 ] final  -75.13 input   59.99 | X-H torsion
[  719  714  712  709 ] final  -71.86 input   60.03 | X-H torsion
[ 2029 2024 2023 2020 ] final  -99.16 input   60.01 | X-H torsion
[ 5218 5209 5208 5206 ] final -139.27 input   59.98 | X-H torsion
[ 3280 3271 3270 3268 ] final  113.91 input   60.01 | X-H torsion
[  739  734  733  730 ] final -121.78 input   59.99 | X-H torsion
[ 1252 1249 1248 1247 ] final  -30.89 input   59.99 | X-H torsion
[ 3406 3401 3400 3397 ] final   -1.17 input   59.98 | X-H torsion
[ 1341 1337 1335 1332 ] final   -0.33 input   59.99 | X-H torsion

> <Gold.Protein.ActiveResidues>
 LEU49   GLY50   THR51   GLY52   SER53   PHE54   VAL79   LEU82   LYS83   GLN84  
 HIS87   THR88   GLY126  GLU127  MET128  PHE129  SER130  HIS131  LEU132  ARG133 
 ARG134  ILE135  GLY136  ARG137  ARG165  ASP166  LEU167  LYS168  PRO169  GLU170 
 ASN171  LEU173  ASP184  GLY186  PHE187  TRP196  TPO197  LEU198  CYS199  GLY200 
 THR201  PRO202  GLU203  TYR204  LEU205  ILE209  ILE210  SER212  VAL226  LEU227 
 TYR229  GLU230  ALA233  GLY234  TYR235  PRO236  PRO237  PHE238  PHE239  ALA240 
 ASP241  GLN242  PRO243  ILE244  GLN245  ILE246  TYR247  LYS249  ARG256  PHE257 
 PRO258  SER259  ASP328  TYR330 

> <Gold.Protein.RotatedAtoms>
  -20.4811   13.3856    7.2811 H   0  0  0  0  0  0  0  0  0  0  0  0  # atno 719  bound_to 714 
  -15.5398   12.0026   -1.7883 H   0  0  0  0  0  0  0  0  0  0  0  0  # atno 739  bound_to 734 
   -7.7924   11.5319  -12.5235 H   0  0  0  0  0  0  0  0  0  0  0  0  # atno 1252 bound_to 1249
   -7.6596   11.6419  -10.8754 H   0  0  0  0  0  0  0  0  0  0  0  0  # atno 1253 bound_to 1249
   -8.4299   10.3433  -11.5606 H   0  0  0  0  0  0  0  0  0  0  0  0  # atno 1254 bound_to 1249
  -21.0729   13.1485   -9.0044 H   0  0  0  0  0  0  0  0  0  0  0  0  # atno 1341 bound_to 1337
  -25.0719    5.4930   12.4575 H   0  0  0  0  0  0  0  0  0  0  0  0  # atno 2029 bound_to 2024
  -19.2692    4.8483    0.5731 H   0  0  0  0  0  0  0  0  0  0  0  0  # atno 2694 bound_to 2683
  -18.6600    3.8284    1.7291 H   0  0  0  0  0  0  0  0  0  0  0  0  # atno 2695 bound_to 2683
  -18.5145    3.4427    0.1239 H   0  0  0  0  0  0  0  0  0  0  0  0  # atno 2696 bound_to 2683
  -17.1112    2.8907   -0.4575 H   0  0  0  0  0  0  0  0  0  0  0  0  # atno 3230 bound_to 3223
  -21.9146   -4.2157    3.6702 H   0  0  0  0  0  0  0  0  0  0  0  0  # atno 3280 bound_to 3271
   -7.4072   -2.0515  -12.4054 H   0  0  0  0  0  0  0  0  0  0  0  0  # atno 3406 bound_to 3401
  -15.5086  -14.5273    6.9769 H   0  0  0  0  0  0  0  0  0  0  0  0  # atno 3689 bound_to 3680
  -15.7162  -14.1988   11.6388 H   0  0  0  0  0  0  0  0  0  0  0  0  # atno 3769 bound_to 3760
   -9.0888    0.4617   -3.5011 H   0  0  0  0  0  0  0  0  0  0  0  0  # atno 3966 bound_to 3957
  -21.6237   12.9509   10.4548 H   0  0  0  0  0  0  0  0  0  0  0  0  # atno 5218 bound_to 5209
  -17.2525  -14.0938   12.1654 LP  0  0  0  0  0  0  0  0  0  0  0  0  # atno 5548 bound_to 3760
  -16.0133  -13.8304   13.1958 LP  0  0  0  0  0  0  0  0  0  0  0  0  # atno 5549 bound_to 3760
  -16.5034  -14.7209    8.2500 LP  0  0  0  0  0  0  0  0  0  0  0  0  # atno 5556 bound_to 3680
  -15.6995  -13.3144    8.0448 LP  0  0  0  0  0  0  0  0  0  0  0  0  # atno 5557 bound_to 3680
   -8.6971    0.5567   -1.9244 LP  0  0  0  0  0  0  0  0  0  0  0  0  # atno 5612 bound_to 3957
  -10.1326   -0.0779   -2.3751 LP  0  0  0  0  0  0  0  0  0  0  0  0  # atno 5613 bound_to 3957
  -18.4411    1.9920   -0.1892 LP  0  0  0  0  0  0  0  0  0  0  0  0  # atno 5616 bound_to 3223
  -17.7923    2.0687   -1.6858 LP  0  0  0  0  0  0  0  0  0  0  0  0  # atno 5617 bound_to 3223
  -18.9993   13.7812    6.7363 LP  0  0  0  0  0  0  0  0  0  0  0  0  # atno 5626 bound_to 714 
  -19.9188   12.7151    5.9088 LP  0  0  0  0  0  0  0  0  0  0  0  0  # atno 5627 bound_to 714 
  -26.2960    5.4993   11.3860 LP  0  0  0  0  0  0  0  0  0  0  0  0  # atno 5630 bound_to 2024
  -24.9857    4.5595   11.1280 LP  0  0  0  0  0  0  0  0  0  0  0  0  # atno 5631 bound_to 2024
  -22.8673   13.2549    9.4506 LP  0  0  0  0  0  0  0  0  0  0  0  0  # atno 5636 bound_to 5209
  -23.1449   12.6242   10.9310 LP  0  0  0  0  0  0  0  0  0  0  0  0  # atno 5637 bound_to 5209
  -20.4924   -4.2920    4.4579 LP  0  0  0  0  0  0  0  0  0  0  0  0  # atno 5660 bound_to 3271
  -21.1220   -5.6336    3.7721 LP  0  0  0  0  0  0  0  0  0  0  0  0  # atno 5661 bound_to 3271
  -16.9477   11.1873   -1.7923 LP  0  0  0  0  0  0  0  0  0  0  0  0  # atno 5668 bound_to 734 
  -16.4121   11.8912   -0.4195 LP  0  0  0  0  0  0  0  0  0  0  0  0  # atno 5669 bound_to 734 
   -6.6138   -1.1402  -13.4951 LP  0  0  0  0  0  0  0  0  0  0  0  0  # atno 5699 bound_to 3401
   -5.8299   -2.3277  -12.6938 LP  0  0  0  0  0  0  0  0  0  0  0  0  # atno 5700 bound_to 3401

> <Gold.Score>
     Fitness  S(hb_ext) S(vdw_ext)  S(hb_int)    S(int)      intcor
     37.53       2.54      25.45       0.00      -0.00      -0.76

> <Gold.Goldscore.Fitness>
37.5298

> <Gold.Goldscore.Internal.Vdw>
-0.3469

> <Gold.Goldscore.Internal.Torsion>
-0.4127

> <Gold.Goldscore.External.Vdw>
25.4483

> <Gold.Goldscore.Internal.HBond>
0.0000

> <Gold.Goldscore.External.HBond>
2.5413

> <Gold.Goldscore.Internal.Correction>
-0.7567

> <Gold.Goldscore.Hbonds>
donor molecule, donor type, donor heavy atom, donor atom, acceptor molecule, acceptor atom, score
      L1  H     8    22       P1  2651  0.42

> <Gold.Goldscore.Internal.Vdw.Weighted>
-0.3469

> <Gold.Goldscore.Internal.Torsion.Weighted>
-0.4127

> <Gold.Goldscore.External.Vdw.Weighted>
34.9915

> <Gold.Goldscore.Internal.HBond.Weighted>
0.0000

> <Gold.Goldscore.External.HBond.Weighted>
2.5413

> <Gold.Goldscore.Internal.Correction.Weighted>
-0.7567

> <Gold.Rescore>
     Score     S(PLP)   S(hbond)     S(cho)   S(metal)  DE(clash)   DE(tors)     intcor
     32.22     -32.13       1.00       0.00       0.00       1.88       0.52       ----

> <Gold.PLP.Fitness>
32.2189

> <Gold.PLP.PLP>
-32.1253

> <Gold.PLP.part.hbond>
-1.4539

> <Gold.PLP.part.metal>
0.0000

> <Gold.PLP.part.buried>
-5.1738

> <Gold.PLP.part.nonpolar>
-29.0146

> <Gold.PLP.part.repulsive>
1.9666

> <Gold.PLP.ligand.clash>
1.8760

> <Gold.PLP.ligand.torsion>
0.5152

> <Gold.PLP.Chemscore.Hbond>
1.0000

> <Gold.PLP.Chemscore.CHOScore>
0.0000

> <Gold.PLP.Chemscore.Metal>
0.0000

> <Gold.Chemscore.Hbonds>
donor molecule, donor type, donor heavy atom, donor atom, acceptor molecule, acceptor atom, score
      L1  H     8    22       P1  2651  0.76

> <Gold.PLP.Chemscore.Internal.Correction>
   9.000000E+99

