#       Name:                CT1002167954
#       Creating user name   hitesit
#       Creation time:       Sun Apr 16 02:21:53 2023


#       File generated by GOLD software.
#

@<TRIPOS>MOLECULE
CT1002167954|ligand_prepared|mol2|1|dock2
    29    30     1
SMALL
NO_CHARGES


@<TRIPOS>ATOM
      1 C1         -20.2063   9.2612  -2.7485 C.3            1 RES1               0.0000
      2 C2         -19.7111   9.5521  -4.1799 C.ar           1 RES1               0.0000
      3 C3         -20.8416   7.8745  -2.7884 C.2            1 RES1               0.0000
      4 C4         -18.9817   9.3587  -1.8454 C.2            1 RES1               0.0000
      5 C5         -21.2602  10.2697  -2.2349 C.3            1 RES1               0.0000
      6 C6         -20.5999   9.9700  -5.1659 C.ar           1 RES1               0.0000
      7 C7         -18.3706   9.4098  -4.5282 C.ar           1 RES1               0.0000
      8 N8         -20.1508   6.8463  -2.2178 N.am           1 RES1               0.0000
      9 O9         -21.9141   7.6788  -3.3468 O.2            1 RES1               0.0000
     10 N10        -18.5526   8.2175  -1.2199 N.am           1 RES1               0.0000
     11 O11        -18.3746  10.4100  -1.6829 O.2            1 RES1               0.0000
     12 C12        -21.4906  10.2045  -0.7333 C.3            1 RES1               0.0000
     13 C13        -20.1639  10.2389  -6.4527 C.ar           1 RES1               0.0000
     14 C14        -17.9367   9.6790  -5.8157 C.ar           1 RES1               0.0000
     15 C15        -19.0633   6.9594  -1.3894 C.2            1 RES1               0.0000
     16 C16        -18.8321  10.0940  -6.7784 C.ar           1 RES1               0.0000
     17 O17        -18.5886   5.9730  -0.8338 O.2            1 RES1               0.0000
     18 H18        -20.9362  11.2840  -2.4987 H              1 RES1               0.0000
     19 H19        -22.2113  10.0778  -2.7466 H              1 RES1               0.0000
     20 H20        -21.6521  10.0873  -4.9289 H              1 RES1               0.0000
     21 H21        -17.6485   9.0835  -3.7875 H              1 RES1               0.0000
     22 H22        -20.4725   5.9065  -2.4264 H              1 RES1               0.0000
     23 H23        -17.7812   8.3148  -0.5675 H              1 RES1               0.0000
     24 H24        -22.2387  10.9321  -0.4258 H              1 RES1               0.0000
     25 H25        -21.8379   9.2163  -0.4389 H              1 RES1               0.0000
     26 H26        -20.5703  10.4153  -0.1924 H              1 RES1               0.0000
     27 H27        -20.8728  10.5639  -7.2071 H              1 RES1               0.0000
     28 H28        -16.8878   9.5630  -6.0678 H              1 RES1               0.0000
     29 H29        -18.4908  10.3051  -7.7864 H              1 RES1               0.0000
@<TRIPOS>BOND
    1    1    2 1     
    2    1    3 1     
    3    1    4 1     
    4    1    5 1     
    5    2    6 ar    
    6    2    7 ar    
    7    3    8 1     
    8    3    9 2     
    9    4   10 1     
   10    4   11 2     
   11    5   12 1     
   12    5   18 1     
   13    5   19 1     
   14    6   13 ar    
   15    6   20 1     
   16    7   14 ar    
   17    7   21 1     
   18    8   15 1     
   19    8   22 1     
   20   10   15 1     
   21   10   23 1     
   22   12   24 1     
   23   12   25 1     
   24   12   26 1     
   25   13   16 ar    
   26   13   27 1     
   27   14   16 ar    
   28   14   28 1     
   29   15   17 2     
   30   16   29 1     
@<TRIPOS>SUBSTRUCTURE
      1 RES1           1
@<TRIPOS>SET
DONOR_HYDROGENS      STATIC     ATOMS    <user>   **** ""
2 22 23
ATOM$RED        STATIC     ATOMS    COLORGROUP SYSTEM
2 22 23
@<TRIPOS>COMMENT
> <Gold.Version>
2022.3.0

> <Gold.Id.Protein>
unknown|5n23_clean|pdb

> <Gold.Protein.RotatedTorsions>
[ 3769 3760 3759 3757 ] final   20.57 input   59.98 | X-H torsion
[ 3689 3680 3679 3677 ] final  126.63 input   60.00 | X-H torsion
[ 3966 3957 3956 3954 ] final   69.51 input   59.99 | X-H torsion
[ 2694 2683 2682 2681 ] final   33.20 input   59.97 | X-H torsion
[ 3230 3223 3221 3218 ] final  -23.68 input   59.99 | X-H torsion
[  719  714  712  709 ] final  154.13 input   60.03 | X-H torsion
[ 2029 2024 2023 2020 ] final  176.24 input   60.01 | X-H torsion
[ 5218 5209 5208 5206 ] final   85.21 input   59.98 | X-H torsion
[ 3280 3271 3270 3268 ] final  -12.21 input   60.01 | X-H torsion
[  739  734  733  730 ] final   90.85 input   59.99 | X-H torsion
[ 1252 1249 1248 1247 ] final  -33.86 input   59.99 | X-H torsion
[ 3406 3401 3400 3397 ] final  122.25 input   59.98 | X-H torsion
[ 1341 1337 1335 1332 ] final -141.23 input   59.99 | X-H torsion

> <Gold.Protein.ActiveResidues>
 LEU49   GLY50   THR51   GLY52   SER53   PHE54   VAL79   LEU82   LYS83   GLN84  
 HIS87   THR88   GLY126  GLU127  MET128  PHE129  SER130  HIS131  LEU132  ARG133 
 ARG134  ILE135  GLY136  ARG137  ARG165  ASP166  LEU167  LYS168  PRO169  GLU170 
 ASN171  LEU173  ASP184  GLY186  PHE187  TRP196  TPO197  LEU198  CYS199  GLY200 
 THR201  PRO202  GLU203  TYR204  LEU205  ILE209  ILE210  SER212  VAL226  LEU227 
 TYR229  GLU230  ALA233  GLY234  TYR235  PRO236  PRO237  PHE238  PHE239  ALA240 
 ASP241  GLN242  PRO243  ILE244  GLN245  ILE246  TYR247  LYS249  ARG256  PHE257 
 PRO258  SER259  ASP328  TYR330 

> <Gold.Protein.RotatedAtoms>
  -18.9507   13.6724    6.5402 H   0  0  0  0  0  0  0  0  0  0  0  0  # atno 719  bound_to 714 
  -17.1036   11.2202   -1.3773 H   0  0  0  0  0  0  0  0  0  0  0  0  # atno 739  bound_to 734 
   -7.8157   11.4925  -12.5429 H   0  0  0  0  0  0  0  0  0  0  0  0  # atno 1252 bound_to 1249
   -7.6409   11.6769  -10.9054 H   0  0  0  0  0  0  0  0  0  0  0  0  # atno 1253 bound_to 1249
   -8.4253   10.3477  -11.5112 H   0  0  0  0  0  0  0  0  0  0  0  0  # atno 1254 bound_to 1249
  -21.2265   14.8227   -8.4681 H   0  0  0  0  0  0  0  0  0  0  0  0  # atno 1341 bound_to 1337
  -26.1627    5.7488   11.8821 H   0  0  0  0  0  0  0  0  0  0  0  0  # atno 2029 bound_to 2024
  -18.3750    3.2226    0.5758 H   0  0  0  0  0  0  0  0  0  0  0  0  # atno 2694 bound_to 2683
  -19.1572    4.6120    0.1225 H   0  0  0  0  0  0  0  0  0  0  0  0  # atno 2695 bound_to 2683
  -18.9119    4.2856    1.7286 H   0  0  0  0  0  0  0  0  0  0  0  0  # atno 2696 bound_to 2683
  -17.0719    2.7090   -1.2489 H   0  0  0  0  0  0  0  0  0  0  0  0  # atno 3230 bound_to 3223
  -20.4508   -4.3835    4.4561 H   0  0  0  0  0  0  0  0  0  0  0  0  # atno 3280 bound_to 3271
   -5.8104   -2.2941  -12.7348 H   0  0  0  0  0  0  0  0  0  0  0  0  # atno 3406 bound_to 3401
  -16.3767  -14.9832    7.8963 H   0  0  0  0  0  0  0  0  0  0  0  0  # atno 3689 bound_to 3680
  -15.6878  -14.1925   11.6635 H   0  0  0  0  0  0  0  0  0  0  0  0  # atno 3769 bound_to 3760
   -9.3736    0.2294   -1.6722 H   0  0  0  0  0  0  0  0  0  0  0  0  # atno 3966 bound_to 3957
  -23.0879   13.1944    9.5605 H   0  0  0  0  0  0  0  0  0  0  0  0  # atno 5218 bound_to 5209
  -17.2446  -14.1025   12.1288 LP  0  0  0  0  0  0  0  0  0  0  0  0  # atno 5548 bound_to 3760
  -16.0499  -13.8281   13.2076 LP  0  0  0  0  0  0  0  0  0  0  0  0  # atno 5549 bound_to 3760
  -15.9963  -13.4703    8.3592 LP  0  0  0  0  0  0  0  0  0  0  0  0  # atno 5556 bound_to 3680
  -15.3320  -14.1057    7.0095 LP  0  0  0  0  0  0  0  0  0  0  0  0  # atno 5557 bound_to 3680
  -10.0112    0.0211   -3.1550 LP  0  0  0  0  0  0  0  0  0  0  0  0  # atno 5612 bound_to 3957
   -8.5317    0.6915   -2.9861 LP  0  0  0  0  0  0  0  0  0  0  0  0  # atno 5613 bound_to 3957
  -17.8830    2.4890    0.1447 LP  0  0  0  0  0  0  0  0  0  0  0  0  # atno 5616 bound_to 3223
  -18.3899    1.7546   -1.2229 LP  0  0  0  0  0  0  0  0  0  0  0  0  # atno 5617 bound_to 3223
  -20.1229   12.6768    6.0077 LP  0  0  0  0  0  0  0  0  0  0  0  0  # atno 5626 bound_to 714 
  -20.3357   13.5307    7.3833 LP  0  0  0  0  0  0  0  0  0  0  0  0  # atno 5627 bound_to 714 
  -25.4821    4.6759   10.8662 LP  0  0  0  0  0  0  0  0  0  0  0  0  # atno 5630 bound_to 2024
  -24.7004    5.1251   12.2277 LP  0  0  0  0  0  0  0  0  0  0  0  0  # atno 5631 bound_to 2024
  -22.9299   12.5884   11.0623 LP  0  0  0  0  0  0  0  0  0  0  0  0  # atno 5636 bound_to 5209
  -21.6078   13.0454   10.2198 LP  0  0  0  0  0  0  0  0  0  0  0  0  # atno 5637 bound_to 5209
  -21.2102   -5.6235    3.7248 LP  0  0  0  0  0  0  0  0  0  0  0  0  # atno 5660 bound_to 3271
  -21.8777   -4.1332    3.7142 LP  0  0  0  0  0  0  0  0  0  0  0  0  # atno 5661 bound_to 3271
  -16.0238   12.0855   -0.5216 LP  0  0  0  0  0  0  0  0  0  0  0  0  # atno 5668 bound_to 734 
  -15.7606   11.7813   -2.1043 LP  0  0  0  0  0  0  0  0  0  0  0  0  # atno 5669 bound_to 734 
   -7.3838   -2.0916  -12.3733 LP  0  0  0  0  0  0  0  0  0  0  0  0  # atno 5699 bound_to 3401
   -6.6682   -1.1320  -13.4839 LP  0  0  0  0  0  0  0  0  0  0  0  0  # atno 5700 bound_to 3401

> <Gold.Score>
     Fitness  S(hb_ext) S(vdw_ext)  S(hb_int)    S(int)      intcor
     38.15       8.74      22.17       0.00      -1.08      -0.79

> <Gold.Goldscore.Fitness>
38.1475

> <Gold.Goldscore.Internal.Vdw>
-1.1822

> <Gold.Goldscore.Internal.Torsion>
-0.6851

> <Gold.Goldscore.External.Vdw>
22.1734

> <Gold.Goldscore.Internal.HBond>
0.0000

> <Gold.Goldscore.External.HBond>
8.7351

> <Gold.Goldscore.Internal.Correction>
-0.7912

> <Gold.Goldscore.Hbonds>
donor molecule, donor type, donor heavy atom, donor atom, acceptor molecule, acceptor atom, score
      P1  H  2683  2695       L1    17  0.62
      P1  H   734   739       L1    11  0.84
      L1  H     8    22       P1  2651  0.56

> <Gold.Goldscore.Internal.Vdw.Weighted>
-1.1822

> <Gold.Goldscore.Internal.Torsion.Weighted>
-0.6851

> <Gold.Goldscore.External.Vdw.Weighted>
30.4885

> <Gold.Goldscore.Internal.HBond.Weighted>
0.0000

> <Gold.Goldscore.External.HBond.Weighted>
8.7351

> <Gold.Goldscore.Internal.Correction.Weighted>
-0.7912

> <Gold.Rescore>
     Score     S(PLP)   S(hbond)     S(cho)   S(metal)  DE(clash)   DE(tors)     intcor
     38.75     -32.59       2.66       0.00       0.00       1.31       0.25       ----

> <Gold.PLP.Fitness>
38.7512

> <Gold.PLP.PLP>
-32.5886

> <Gold.PLP.part.hbond>
-3.6030

> <Gold.PLP.part.metal>
0.0000

> <Gold.PLP.part.buried>
-3.2823

> <Gold.PLP.part.nonpolar>
-28.2051

> <Gold.PLP.part.repulsive>
0.5850

> <Gold.PLP.ligand.clash>
1.3148

> <Gold.PLP.ligand.torsion>
0.2453

> <Gold.PLP.Chemscore.Hbond>
2.6560

> <Gold.PLP.Chemscore.CHOScore>
0.0000

> <Gold.PLP.Chemscore.Metal>
0.0000

> <Gold.Chemscore.Hbonds>
donor molecule, donor type, donor heavy atom, donor atom, acceptor molecule, acceptor atom, score
      L1  H     8    22       P1  2651  1.00
      P1  H  2683  2695       L1    17  1.00
      P1  H   734   739       L1    11  0.84

> <Gold.PLP.Chemscore.Internal.Correction>
   9.000000E+99

