#       Name:                CT1002167954
#       Creating user name   hitesit
#       Creation time:       Sun Apr 16 02:21:54 2023


#       File generated by GOLD software.
#

@<TRIPOS>MOLECULE
CT1002167954|ligand_prepared|mol2|1|dock3
    29    30     1
SMALL
NO_CHARGES


@<TRIPOS>ATOM
      1 C1         -25.0909   9.0373   2.8772 C.3            1 RES1               0.0000
      2 C2         -26.4792   9.6748   2.6652 C.ar           1 RES1               0.0000
      3 C3         -24.6489   8.5104   1.5151 C.2            1 RES1               0.0000
      4 C4         -24.1974  10.1378   3.4385 C.2            1 RES1               0.0000
      5 C5         -25.0900   7.8620   3.8824 C.3            1 RES1               0.0000
      6 C6         -26.7029  10.5498   1.6064 C.ar           1 RES1               0.0000
      7 C7         -27.5448   9.3961   3.5170 C.ar           1 RES1               0.0000
      8 N8         -23.6741   9.2005   0.8568 N.am           1 RES1               0.0000
      9 O9         -25.1753   7.5272   1.0088 O.2            1 RES1               0.0000
     10 N10        -23.1501  10.5702   2.6677 N.am           1 RES1               0.0000
     11 O11        -24.4006  10.6461   4.5342 O.2            1 RES1               0.0000
     12 C12        -23.7548   7.1413   3.9817 C.3            1 RES1               0.0000
     13 C13        -27.9475  11.1230   1.4045 C.ar           1 RES1               0.0000
     14 C14        -28.7886   9.9706   3.3134 C.ar           1 RES1               0.0000
     15 C15        -22.8663  10.1729   1.3895 C.2            1 RES1               0.0000
     16 C16        -28.9912  10.8336   2.2575 C.ar           1 RES1               0.0000
     17 O17        -21.9389  10.6477   0.7402 O.2            1 RES1               0.0000
     18 H18        -25.3589   8.2456   4.8743 H              1 RES1               0.0000
     19 H19        -25.8595   7.1401   3.5822 H              1 RES1               0.0000
     20 H20        -25.8930  10.7914   0.9262 H              1 RES1               0.0000
     21 H21        -27.4082   8.7209   4.3549 H              1 RES1               0.0000
     22 H22        -23.5327   8.9726  -0.1222 H              1 RES1               0.0000
     23 H23        -22.5240  11.2511   3.0855 H              1 RES1               0.0000
     24 H24        -23.8091   6.3260   4.7002 H              1 RES1               0.0000
     25 H25        -23.4685   6.7251   3.0180 H              1 RES1               0.0000
     26 H26        -22.9708   7.8241   4.3025 H              1 RES1               0.0000
     27 H27        -28.1014  11.8026   0.5728 H              1 RES1               0.0000
     28 H28        -29.6069   9.7404   3.9876 H              1 RES1               0.0000
     29 H29        -29.9661  11.2824   2.0990 H              1 RES1               0.0000
@<TRIPOS>BOND
    1    1    2 1     
    2    1    3 1     
    3    1    4 1     
    4    1    5 1     
    5    2    6 ar    
    6    2    7 ar    
    7    3    8 1     
    8    3    9 2     
    9    4   10 1     
   10    4   11 2     
   11    5   12 1     
   12    5   18 1     
   13    5   19 1     
   14    6   13 ar    
   15    6   20 1     
   16    7   14 ar    
   17    7   21 1     
   18    8   15 1     
   19    8   22 1     
   20   10   15 1     
   21   10   23 1     
   22   12   24 1     
   23   12   25 1     
   24   12   26 1     
   25   13   16 ar    
   26   13   27 1     
   27   14   16 ar    
   28   14   28 1     
   29   15   17 2     
   30   16   29 1     
@<TRIPOS>SUBSTRUCTURE
      1 RES1           1
@<TRIPOS>SET
DONOR_HYDROGENS      STATIC     ATOMS    <user>   **** ""
2 22 23
ATOM$RED        STATIC     ATOMS    COLORGROUP SYSTEM
2 22 23
@<TRIPOS>COMMENT
> <Gold.Version>
2022.3.0

> <Gold.Id.Protein>
unknown|5n23_clean|pdb

> <Gold.Protein.RotatedTorsions>
[ 3769 3760 3759 3757 ] final  157.83 input   59.98 | X-H torsion
[ 3689 3680 3679 3677 ] final -146.49 input   60.00 | X-H torsion
[ 3966 3957 3956 3954 ] final -155.80 input   59.99 | X-H torsion
[ 2694 2683 2682 2681 ] final -116.65 input   59.97 | X-H torsion
[ 3230 3223 3221 3218 ] final -146.89 input   59.99 | X-H torsion
[  719  714  712  709 ] final   -7.74 input   60.03 | X-H torsion
[ 2029 2024 2023 2020 ] final  173.11 input   60.01 | X-H torsion
[ 5218 5209 5208 5206 ] final  -32.89 input   59.98 | X-H torsion
[ 3280 3271 3270 3268 ] final  -40.29 input   60.01 | X-H torsion
[  739  734  733  730 ] final   58.04 input   59.99 | X-H torsion
[ 1252 1249 1248 1247 ] final    4.15 input   59.99 | X-H torsion
[ 3406 3401 3400 3397 ] final   53.73 input   59.98 | X-H torsion
[ 1341 1337 1335 1332 ] final   33.93 input   59.99 | X-H torsion

> <Gold.Protein.ActiveResidues>
 LEU49   GLY50   THR51   GLY52   SER53   PHE54   VAL79   LEU82   LYS83   GLN84  
 HIS87   THR88   GLY126  GLU127  MET128  PHE129  SER130  HIS131  LEU132  ARG133 
 ARG134  ILE135  GLY136  ARG137  ARG165  ASP166  LEU167  LYS168  PRO169  GLU170 
 ASN171  LEU173  ASP184  GLY186  PHE187  TRP196  TPO197  LEU198  CYS199  GLY200 
 THR201  PRO202  GLU203  TYR204  LEU205  ILE209  ILE210  SER212  VAL226  LEU227 
 TYR229  GLU230  ALA233  GLY234  TYR235  PRO236  PRO237  PHE238  PHE239  ALA240 
 ASP241  GLN242  PRO243  ILE244  GLN245  ILE246  TYR247  LYS249  ARG256  PHE257 
 PRO258  SER259  ASP328  TYR330 

> <Gold.Protein.RotatedAtoms>
  -20.5728   12.7847    6.4944 H   0  0  0  0  0  0  0  0  0  0  0  0  # atno 719  bound_to 714 
  -17.0569   11.3906   -0.8790 H   0  0  0  0  0  0  0  0  0  0  0  0  # atno 739  bound_to 734 
   -7.5679   11.8968  -12.1390 H   0  0  0  0  0  0  0  0  0  0  0  0  # atno 1252 bound_to 1249
   -7.9254   11.1628  -10.6970 H   0  0  0  0  0  0  0  0  0  0  0  0  # atno 1253 bound_to 1249
   -8.3888   10.4572  -12.1241 H   0  0  0  0  0  0  0  0  0  0  0  0  # atno 1254 bound_to 1249
  -20.6591   13.2719   -9.3477 H   0  0  0  0  0  0  0  0  0  0  0  0  # atno 1341 bound_to 1337
  -26.1861    5.7339   11.8392 H   0  0  0  0  0  0  0  0  0  0  0  0  # atno 2029 bound_to 2024
  -19.1240    4.6519    1.4762 H   0  0  0  0  0  0  0  0  0  0  0  0  # atno 2694 bound_to 2683
  -18.3623    3.2375    1.0677 H   0  0  0  0  0  0  0  0  0  0  0  0  # atno 2695 bound_to 2683
  -18.9577    4.2304   -0.1181 H   0  0  0  0  0  0  0  0  0  0  0  0  # atno 2696 bound_to 2683
  -17.9233    2.4551    0.1384 H   0  0  0  0  0  0  0  0  0  0  0  0  # atno 3230 bound_to 3223
  -20.3561   -4.8244    4.4011 H   0  0  0  0  0  0  0  0  0  0  0  0  # atno 3280 bound_to 3271
   -6.7049   -2.5191  -12.2250 H   0  0  0  0  0  0  0  0  0  0  0  0  # atno 3406 bound_to 3401
  -15.5494  -14.5949    6.9898 H   0  0  0  0  0  0  0  0  0  0  0  0  # atno 3689 bound_to 3680
  -16.3296  -13.8215   13.2417 H   0  0  0  0  0  0  0  0  0  0  0  0  # atno 3769 bound_to 3760
   -8.6538    0.6442   -3.1877 H   0  0  0  0  0  0  0  0  0  0  0  0  # atno 3966 bound_to 3957
  -22.9553   12.5967   11.0448 H   0  0  0  0  0  0  0  0  0  0  0  0  # atno 5218 bound_to 5209
  -15.5076  -14.1416   11.8742 LP  0  0  0  0  0  0  0  0  0  0  0  0  # atno 5548 bound_to 3760
  -17.1404  -14.1627   11.8726 LP  0  0  0  0  0  0  0  0  0  0  0  0  # atno 5549 bound_to 3760
  -16.5108  -14.6591    8.3010 LP  0  0  0  0  0  0  0  0  0  0  0  0  # atno 5556 bound_to 3680
  -15.6510  -13.3082    7.9808 LP  0  0  0  0  0  0  0  0  0  0  0  0  # atno 5557 bound_to 3680
   -9.1561    0.3318   -1.6716 LP  0  0  0  0  0  0  0  0  0  0  0  0  # atno 5612 bound_to 3957
  -10.1116   -0.0367   -2.9435 LP  0  0  0  0  0  0  0  0  0  0  0  0  # atno 5613 bound_to 3957
  -18.3626    1.7628   -1.2674 LP  0  0  0  0  0  0  0  0  0  0  0  0  # atno 5616 bound_to 3223
  -17.0530    2.7365   -1.2077 LP  0  0  0  0  0  0  0  0  0  0  0  0  # atno 5617 bound_to 3223
  -19.7449   13.8540    7.3999 LP  0  0  0  0  0  0  0  0  0  0  0  0  # atno 5626 bound_to 714 
  -19.0808   13.2471    6.0371 LP  0  0  0  0  0  0  0  0  0  0  0  0  # atno 5627 bound_to 714 
  -25.4358    4.6568   10.8782 LP  0  0  0  0  0  0  0  0  0  0  0  0  # atno 5630 bound_to 2024
  -24.7232    5.1592   12.2590 LP  0  0  0  0  0  0  0  0  0  0  0  0  # atno 5631 bound_to 2024
  -21.6052   13.0338   10.2488 LP  0  0  0  0  0  0  0  0  0  0  0  0  # atno 5636 bound_to 5209
  -23.0660   13.2020    9.5386 LP  0  0  0  0  0  0  0  0  0  0  0  0  # atno 5637 bound_to 5209
  -21.5951   -5.4488    3.5502 LP  0  0  0  0  0  0  0  0  0  0  0  0  # atno 5660 bound_to 3271
  -21.5881   -3.8640    3.9441 LP  0  0  0  0  0  0  0  0  0  0  0  0  # atno 5661 bound_to 3271
  -15.6458   12.2003   -0.8788 LP  0  0  0  0  0  0  0  0  0  0  0  0  # atno 5668 bound_to 734 
  -16.1856   11.4948   -2.2490 LP  0  0  0  0  0  0  0  0  0  0  0  0  # atno 5669 bound_to 734 
   -7.3632   -1.3069  -13.0877 LP  0  0  0  0  0  0  0  0  0  0  0  0  # atno 5699 bound_to 3401
   -5.7879   -1.6901  -13.2829 LP  0  0  0  0  0  0  0  0  0  0  0  0  # atno 5700 bound_to 3401

> <Gold.Score>
     Fitness  S(hb_ext) S(vdw_ext)  S(hb_int)    S(int)      intcor
     30.23       4.71      18.62       0.00      -0.09      -0.78

> <Gold.Goldscore.Fitness>
30.2277

> <Gold.Goldscore.Internal.Vdw>
-0.4446

> <Gold.Goldscore.Internal.Torsion>
-0.4280

> <Gold.Goldscore.External.Vdw>
18.6235

> <Gold.Goldscore.Internal.HBond>
0.0000

> <Gold.Goldscore.External.HBond>
4.7109

> <Gold.Goldscore.Internal.Correction>
-0.7819

> <Gold.Goldscore.Hbonds>
donor molecule, donor type, donor heavy atom, donor atom, acceptor molecule, acceptor atom, score
      L1  H     8    22       P1  2945  0.68
      L1  H    10    23       P1   711  0.30

> <Gold.Goldscore.Internal.Vdw.Weighted>
-0.4446

> <Gold.Goldscore.Internal.Torsion.Weighted>
-0.4280

> <Gold.Goldscore.External.Vdw.Weighted>
25.6073

> <Gold.Goldscore.Internal.HBond.Weighted>
0.0000

> <Gold.Goldscore.External.HBond.Weighted>
4.7109

> <Gold.Goldscore.Internal.Correction.Weighted>
-0.7819

> <Gold.Rescore>
     Score     S(PLP)   S(hbond)     S(cho)   S(metal)  DE(clash)   DE(tors)     intcor
     29.48     -27.28       0.80       0.00       0.00       0.00       0.10       ----

> <Gold.PLP.Fitness>
29.4792

> <Gold.PLP.PLP>
-27.2828

> <Gold.PLP.part.hbond>
-1.4795

> <Gold.PLP.part.metal>
0.0000

> <Gold.PLP.part.buried>
-4.4080

> <Gold.PLP.part.nonpolar>
-22.4300

> <Gold.PLP.part.repulsive>
0.5980

> <Gold.PLP.ligand.clash>
0.0000

> <Gold.PLP.ligand.torsion>
0.1018

> <Gold.PLP.Chemscore.Hbond>
0.8000

> <Gold.PLP.Chemscore.CHOScore>
0.0000

> <Gold.PLP.Chemscore.Metal>
0.0000

> <Gold.Chemscore.Hbonds>
donor molecule, donor type, donor heavy atom, donor atom, acceptor molecule, acceptor atom, score
      L1  H     8    22       P1  2945  0.67
      L1  H    10    23       P1   711  1.00

> <Gold.PLP.Chemscore.Internal.Correction>
   9.000000E+99

