#       Name:                CT1002167954
#       Creating user name   hitesit
#       Creation time:       Sun Apr 16 02:21:59 2023


#       File generated by GOLD software.
#

@<TRIPOS>MOLECULE
CT1002167954|ligand_prepared|mol2|1|dock6
    29    30     1
SMALL
NO_CHARGES


@<TRIPOS>ATOM
      1 C1         -26.5265   9.1842   3.4444 C.3            1 RES1               0.0000
      2 C2         -27.4956   9.6103   4.5660 C.ar           1 RES1               0.0000
      3 C3         -25.2275   9.9467   3.6880 C.2            1 RES1               0.0000
      4 C4         -26.3885   7.6696   3.5524 C.2            1 RES1               0.0000
      5 C5         -27.0323   9.5176   2.0216 C.3            1 RES1               0.0000
      6 C6         -27.0131   9.9695   5.8209 C.ar           1 RES1               0.0000
      7 C7         -28.8721   9.6515   4.3604 C.ar           1 RES1               0.0000
      8 N8         -24.1665   9.2460   4.1811 N.am           1 RES1               0.0000
      9 O9         -25.1471  11.1524   3.4879 O.2            1 RES1               0.0000
     10 N10        -25.1647   7.1595   3.8988 N.am           1 RES1               0.0000
     11 O11        -27.3326   6.9142   3.3569 O.2            1 RES1               0.0000
     12 C12        -25.9720   9.3649   0.9424 C.3            1 RES1               0.0000
     13 C13        -27.8750  10.3588   6.8328 C.ar           1 RES1               0.0000
     14 C14        -29.7323  10.0408   5.3738 C.ar           1 RES1               0.0000
     15 C15        -24.0554   7.8804   4.2480 C.2            1 RES1               0.0000
     16 C16        -29.2350  10.3951   6.6099 C.ar           1 RES1               0.0000
     17 O17        -23.0062   7.3495   4.6009 O.2            1 RES1               0.0000
     18 H18        -27.8761   8.8584   1.7833 H              1 RES1               0.0000
     19 H19        -27.4007  10.5509   2.0108 H              1 RES1               0.0000
     20 H20        -25.9461   9.9447   6.0157 H              1 RES1               0.0000
     21 H21        -29.2859   9.3760   3.3963 H              1 RES1               0.0000
     22 H22        -23.3832   9.7874   4.5328 H              1 RES1               0.0000
     23 H23        -25.0721   6.1487   3.8959 H              1 RES1               0.0000
     24 H24        -26.3792   9.6108  -0.0360 H              1 RES1               0.0000
     25 H25        -25.1286  10.0250   1.1342 H              1 RES1               0.0000
     26 H26        -25.6012   8.3425   0.9080 H              1 RES1               0.0000
     27 H27        -27.4786  10.6353   7.8043 H              1 RES1               0.0000
     28 H28        -30.8020  10.0674   5.1941 H              1 RES1               0.0000
     29 H29        -29.9099  10.7004   7.4026 H              1 RES1               0.0000
@<TRIPOS>BOND
    1    1    2 1     
    2    1    3 1     
    3    1    4 1     
    4    1    5 1     
    5    2    6 ar    
    6    2    7 ar    
    7    3    8 1     
    8    3    9 2     
    9    4   10 1     
   10    4   11 2     
   11    5   12 1     
   12    5   18 1     
   13    5   19 1     
   14    6   13 ar    
   15    6   20 1     
   16    7   14 ar    
   17    7   21 1     
   18    8   15 1     
   19    8   22 1     
   20   10   15 1     
   21   10   23 1     
   22   12   24 1     
   23   12   25 1     
   24   12   26 1     
   25   13   16 ar    
   26   13   27 1     
   27   14   16 ar    
   28   14   28 1     
   29   15   17 2     
   30   16   29 1     
@<TRIPOS>SUBSTRUCTURE
      1 RES1           1
@<TRIPOS>SET
DONOR_HYDROGENS      STATIC     ATOMS    <user>   **** ""
2 22 23
ATOM$RED        STATIC     ATOMS    COLORGROUP SYSTEM
2 22 23
@<TRIPOS>COMMENT
> <Gold.Version>
2022.3.0

> <Gold.Id.Protein>
unknown|5n23_clean|pdb

> <Gold.Protein.RotatedTorsions>
[ 3769 3760 3759 3757 ] final -150.92 input   59.98 | X-H torsion
[ 3689 3680 3679 3677 ] final  -20.71 input   60.00 | X-H torsion
[ 3966 3957 3956 3954 ] final  176.11 input   59.99 | X-H torsion
[ 2694 2683 2682 2681 ] final -139.08 input   59.97 | X-H torsion
[ 3230 3223 3221 3218 ] final  -23.60 input   59.99 | X-H torsion
[  719  714  712  709 ] final  152.32 input   60.03 | X-H torsion
[ 2029 2024 2023 2020 ] final  -60.83 input   60.01 | X-H torsion
[ 5218 5209 5208 5206 ] final   12.34 input   59.98 | X-H torsion
[ 3280 3271 3270 3268 ] final -140.78 input   60.01 | X-H torsion
[  739  734  733  730 ] final   95.59 input   59.99 | X-H torsion
[ 1252 1249 1248 1247 ] final -167.11 input   59.99 | X-H torsion
[ 3406 3401 3400 3397 ] final  174.26 input   59.98 | X-H torsion
[ 1341 1337 1335 1332 ] final    9.81 input   59.99 | X-H torsion

> <Gold.Protein.ActiveResidues>
 LEU49   GLY50   THR51   GLY52   SER53   PHE54   VAL79   LEU82   LYS83   GLN84  
 HIS87   THR88   GLY126  GLU127  MET128  PHE129  SER130  HIS131  LEU132  ARG133 
 ARG134  ILE135  GLY136  ARG137  ARG165  ASP166  LEU167  LYS168  PRO169  GLU170 
 ASN171  LEU173  ASP184  GLY186  PHE187  TRP196  TPO197  LEU198  CYS199  GLY200 
 THR201  PRO202  GLU203  TYR204  LEU205  ILE209  ILE210  SER212  VAL226  LEU227 
 TYR229  GLU230  ALA233  GLY234  TYR235  PRO236  PRO237  PHE238  PHE239  ALA240 
 ASP241  GLN242  PRO243  ILE244  GLN245  ILE246  TYR247  LYS249  ARG256  PHE257 
 PRO258  SER259  ASP328  TYR330 

> <Gold.Protein.RotatedAtoms>
  -18.9473   13.6568    6.5153 H   0  0  0  0  0  0  0  0  0  0  0  0  # atno 719  bound_to 714 
  -17.0884   11.2074   -1.4520 H   0  0  0  0  0  0  0  0  0  0  0  0  # atno 739  bound_to 734 
   -8.3891   10.3949  -11.2985 H   0  0  0  0  0  0  0  0  0  0  0  0  # atno 1252 bound_to 1249
   -7.9231   11.3083  -12.6002 H   0  0  0  0  0  0  0  0  0  0  0  0  # atno 1253 bound_to 1249
   -7.5689   11.8154  -11.0618 H   0  0  0  0  0  0  0  0  0  0  0  0  # atno 1254 bound_to 1249
  -20.9495   13.1516   -9.1148 H   0  0  0  0  0  0  0  0  0  0  0  0  # atno 1341 bound_to 1337
  -24.6880    5.0924   12.1939 H   0  0  0  0  0  0  0  0  0  0  0  0  # atno 2029 bound_to 2024
  -19.2317    4.8244    1.1644 H   0  0  0  0  0  0  0  0  0  0  0  0  # atno 2694 bound_to 2683
  -18.4330    3.3910    1.3993 H   0  0  0  0  0  0  0  0  0  0  0  0  # atno 2695 bound_to 2683
  -18.7791    3.9043   -0.1379 H   0  0  0  0  0  0  0  0  0  0  0  0  # atno 2696 bound_to 2683
  -17.0723    2.7084   -1.2500 H   0  0  0  0  0  0  0  0  0  0  0  0  # atno 3230 bound_to 3223
  -21.3307   -5.5856    3.6632 H   0  0  0  0  0  0  0  0  0  0  0  0  # atno 3280 bound_to 3271
   -5.7981   -1.6866  -13.2866 H   0  0  0  0  0  0  0  0  0  0  0  0  # atno 3406 bound_to 3401
  -15.7113  -13.3218    8.0528 H   0  0  0  0  0  0  0  0  0  0  0  0  # atno 3689 bound_to 3680
  -17.0584  -13.9128   12.9005 H   0  0  0  0  0  0  0  0  0  0  0  0  # atno 3769 bound_to 3760
   -8.4725    0.7046   -2.7753 H   0  0  0  0  0  0  0  0  0  0  0  0  # atno 3966 bound_to 3957
  -23.4280   12.7682   10.5297 H   0  0  0  0  0  0  0  0  0  0  0  0  # atno 5218 bound_to 5209
  -15.4486  -13.9508   12.6650 LP  0  0  0  0  0  0  0  0  0  0  0  0  # atno 5548 bound_to 3760
  -16.4655  -14.2615   11.4256 LP  0  0  0  0  0  0  0  0  0  0  0  0  # atno 5549 bound_to 3760
  -15.4971  -14.5179    6.9707 LP  0  0  0  0  0  0  0  0  0  0  0  0  # atno 5556 bound_to 3680
  -16.5016  -14.7318    8.2403 LP  0  0  0  0  0  0  0  0  0  0  0  0  # atno 5557 bound_to 3680
   -9.5710    0.1435   -1.7138 LP  0  0  0  0  0  0  0  0  0  0  0  0  # atno 5612 bound_to 3957
   -9.8792    0.0907   -3.3165 LP  0  0  0  0  0  0  0  0  0  0  0  0  # atno 5613 bound_to 3957
  -17.8820    2.4898    0.1447 LP  0  0  0  0  0  0  0  0  0  0  0  0  # atno 5616 bound_to 3223
  -18.3905    1.7545   -1.2218 LP  0  0  0  0  0  0  0  0  0  0  0  0  # atno 5617 bound_to 3223
  -20.1481   12.6745    6.0233 LP  0  0  0  0  0  0  0  0  0  0  0  0  # atno 5626 bound_to 714 
  -20.3139   13.5487    7.3926 LP  0  0  0  0  0  0  0  0  0  0  0  0  # atno 5627 bound_to 714 
  -26.1432    5.7673   11.9227 LP  0  0  0  0  0  0  0  0  0  0  0  0  # atno 5630 bound_to 2024
  -25.5255    4.6952   10.8570 LP  0  0  0  0  0  0  0  0  0  0  0  0  # atno 5631 bound_to 2024
  -21.8384   12.7565   10.8768 LP  0  0  0  0  0  0  0  0  0  0  0  0  # atno 5636 bound_to 5209
  -22.3570   13.3066    9.4294 LP  0  0  0  0  0  0  0  0  0  0  0  0  # atno 5637 bound_to 5209
  -21.8043   -4.0329    3.7804 LP  0  0  0  0  0  0  0  0  0  0  0  0  # atno 5660 bound_to 3271
  -20.3979   -4.5136    4.4568 LP  0  0  0  0  0  0  0  0  0  0  0  0  # atno 5661 bound_to 3271
  -16.0889   12.0571   -0.4897 LP  0  0  0  0  0  0  0  0  0  0  0  0  # atno 5668 bound_to 734 
  -15.7107   11.8225   -2.0609 LP  0  0  0  0  0  0  0  0  0  0  0  0  # atno 5669 bound_to 734 
   -6.6963   -2.5242  -12.2194 LP  0  0  0  0  0  0  0  0  0  0  0  0  # atno 5699 bound_to 3401
   -7.3681   -1.3113  -13.0821 LP  0  0  0  0  0  0  0  0  0  0  0  0  # atno 5700 bound_to 3401

> <Gold.Score>
     Fitness  S(hb_ext) S(vdw_ext)  S(hb_int)    S(int)      intcor
     30.58       1.40      21.64       0.00      -0.58      -0.76

> <Gold.Goldscore.Fitness>
30.5799

> <Gold.Goldscore.Internal.Vdw>
-0.7431

> <Gold.Goldscore.Internal.Torsion>
-0.5923

> <Gold.Goldscore.External.Vdw>
21.6400

> <Gold.Goldscore.Internal.HBond>
0.0000

> <Gold.Goldscore.External.HBond>
1.4036

> <Gold.Goldscore.Internal.Correction>
-0.7567

> <Gold.Goldscore.Hbonds>
donor molecule, donor type, donor heavy atom, donor atom, acceptor molecule, acceptor atom, score
      L1  H    10    23       P1  2714  0.70

> <Gold.Goldscore.Internal.Vdw.Weighted>
-0.7431

> <Gold.Goldscore.Internal.Torsion.Weighted>
-0.5923

> <Gold.Goldscore.External.Vdw.Weighted>
29.7550

> <Gold.Goldscore.Internal.HBond.Weighted>
0.0000

> <Gold.Goldscore.External.HBond.Weighted>
1.4036

> <Gold.Goldscore.Internal.Correction.Weighted>
-0.7567

> <Gold.Rescore>
     Score     S(PLP)   S(hbond)     S(cho)   S(metal)  DE(clash)   DE(tors)     intcor
     34.61     -34.31       0.90       0.00       0.00       0.01       1.19       ----

> <Gold.PLP.Fitness>
34.6080

> <Gold.PLP.PLP>
-34.3130

> <Gold.PLP.part.hbond>
-1.6282

> <Gold.PLP.part.metal>
0.0000

> <Gold.PLP.part.buried>
-4.9999

> <Gold.PLP.part.nonpolar>
-28.4794

> <Gold.PLP.part.repulsive>
0.4912

> <Gold.PLP.ligand.clash>
0.0054

> <Gold.PLP.ligand.torsion>
1.1938

> <Gold.PLP.Chemscore.Hbond>
0.8960

> <Gold.PLP.Chemscore.CHOScore>
0.0000

> <Gold.PLP.Chemscore.Metal>
0.0000

> <Gold.Chemscore.Hbonds>
donor molecule, donor type, donor heavy atom, donor atom, acceptor molecule, acceptor atom, score
      L1  H    10    23       P1  2714  1.00

> <Gold.PLP.Chemscore.Internal.Correction>
   9.000000E+99

