#       Name:                CT1002167954
#       Creating user name   hitesit
#       Creation time:       Sun Apr 16 02:21:56 2023


#       File generated by GOLD software.
#

@<TRIPOS>MOLECULE
CT1002167954|ligand_prepared|mol2|1|dock4
    29    30     1
SMALL
NO_CHARGES


@<TRIPOS>ATOM
      1 C1         -19.2665   9.3512  -2.4429 C.3            1 RES1               0.0000
      2 C2         -17.9105   9.3223  -3.1772 C.ar           1 RES1               0.0000
      3 C3         -19.9617   8.0341  -2.7748 C.2            1 RES1               0.0000
      4 C4         -18.9464   9.5300  -0.9629 C.2            1 RES1               0.0000
      5 C5         -20.1873  10.5155  -2.8766 C.3            1 RES1               0.0000
      6 C6         -16.8938   8.4711  -2.7547 C.ar           1 RES1               0.0000
      7 C7         -17.6629  10.1376  -4.2784 C.ar           1 RES1               0.0000
      8 N8         -20.0220   7.0871  -1.7953 N.am           1 RES1               0.0000
      9 O9         -20.4151   7.8145  -3.8912 O.2            1 RES1               0.0000
     10 N10        -19.2550   8.5024  -0.1105 N.am           1 RES1               0.0000
     11 O11        -18.4145  10.5448  -0.5298 O.2            1 RES1               0.0000
     12 C12        -21.4497  10.6436  -2.0388 C.3            1 RES1               0.0000
     13 C13        -15.6747   8.4341  -3.4110 C.ar           1 RES1               0.0000
     14 C14        -16.4429  10.0991  -4.9332 C.ar           1 RES1               0.0000
     15 C15        -19.7502   7.2769  -0.4642 C.2            1 RES1               0.0000
     16 C16        -15.4486   9.2476  -4.5008 C.ar           1 RES1               0.0000
     17 O17        -19.9509   6.3839   0.3540 O.2            1 RES1               0.0000
     18 H18        -19.6237  11.4544  -2.8116 H              1 RES1               0.0000
     19 H19        -20.4730  10.3679  -3.9254 H              1 RES1               0.0000
     20 H20        -17.0526   7.8254  -1.8975 H              1 RES1               0.0000
     21 H21        -18.4301  10.8161  -4.6355 H              1 RES1               0.0000
     22 H22        -20.2943   6.1512  -2.0787 H              1 RES1               0.0000
     23 H23        -19.1016   8.6664   0.8794 H              1 RES1               0.0000
     24 H24        -22.0597  11.4753  -2.3850 H              1 RES1               0.0000
     25 H25        -22.0473   9.7364  -2.1004 H              1 RES1               0.0000
     26 H26        -21.2029  10.8165  -0.9933 H              1 RES1               0.0000
     27 H27        -14.8950   7.7631  -3.0660 H              1 RES1               0.0000
     28 H28        -16.2691  10.7416  -5.7901 H              1 RES1               0.0000
     29 H29        -14.4936   9.2181  -5.0150 H              1 RES1               0.0000
@<TRIPOS>BOND
    1    1    2 1     
    2    1    3 1     
    3    1    4 1     
    4    1    5 1     
    5    2    6 ar    
    6    2    7 ar    
    7    3    8 1     
    8    3    9 2     
    9    4   10 1     
   10    4   11 2     
   11    5   12 1     
   12    5   18 1     
   13    5   19 1     
   14    6   13 ar    
   15    6   20 1     
   16    7   14 ar    
   17    7   21 1     
   18    8   15 1     
   19    8   22 1     
   20   10   15 1     
   21   10   23 1     
   22   12   24 1     
   23   12   25 1     
   24   12   26 1     
   25   13   16 ar    
   26   13   27 1     
   27   14   16 ar    
   28   14   28 1     
   29   15   17 2     
   30   16   29 1     
@<TRIPOS>SUBSTRUCTURE
      1 RES1           1
@<TRIPOS>SET
DONOR_HYDROGENS      STATIC     ATOMS    <user>   **** ""
2 22 23
ATOM$RED        STATIC     ATOMS    COLORGROUP SYSTEM
2 22 23
@<TRIPOS>COMMENT
> <Gold.Version>
2022.3.0

> <Gold.Id.Protein>
unknown|5n23_clean|pdb

> <Gold.Protein.RotatedTorsions>
[ 3769 3760 3759 3757 ] final   78.03 input   59.98 | X-H torsion
[ 3689 3680 3679 3677 ] final -156.33 input   60.00 | X-H torsion
[ 3966 3957 3956 3954 ] final -169.84 input   59.99 | X-H torsion
[ 2694 2683 2682 2681 ] final  -42.11 input   59.97 | X-H torsion
[ 3230 3223 3221 3218 ] final  -61.59 input   59.99 | X-H torsion
[  719  714  712  709 ] final  178.04 input   60.03 | X-H torsion
[ 2029 2024 2023 2020 ] final  -25.09 input   60.01 | X-H torsion
[ 5218 5209 5208 5206 ] final -104.13 input   59.98 | X-H torsion
[ 3280 3271 3270 3268 ] final  -90.33 input   60.01 | X-H torsion
[  739  734  733  730 ] final   78.87 input   59.99 | X-H torsion
[ 1252 1249 1248 1247 ] final  158.68 input   59.99 | X-H torsion
[ 3406 3401 3400 3397 ] final  -70.60 input   59.98 | X-H torsion
[ 1341 1337 1335 1332 ] final   63.32 input   59.99 | X-H torsion

> <Gold.Protein.ActiveResidues>
 LEU49   GLY50   THR51   GLY52   SER53   PHE54   VAL79   LEU82   LYS83   GLN84  
 HIS87   THR88   GLY126  GLU127  MET128  PHE129  SER130  HIS131  LEU132  ARG133 
 ARG134  ILE135  GLY136  ARG137  ARG165  ASP166  LEU167  LYS168  PRO169  GLU170 
 ASN171  LEU173  ASP184  GLY186  PHE187  TRP196  TPO197  LEU198  CYS199  GLY200 
 THR201  PRO202  GLU203  TYR204  LEU205  ILE209  ILE210  SER212  VAL226  LEU227 
 TYR229  GLU230  ALA233  GLY234  TYR235  PRO236  PRO237  PHE238  PHE239  ALA240 
 ASP241  GLN242  PRO243  ILE244  GLN245  ILE246  TYR247  LYS249  ARG256  PHE257 
 PRO258  SER259  ASP328  TYR330 

> <Gold.Protein.RotatedAtoms>
  -19.0732   13.8386    6.8687 H   0  0  0  0  0  0  0  0  0  0  0  0  # atno 719  bound_to 714 
  -17.1174   11.2668   -1.1880 H   0  0  0  0  0  0  0  0  0  0  0  0  # atno 739  bound_to 734 
   -8.2001   10.6937  -10.8611 H   0  0  0  0  0  0  0  0  0  0  0  0  # atno 1252 bound_to 1249
   -8.1959   10.8236  -12.5131 H   0  0  0  0  0  0  0  0  0  0  0  0  # atno 1253 bound_to 1249
   -7.4852   12.0010  -11.5868 H   0  0  0  0  0  0  0  0  0  0  0  0  # atno 1254 bound_to 1249
  -20.3702   13.6025   -9.5294 H   0  0  0  0  0  0  0  0  0  0  0  0  # atno 1341 bound_to 1337
  -24.6250    4.7508   11.7367 H   0  0  0  0  0  0  0  0  0  0  0  0  # atno 2029 bound_to 2024
  -18.5663    3.6506    1.6468 H   0  0  0  0  0  0  0  0  0  0  0  0  # atno 2694 bound_to 2683
  -18.6016    3.5919   -0.0094 H   0  0  0  0  0  0  0  0  0  0  0  0  # atno 2695 bound_to 2683
  -19.2765    4.8780    0.7887 H   0  0  0  0  0  0  0  0  0  0  0  0  # atno 2696 bound_to 2683
  -17.0426    2.8851   -0.6674 H   0  0  0  0  0  0  0  0  0  0  0  0  # atno 3230 bound_to 3223
  -20.6531   -5.4811    4.0718 H   0  0  0  0  0  0  0  0  0  0  0  0  # atno 3280 bound_to 3271
   -7.3168   -1.2780  -13.1337 H   0  0  0  0  0  0  0  0  0  0  0  0  # atno 3406 bound_to 3401
  -15.6388  -14.7212    7.0324 H   0  0  0  0  0  0  0  0  0  0  0  0  # atno 3689 bound_to 3680
  -15.4052  -13.9895   12.4936 H   0  0  0  0  0  0  0  0  0  0  0  0  # atno 3769 bound_to 3760
   -8.5403    0.6855   -2.9933 H   0  0  0  0  0  0  0  0  0  0  0  0  # atno 3966 bound_to 3957
  -21.8830   12.7417   10.9115 H   0  0  0  0  0  0  0  0  0  0  0  0  # atno 5218 bound_to 5209
  -16.6417  -14.2534   11.4690 LP  0  0  0  0  0  0  0  0  0  0  0  0  # atno 5548 bound_to 3760
  -16.9374  -13.8817   13.0314 LP  0  0  0  0  0  0  0  0  0  0  0  0  # atno 5549 bound_to 3760
  -16.5123  -14.5249    8.3912 LP  0  0  0  0  0  0  0  0  0  0  0  0  # atno 5556 bound_to 3680
  -15.5594  -13.3152    7.8477 LP  0  0  0  0  0  0  0  0  0  0  0  0  # atno 5557 bound_to 3680
   -9.3652    0.2353   -1.6646 LP  0  0  0  0  0  0  0  0  0  0  0  0  # atno 5612 bound_to 3957
  -10.0167    0.0181   -3.1462 LP  0  0  0  0  0  0  0  0  0  0  0  0  # atno 5613 bound_to 3957
  -18.3302    2.1131   -0.0392 LP  0  0  0  0  0  0  0  0  0  0  0  0  # atno 5616 bound_to 3223
  -17.9723    1.9533   -1.6245 LP  0  0  0  0  0  0  0  0  0  0  0  0  # atno 5617 bound_to 3223
  -19.7696   12.7630    5.8652 LP  0  0  0  0  0  0  0  0  0  0  0  0  # atno 5626 bound_to 714 
  -20.5656   13.2772    7.1951 LP  0  0  0  0  0  0  0  0  0  0  0  0  # atno 5627 bound_to 714 
  -25.7279    5.7920   12.3249 LP  0  0  0  0  0  0  0  0  0  0  0  0  # atno 5630 bound_to 2024
  -26.0043    5.0148   10.9156 LP  0  0  0  0  0  0  0  0  0  0  0  0  # atno 5631 bound_to 2024
  -22.3004   13.3056    9.4434 LP  0  0  0  0  0  0  0  0  0  0  0  0  # atno 5636 bound_to 5209
  -23.4508   12.7841   10.4783 LP  0  0  0  0  0  0  0  0  0  0  0  0  # atno 5637 bound_to 5209
  -21.9932   -4.7598    3.4948 LP  0  0  0  0  0  0  0  0  0  0  0  0  # atno 5660 bound_to 3271
  -20.8912   -3.8920    4.3310 LP  0  0  0  0  0  0  0  0  0  0  0  0  # atno 5661 bound_to 3271
  -15.8682   12.1449   -0.6265 LP  0  0  0  0  0  0  0  0  0  0  0  0  # atno 5668 bound_to 734 
  -15.9023   11.6749   -2.1900 LP  0  0  0  0  0  0  0  0  0  0  0  0  # atno 5669 bound_to 734 
   -5.7616   -1.7435  -13.2439 LP  0  0  0  0  0  0  0  0  0  0  0  0  # atno 5699 bound_to 3401
   -6.7733   -2.5035  -12.2116 LP  0  0  0  0  0  0  0  0  0  0  0  0  # atno 5700 bound_to 3401

> <Gold.Score>
     Fitness  S(hb_ext) S(vdw_ext)  S(hb_int)    S(int)      intcor
     33.61       7.92      18.70       0.00      -0.02      -0.76

> <Gold.Goldscore.Fitness>
33.6084

> <Gold.Goldscore.Internal.Vdw>
-0.3308

> <Gold.Goldscore.Internal.Torsion>
-0.4418

> <Gold.Goldscore.External.Vdw>
18.6970

> <Gold.Goldscore.Internal.HBond>
0.0000

> <Gold.Goldscore.External.HBond>
7.9159

> <Gold.Goldscore.Internal.Correction>
-0.7567

> <Gold.Goldscore.Hbonds>
donor molecule, donor type, donor heavy atom, donor atom, acceptor molecule, acceptor atom, score
      P1  H  2683  2696       L1    17  0.37
      P1  H   734   739       L1    11  0.98
      L1  H     8    22       P1  2651  0.63

> <Gold.Goldscore.Internal.Vdw.Weighted>
-0.3308

> <Gold.Goldscore.Internal.Torsion.Weighted>
-0.4418

> <Gold.Goldscore.External.Vdw.Weighted>
25.7084

> <Gold.Goldscore.Internal.HBond.Weighted>
0.0000

> <Gold.Goldscore.External.HBond.Weighted>
7.9159

> <Gold.Goldscore.Internal.Correction.Weighted>
-0.7567

> <Gold.Rescore>
     Score     S(PLP)   S(hbond)     S(cho)   S(metal)  DE(clash)   DE(tors)     intcor
     41.63     -32.94       3.28       0.00       0.00       0.00       0.57       ----

> <Gold.PLP.Fitness>
41.6284

> <Gold.PLP.PLP>
-32.9369

> <Gold.PLP.part.hbond>
-4.0000

> <Gold.PLP.part.metal>
0.0000

> <Gold.PLP.part.buried>
-3.9462

> <Gold.PLP.part.nonpolar>
-25.9159

> <Gold.PLP.part.repulsive>
0.4584

> <Gold.PLP.ligand.clash>
0.0000

> <Gold.PLP.ligand.torsion>
0.5710

> <Gold.PLP.Chemscore.Hbond>
3.2778

> <Gold.PLP.Chemscore.CHOScore>
0.0000

> <Gold.PLP.Chemscore.Metal>
0.0000

> <Gold.Chemscore.Hbonds>
donor molecule, donor type, donor heavy atom, donor atom, acceptor molecule, acceptor atom, score
      L1  H     8    22       P1  2651  0.88
      P1  H  2683  2696       L1    17  1.00
      P1  H   734   739       L1    11  1.00
      P1  H   729   738       L1    11  0.23

> <Gold.PLP.Chemscore.Internal.Correction>
   9.000000E+99

