#       Name:                CT1002167954
#       Creating user name   hitesit
#       Creation time:       Sun Apr 16 02:21:57 2023


#       File generated by GOLD software.
#

@<TRIPOS>MOLECULE
CT1002167954|ligand_prepared|mol2|1|dock5
    29    30     1
SMALL
NO_CHARGES


@<TRIPOS>ATOM
      1 C1         -20.3750   9.5552  -2.6143 C.3            1 RES1               0.0000
      2 C2         -19.2375   9.7636  -3.6348 C.ar           1 RES1               0.0000
      3 C3         -20.8216   8.1036  -2.7611 C.2            1 RES1               0.0000
      4 C4         -19.7885   9.8904  -1.2474 C.2            1 RES1               0.0000
      5 C5         -21.5987  10.4716  -2.8469 C.3            1 RES1               0.0000
      6 C6         -19.5202   9.9254  -4.9878 C.ar           1 RES1               0.0000
      7 C7         -17.9031   9.7989  -3.2387 C.ar           1 RES1               0.0000
      8 N8         -20.4605   7.2290  -1.7790 N.am           1 RES1               0.0000
      9 O9         -21.4473   7.7237  -3.7432 O.2            1 RES1               0.0000
     10 N10        -19.6737   8.8773  -0.3319 N.am           1 RES1               0.0000
     11 O11        -19.4094  11.0193  -0.9606 O.2            1 RES1               0.0000
     12 C12        -21.2366  11.9284  -3.0891 C.3            1 RES1               0.0000
     13 C13        -18.5060  10.1185  -5.9110 C.ar           1 RES1               0.0000
     14 C14        -16.8904   9.9920  -4.1637 C.ar           1 RES1               0.0000
     15 C15        -19.9547   7.5554  -0.5464 C.2            1 RES1               0.0000
     16 C16        -17.1906  10.1524  -5.4997 C.ar           1 RES1               0.0000
     17 O17        -19.7739   6.6939   0.3094 O.2            1 RES1               0.0000
     18 H18        -22.1597  10.0985  -3.7126 H              1 RES1               0.0000
     19 H19        -22.2560  10.4122  -1.9706 H              1 RES1               0.0000
     20 H20        -20.5492   9.8992  -5.3305 H              1 RES1               0.0000
     21 H21        -17.6433   9.6739  -2.1930 H              1 RES1               0.0000
     22 H22        -20.5773   6.2408  -1.9795 H              1 RES1               0.0000
     23 H23        -19.3488   9.1321   0.5953 H              1 RES1               0.0000
     24 H24        -22.1312  12.5273  -3.2463 H              1 RES1               0.0000
     25 H25        -20.6993  12.3392  -2.2368 H              1 RES1               0.0000
     26 H26        -20.6036  12.0274  -3.9685 H              1 RES1               0.0000
     27 H27        -18.7474  10.2429  -6.9615 H              1 RES1               0.0000
     28 H28        -15.8565  10.0173  -3.8355 H              1 RES1               0.0000
     29 H29        -16.3963  10.3041  -6.2231 H              1 RES1               0.0000
@<TRIPOS>BOND
    1    1    2 1     
    2    1    3 1     
    3    1    4 1     
    4    1    5 1     
    5    2    6 ar    
    6    2    7 ar    
    7    3    8 1     
    8    3    9 2     
    9    4   10 1     
   10    4   11 2     
   11    5   12 1     
   12    5   18 1     
   13    5   19 1     
   14    6   13 ar    
   15    6   20 1     
   16    7   14 ar    
   17    7   21 1     
   18    8   15 1     
   19    8   22 1     
   20   10   15 1     
   21   10   23 1     
   22   12   24 1     
   23   12   25 1     
   24   12   26 1     
   25   13   16 ar    
   26   13   27 1     
   27   14   16 ar    
   28   14   28 1     
   29   15   17 2     
   30   16   29 1     
@<TRIPOS>SUBSTRUCTURE
      1 RES1           1
@<TRIPOS>SET
DONOR_HYDROGENS      STATIC     ATOMS    <user>   **** ""
2 22 23
ATOM$RED        STATIC     ATOMS    COLORGROUP SYSTEM
2 22 23
@<TRIPOS>COMMENT
> <Gold.Version>
2022.3.0

> <Gold.Id.Protein>
unknown|5n23_clean|pdb

> <Gold.Protein.RotatedTorsions>
[ 3769 3760 3759 3757 ] final   35.30 input   59.98 | X-H torsion
[ 3689 3680 3679 3677 ] final   24.15 input   60.00 | X-H torsion
[ 3966 3957 3956 3954 ] final  172.08 input   59.99 | X-H torsion
[ 2694 2683 2682 2681 ] final -159.87 input   59.97 | X-H torsion
[ 3230 3223 3221 3218 ] final  112.94 input   59.99 | X-H torsion
[  719  714  712  709 ] final  -48.96 input   60.03 | X-H torsion
[ 2029 2024 2023 2020 ] final -139.14 input   60.01 | X-H torsion
[ 5218 5209 5208 5206 ] final   55.38 input   59.98 | X-H torsion
[ 3280 3271 3270 3268 ] final   98.04 input   60.01 | X-H torsion
[  739  734  733  730 ] final   38.92 input   59.99 | X-H torsion
[ 1252 1249 1248 1247 ] final  -10.14 input   59.99 | X-H torsion
[ 3406 3401 3400 3397 ] final   60.25 input   59.98 | X-H torsion
[ 1341 1337 1335 1332 ] final   36.42 input   59.99 | X-H torsion

> <Gold.Protein.ActiveResidues>
 LEU49   GLY50   THR51   GLY52   SER53   PHE54   VAL79   LEU82   LYS83   GLN84  
 HIS87   THR88   GLY126  GLU127  MET128  PHE129  SER130  HIS131  LEU132  ARG133 
 ARG134  ILE135  GLY136  ARG137  ARG165  ASP166  LEU167  LYS168  PRO169  GLU170 
 ASN171  LEU173  ASP184  GLY186  PHE187  TRP196  TPO197  LEU198  CYS199  GLY200 
 THR201  PRO202  GLU203  TYR204  LEU205  ILE209  ILE210  SER212  VAL226  LEU227 
 TYR229  GLU230  ALA233  GLY234  TYR235  PRO236  PRO237  PHE238  PHE239  ALA240 
 ASP241  GLN242  PRO243  ILE244  GLN245  ILE246  TYR247  LYS249  ARG256  PHE257 
 PRO258  SER259  ASP328  TYR330 

> <Gold.Protein.RotatedAtoms>
  -20.6327   13.1406    7.0462 H   0  0  0  0  0  0  0  0  0  0  0  0  # atno 719  bound_to 714 
  -16.9138   11.5398   -0.6470 H   0  0  0  0  0  0  0  0  0  0  0  0  # atno 739  bound_to 734 
   -7.6460   11.7739  -12.3272 H   0  0  0  0  0  0  0  0  0  0  0  0  # atno 1252 bound_to 1249
   -7.8094   11.3684  -10.7288 H   0  0  0  0  0  0  0  0  0  0  0  0  # atno 1253 bound_to 1249
   -8.4266   10.3746  -11.9038 H   0  0  0  0  0  0  0  0  0  0  0  0  # atno 1254 bound_to 1249
  -20.6309   13.2928   -9.3682 H   0  0  0  0  0  0  0  0  0  0  0  0  # atno 1341 bound_to 1337
  -25.6429    5.7667   12.3661 H   0  0  0  0  0  0  0  0  0  0  0  0  # atno 2029 bound_to 2024
  -19.2754    4.8785    0.8261 H   0  0  0  0  0  0  0  0  0  0  0  0  # atno 2694 bound_to 2683
  -18.5505    3.6217    1.6279 H   0  0  0  0  0  0  0  0  0  0  0  0  # atno 2695 bound_to 2683
  -18.6179    3.6193   -0.0280 H   0  0  0  0  0  0  0  0  0  0  0  0  # atno 2696 bound_to 2683
  -18.4928    1.7434   -0.9718 H   0  0  0  0  0  0  0  0  0  0  0  0  # atno 3230 bound_to 3223
  -21.7878   -4.0243    3.7890 H   0  0  0  0  0  0  0  0  0  0  0  0  # atno 3280 bound_to 3271
   -6.6017   -2.5397  -12.2419 H   0  0  0  0  0  0  0  0  0  0  0  0  # atno 3406 bound_to 3401
  -16.1735  -13.6604    8.4794 H   0  0  0  0  0  0  0  0  0  0  0  0  # atno 3689 bound_to 3680
  -15.5346  -14.1475   11.8426 H   0  0  0  0  0  0  0  0  0  0  0  0  # atno 3769 bound_to 3760
   -8.4621    0.7057   -2.7104 H   0  0  0  0  0  0  0  0  0  0  0  0  # atno 3966 bound_to 3957
  -23.3928   13.0311    9.8961 H   0  0  0  0  0  0  0  0  0  0  0  0  # atno 5218 bound_to 5209
  -17.1606  -14.1544   11.9082 LP  0  0  0  0  0  0  0  0  0  0  0  0  # atno 5548 bound_to 3760
  -16.2881  -13.8215   13.2477 LP  0  0  0  0  0  0  0  0  0  0  0  0  # atno 5549 bound_to 3760
  -15.2920  -13.8456    7.1242 LP  0  0  0  0  0  0  0  0  0  0  0  0  # atno 5556 bound_to 3680
  -16.2410  -15.0630    7.6572 LP  0  0  0  0  0  0  0  0  0  0  0  0  # atno 5557 bound_to 3680
   -9.6276    0.1188   -1.7379 LP  0  0  0  0  0  0  0  0  0  0  0  0  # atno 5612 bound_to 3957
   -9.8331    0.1142   -3.3578 LP  0  0  0  0  0  0  0  0  0  0  0  0  # atno 5613 bound_to 3957
  -17.1817    2.5757   -1.4586 LP  0  0  0  0  0  0  0  0  0  0  0  0  # atno 5616 bound_to 3223
  -17.6605    2.6403    0.1013 LP  0  0  0  0  0  0  0  0  0  0  0  0  # atno 5617 bound_to 3223
  -19.1896   13.8931    7.0385 LP  0  0  0  0  0  0  0  0  0  0  0  0  # atno 5626 bound_to 714 
  -19.5759   12.8498    5.8431 LP  0  0  0  0  0  0  0  0  0  0  0  0  # atno 5627 bound_to 714 
  -26.0676    5.0780   10.9547 LP  0  0  0  0  0  0  0  0  0  0  0  0  # atno 5630 bound_to 2024
  -24.6387    4.7049   11.6515 LP  0  0  0  0  0  0  0  0  0  0  0  0  # atno 5631 bound_to 2024
  -22.4526   12.5928   11.1497 LP  0  0  0  0  0  0  0  0  0  0  0  0  # atno 5636 bound_to 5209
  -21.7782   13.2055    9.7945 LP  0  0  0  0  0  0  0  0  0  0  0  0  # atno 5637 bound_to 5209
  -20.3925   -4.5322    4.4553 LP  0  0  0  0  0  0  0  0  0  0  0  0  # atno 5660 bound_to 3271
  -21.3496   -5.5860    3.6552 LP  0  0  0  0  0  0  0  0  0  0  0  0  # atno 5661 bound_to 3271
  -15.5162   12.1929   -1.1637 LP  0  0  0  0  0  0  0  0  0  0  0  0  # atno 5668 bound_to 734 
  -16.4594   11.3518   -2.1978 LP  0  0  0  0  0  0  0  0  0  0  0  0  # atno 5669 bound_to 734 
   -7.4185   -1.3649  -13.0165 LP  0  0  0  0  0  0  0  0  0  0  0  0  # atno 5699 bound_to 3401
   -5.8365   -1.6114  -13.3373 LP  0  0  0  0  0  0  0  0  0  0  0  0  # atno 5700 bound_to 3401

> <Gold.Score>
     Fitness  S(hb_ext) S(vdw_ext)  S(hb_int)    S(int)      intcor
     37.55       9.42      22.60       0.00      -2.95      -0.76

> <Gold.Goldscore.Fitness>
37.5474

> <Gold.Goldscore.Internal.Vdw>
-3.0724

> <Gold.Goldscore.Internal.Torsion>
-0.6329

> <Gold.Goldscore.External.Vdw>
22.6044

> <Gold.Goldscore.Internal.HBond>
0.0000

> <Gold.Goldscore.External.HBond>
9.4150

> <Gold.Goldscore.Internal.Correction>
-0.7567

> <Gold.Goldscore.Hbonds>
donor molecule, donor type, donor heavy atom, donor atom, acceptor molecule, acceptor atom, score
      P1  H  2683  2694       L1    17  1.00
      P1  H   729   738       L1    11  0.48
      L1  H     8    22       P1  2651  0.41

> <Gold.Goldscore.Internal.Vdw.Weighted>
-3.0724

> <Gold.Goldscore.Internal.Torsion.Weighted>
-0.6329

> <Gold.Goldscore.External.Vdw.Weighted>
31.0810

> <Gold.Goldscore.Internal.HBond.Weighted>
0.0000

> <Gold.Goldscore.External.HBond.Weighted>
9.4150

> <Gold.Goldscore.Internal.Correction.Weighted>
-0.7567

> <Gold.Rescore>
     Score     S(PLP)   S(hbond)     S(cho)   S(metal)  DE(clash)   DE(tors)     intcor
     40.93     -33.20       3.34       0.00       0.00       0.00       1.14       ----

> <Gold.PLP.Fitness>
40.9320

> <Gold.PLP.PLP>
-33.1970

> <Gold.PLP.part.hbond>
-3.7091

> <Gold.PLP.part.metal>
0.0000

> <Gold.PLP.part.buried>
-3.7300

> <Gold.PLP.part.nonpolar>
-27.5182

> <Gold.PLP.part.repulsive>
0.9778

> <Gold.PLP.ligand.clash>
0.0000

> <Gold.PLP.ligand.torsion>
1.1436

> <Gold.PLP.Chemscore.Hbond>
3.3408

> <Gold.PLP.Chemscore.CHOScore>
0.0000

> <Gold.PLP.Chemscore.Metal>
0.0000

> <Gold.Chemscore.Hbonds>
donor molecule, donor type, donor heavy atom, donor atom, acceptor molecule, acceptor atom, score
      L1  H     8    22       P1  2651  0.70
      P1  H  2683  2694       L1    17  1.00
      P1  H   729   738       L1    11  0.98

> <Gold.PLP.Chemscore.Internal.Correction>
   9.000000E+99

