#       Name:                CT1002167954
#       Creating user name   hitesit
#       Creation time:       Sun Apr 16 02:22:03 2023


#       File generated by GOLD software.
#

@<TRIPOS>MOLECULE
CT1002167954|ligand_prepared|mol2|1|dock9
    29    30     1
SMALL
NO_CHARGES


@<TRIPOS>ATOM
      1 C1         -25.0866   9.2404   3.4083 C.3            1 RES1               0.0000
      2 C2         -26.0083   9.5318   2.2064 C.ar           1 RES1               0.0000
      3 C3         -25.0694   7.7240   3.5771 C.2            1 RES1               0.0000
      4 C4         -23.7298   9.8432   3.0614 C.2            1 RES1               0.0000
      5 C5         -25.5675   9.8767   4.7332 C.3            1 RES1               0.0000
      6 C6         -25.5198   9.4608   0.9053 C.ar           1 RES1               0.0000
      7 C7         -27.3474   9.8698   2.3827 C.ar           1 RES1               0.0000
      8 N8         -23.9420   7.0585   3.1950 N.am           1 RES1               0.0000
      9 O9         -26.0448   7.1172   4.0021 O.2            1 RES1               0.0000
     10 N10        -22.6729   8.9885   2.8880 N.am           1 RES1               0.0000
     11 O11        -23.5701  11.0494   2.9204 O.2            1 RES1               0.0000
     12 C12        -24.5369   9.8207   5.8498 C.3            1 RES1               0.0000
     13 C13        -26.3410   9.7155  -0.1806 C.ar           1 RES1               0.0000
     14 C14        -28.1669  10.1243   1.2954 C.ar           1 RES1               0.0000
     15 C15        -22.7242   7.6213   2.9088 C.2            1 RES1               0.0000
     16 C16        -27.6650  10.0469   0.0136 C.ar           1 RES1               0.0000
     17 O17        -21.7411   6.9195   2.6896 O.2            1 RES1               0.0000
     18 H18        -25.8294  10.9255   4.5466 H              1 RES1               0.0000
     19 H19        -26.4757   9.3583   5.0647 H              1 RES1               0.0000
     20 H20        -24.4799   9.2039   0.7329 H              1 RES1               0.0000
     21 H21        -27.7637   9.9377   3.3820 H              1 RES1               0.0000
     22 H22        -24.0108   6.0490   3.1144 H              1 RES1               0.0000
     23 H23        -21.7636   9.4105   2.7287 H              1 RES1               0.0000
     24 H24        -24.9250  10.2804   6.7563 H              1 RES1               0.0000
     25 H25        -24.2719   8.7906   6.0789 H              1 RES1               0.0000
     26 H26        -23.6294  10.3486   5.5639 H              1 RES1               0.0000
     27 H27        -25.9408   9.6546  -1.1873 H              1 RES1               0.0000
     28 H28        -29.2081  10.3854   1.4529 H              1 RES1               0.0000
     29 H29        -28.3082  10.2460  -0.8372 H              1 RES1               0.0000
@<TRIPOS>BOND
    1    1    2 1     
    2    1    3 1     
    3    1    4 1     
    4    1    5 1     
    5    2    6 ar    
    6    2    7 ar    
    7    3    8 1     
    8    3    9 2     
    9    4   10 1     
   10    4   11 2     
   11    5   12 1     
   12    5   18 1     
   13    5   19 1     
   14    6   13 ar    
   15    6   20 1     
   16    7   14 ar    
   17    7   21 1     
   18    8   15 1     
   19    8   22 1     
   20   10   15 1     
   21   10   23 1     
   22   12   24 1     
   23   12   25 1     
   24   12   26 1     
   25   13   16 ar    
   26   13   27 1     
   27   14   16 ar    
   28   14   28 1     
   29   15   17 2     
   30   16   29 1     
@<TRIPOS>SUBSTRUCTURE
      1 RES1           1
@<TRIPOS>SET
DONOR_HYDROGENS      STATIC     ATOMS    <user>   **** ""
2 22 23
ATOM$RED        STATIC     ATOMS    COLORGROUP SYSTEM
2 22 23
@<TRIPOS>COMMENT
> <Gold.Version>
2022.3.0

> <Gold.Id.Protein>
unknown|5n23_clean|pdb

> <Gold.Protein.RotatedTorsions>
[ 3769 3760 3759 3757 ] final   80.54 input   59.98 | X-H torsion
[ 3689 3680 3679 3677 ] final  160.40 input   60.00 | X-H torsion
[ 3966 3957 3956 3954 ] final  -39.02 input   59.99 | X-H torsion
[ 2694 2683 2682 2681 ] final   25.42 input   59.97 | X-H torsion
[ 3230 3223 3221 3218 ] final -126.17 input   59.99 | X-H torsion
[  719  714  712  709 ] final  157.49 input   60.03 | X-H torsion
[ 2029 2024 2023 2020 ] final   21.00 input   60.01 | X-H torsion
[ 5218 5209 5208 5206 ] final   27.46 input   59.98 | X-H torsion
[ 3280 3271 3270 3268 ] final  111.96 input   60.01 | X-H torsion
[  739  734  733  730 ] final  -76.56 input   59.99 | X-H torsion
[ 1252 1249 1248 1247 ] final  -89.01 input   59.99 | X-H torsion
[ 3406 3401 3400 3397 ] final -162.71 input   59.98 | X-H torsion
[ 1341 1337 1335 1332 ] final  -42.78 input   59.99 | X-H torsion

> <Gold.Protein.ActiveResidues>
 LEU49   GLY50   THR51   GLY52   SER53   PHE54   VAL79   LEU82   LYS83   GLN84  
 HIS87   THR88   GLY126  GLU127  MET128  PHE129  SER130  HIS131  LEU132  ARG133 
 ARG134  ILE135  GLY136  ARG137  ARG165  ASP166  LEU167  LYS168  PRO169  GLU170 
 ASN171  LEU173  ASP184  GLY186  PHE187  TRP196  TPO197  LEU198  CYS199  GLY200 
 THR201  PRO202  GLU203  TYR204  LEU205  ILE209  ILE210  SER212  VAL226  LEU227 
 TYR229  GLU230  ALA233  GLY234  TYR235  PRO236  PRO237  PHE238  PHE239  ALA240 
 ASP241  GLN242  PRO243  ILE244  GLN245  ILE246  TYR247  LYS249  ARG256  PHE257 
 PRO258  SER259  ASP328  TYR330 

> <Gold.Protein.RotatedAtoms>
  -18.9593   13.7005    6.5867 H   0  0  0  0  0  0  0  0  0  0  0  0  # atno 719  bound_to 714 
  -15.5463   12.1982   -1.0959 H   0  0  0  0  0  0  0  0  0  0  0  0  # atno 739  bound_to 734 
   -8.2489   10.7262  -12.4485 H   0  0  0  0  0  0  0  0  0  0  0  0  # atno 1252 bound_to 1249
   -7.4890   12.0033  -11.7152 H   0  0  0  0  0  0  0  0  0  0  0  0  # atno 1253 bound_to 1249
   -8.1435   10.7885  -10.7957 H   0  0  0  0  0  0  0  0  0  0  0  0  # atno 1254 bound_to 1249
  -21.4950   13.4331   -8.5567 H   0  0  0  0  0  0  0  0  0  0  0  0  # atno 1341 bound_to 1337
  -24.9921    4.5627   11.1315 H   0  0  0  0  0  0  0  0  0  0  0  0  # atno 2029 bound_to 2024
  -18.3599    3.2047    0.7034 H   0  0  0  0  0  0  0  0  0  0  0  0  # atno 2694 bound_to 2683
  -19.1121    4.5238    0.0387 H   0  0  0  0  0  0  0  0  0  0  0  0  # atno 2695 bound_to 2683
  -18.9722    4.3918    1.6847 H   0  0  0  0  0  0  0  0  0  0  0  0  # atno 2696 bound_to 2683
  -17.6484    2.6437    0.0913 H   0  0  0  0  0  0  0  0  0  0  0  0  # atno 3230 bound_to 3223
  -21.9019   -4.1898    3.6838 H   0  0  0  0  0  0  0  0  0  0  0  0  # atno 3280 bound_to 3271
   -6.0143   -1.4269  -13.4465 H   0  0  0  0  0  0  0  0  0  0  0  0  # atno 3406 bound_to 3401
  -16.0852  -15.0515    7.4423 H   0  0  0  0  0  0  0  0  0  0  0  0  # atno 3689 bound_to 3680
  -15.4135  -13.9802   12.5326 H   0  0  0  0  0  0  0  0  0  0  0  0  # atno 3769 bound_to 3760
  -10.0876   -0.0256   -2.9898 H   0  0  0  0  0  0  0  0  0  0  0  0  # atno 3966 bound_to 3957
  -23.4749   12.8566   10.3046 H   0  0  0  0  0  0  0  0  0  0  0  0  # atno 5218 bound_to 5209
  -16.6025  -14.2559   11.4563 LP  0  0  0  0  0  0  0  0  0  0  0  0  # atno 5548 bound_to 3760
  -16.9681  -13.8885   13.0048 LP  0  0  0  0  0  0  0  0  0  0  0  0  # atno 5549 bound_to 3760
  -16.3164  -13.8752    8.5426 LP  0  0  0  0  0  0  0  0  0  0  0  0  # atno 5556 bound_to 3680
  -15.3056  -13.6321    7.2834 LP  0  0  0  0  0  0  0  0  0  0  0  0  # atno 5557 bound_to 3680
   -8.6202    0.6599   -3.1494 LP  0  0  0  0  0  0  0  0  0  0  0  0  # atno 5612 bound_to 3957
   -9.2038    0.3095   -1.6650 LP  0  0  0  0  0  0  0  0  0  0  0  0  # atno 5613 bound_to 3957
  -18.5031    1.7418   -0.9596 LP  0  0  0  0  0  0  0  0  0  0  0  0  # atno 5616 bound_to 3223
  -17.1893    2.5676   -1.4681 LP  0  0  0  0  0  0  0  0  0  0  0  0  # atno 5617 bound_to 3223
  -20.0752   12.6827    5.9802 LP  0  0  0  0  0  0  0  0  0  0  0  0  # atno 5626 bound_to 714 
  -20.3747   13.4965    7.3639 LP  0  0  0  0  0  0  0  0  0  0  0  0  # atno 5627 bound_to 714 
  -25.0661    5.4956   12.4622 LP  0  0  0  0  0  0  0  0  0  0  0  0  # atno 5630 bound_to 2024
  -26.2962    5.5008   11.3882 LP  0  0  0  0  0  0  0  0  0  0  0  0  # atno 5631 bound_to 2024
  -22.0250   12.6813   11.0219 LP  0  0  0  0  0  0  0  0  0  0  0  0  # atno 5636 bound_to 5209
  -22.1231   13.2928    9.5109 LP  0  0  0  0  0  0  0  0  0  0  0  0  # atno 5637 bound_to 5209
  -20.4771   -4.3201    4.4597 LP  0  0  0  0  0  0  0  0  0  0  0  0  # atno 5660 bound_to 3271
  -21.1501   -5.6315    3.7568 LP  0  0  0  0  0  0  0  0  0  0  0  0  # atno 5661 bound_to 3271
  -16.3952   11.3827   -2.2189 LP  0  0  0  0  0  0  0  0  0  0  0  0  # atno 5668 bound_to 734 
  -16.9581   11.4987   -0.6904 LP  0  0  0  0  0  0  0  0  0  0  0  0  # atno 5669 bound_to 734 
   -6.3340   -2.5537  -12.3171 LP  0  0  0  0  0  0  0  0  0  0  0  0  # atno 5699 bound_to 3401
   -7.5127   -1.5433  -12.8233 LP  0  0  0  0  0  0  0  0  0  0  0  0  # atno 5700 bound_to 3401

> <Gold.Score>
     Fitness  S(hb_ext) S(vdw_ext)  S(hb_int)    S(int)      intcor
     28.17       0.10      20.54       0.00      -0.18      -0.76

> <Gold.Goldscore.Fitness>
28.1684

> <Gold.Goldscore.Internal.Vdw>
-0.3730

> <Gold.Goldscore.Internal.Torsion>
-0.5590

> <Gold.Goldscore.External.Vdw>
20.5380

> <Gold.Goldscore.Internal.HBond>
0.0000

> <Gold.Goldscore.External.HBond>
0.1040

> <Gold.Goldscore.Internal.Correction>
-0.7567

> <Gold.Goldscore.Hbonds>
donor molecule, donor type, donor heavy atom, donor atom, acceptor molecule, acceptor atom, score
      L1  H     8    22       P1  2714  0.05

> <Gold.Goldscore.Internal.Vdw.Weighted>
-0.3730

> <Gold.Goldscore.Internal.Torsion.Weighted>
-0.5590

> <Gold.Goldscore.External.Vdw.Weighted>
28.2397

> <Gold.Goldscore.Internal.HBond.Weighted>
0.0000

> <Gold.Goldscore.External.HBond.Weighted>
0.1040

> <Gold.Goldscore.Internal.Correction.Weighted>
-0.7567

> <Gold.Rescore>
     Score     S(PLP)   S(hbond)     S(cho)   S(metal)  DE(clash)   DE(tors)     intcor
     29.29     -26.61       1.00       0.00       0.00       0.00       0.16       ----

> <Gold.PLP.Fitness>
29.2871

> <Gold.PLP.PLP>
-26.6138

> <Gold.PLP.part.hbond>
-1.1340

> <Gold.PLP.part.metal>
0.0000

> <Gold.PLP.part.buried>
-5.4871

> <Gold.PLP.part.nonpolar>
-22.7157

> <Gold.PLP.part.repulsive>
1.6689

> <Gold.PLP.ligand.clash>
0.0000

> <Gold.PLP.ligand.torsion>
0.1633

> <Gold.PLP.Chemscore.Hbond>
1.0000

> <Gold.PLP.Chemscore.CHOScore>
0.0000

> <Gold.PLP.Chemscore.Metal>
0.0000

> <Gold.Chemscore.Hbonds>
donor molecule, donor type, donor heavy atom, donor atom, acceptor molecule, acceptor atom, score
      L1  H     8    22       P1  2714  0.35

> <Gold.PLP.Chemscore.Internal.Correction>
   9.000000E+99

