#       Name:                CT1002167954
#       Creating user name   hitesit
#       Creation time:       Sun Apr 16 20:23:45 2023


#       File generated by GOLD software.
#

@<TRIPOS>MOLECULE
CT1002167954|ligand_prepared|mol2|1|dock6
    29    30     1
SMALL
NO_CHARGES


@<TRIPOS>ATOM
      1 C1         144.0697 145.5373 169.7943 C.3            1 RES1               0.0000
      2 C2         143.5149 144.7432 168.5941 C.ar           1 RES1               0.0000
      3 C3         143.8371 147.0116 169.4770 C.2            1 RES1               0.0000
      4 C4         143.3148 145.0385 171.0215 C.2            1 RES1               0.0000
      5 C5         145.5807 145.3207 170.0421 C.3            1 RES1               0.0000
      6 C6         144.3183 144.4742 167.4901 C.ar           1 RES1               0.0000
      7 C7         142.2049 144.2717 168.5777 C.ar           1 RES1               0.0000
      8 N8         142.8440 147.6548 170.1551 N.am           1 RES1               0.0000
      9 O9         144.4888 147.5905 168.6165 O.2            1 RES1               0.0000
     10 N10        142.4867 145.9186 171.6676 N.am           1 RES1               0.0000
     11 O11        143.4169 143.8865 171.4250 O.2            1 RES1               0.0000
     12 C12        146.0604 145.8329 171.3911 C.3            1 RES1               0.0000
     13 C13        143.8308 143.7572 166.4100 C.ar           1 RES1               0.0000
     14 C14        141.7193 143.5551 167.4964 C.ar           1 RES1               0.0000
     15 C15        142.1935 147.1952 171.2719 C.2            1 RES1               0.0000
     16 C16        142.5313 143.2969 166.4125 C.ar           1 RES1               0.0000
     17 O17        141.3960 147.9074 171.8752 O.2            1 RES1               0.0000
     18 H18        145.7995 144.2479 169.9736 H              1 RES1               0.0000
     19 H19        146.1448 145.8291 169.2505 H              1 RES1               0.0000
     20 H20        145.3428 144.8305 167.4691 H              1 RES1               0.0000
     21 H21        141.5477 144.4639 169.4189 H              1 RES1               0.0000
     22 H22        142.5585 148.5614 169.7989 H              1 RES1               0.0000
     23 H23        142.0483 145.5918 172.5228 H              1 RES1               0.0000
     24 H24        147.1269 145.6561 171.5137 H              1 RES1               0.0000
     25 H25        145.8813 146.9020 171.4836 H              1 RES1               0.0000
     26 H26        145.5380 145.3302 172.2024 H              1 RES1               0.0000
     27 H27        144.4735 143.5579 165.5589 H              1 RES1               0.0000
     28 H28        140.6958 143.1953 167.5024 H              1 RES1               0.0000
     29 H29        142.1498 142.7349 165.5665 H              1 RES1               0.0000
@<TRIPOS>BOND
    1    1    2 1     
    2    1    3 1     
    3    1    4 1     
    4    1    5 1     
    5    2    6 ar    
    6    2    7 ar    
    7    3    8 1     
    8    3    9 2     
    9    4   10 1     
   10    4   11 2     
   11    5   12 1     
   12    5   18 1     
   13    5   19 1     
   14    6   13 ar    
   15    6   20 1     
   16    7   14 ar    
   17    7   21 1     
   18    8   15 1     
   19    8   22 1     
   20   10   15 1     
   21   10   23 1     
   22   12   24 1     
   23   12   25 1     
   24   12   26 1     
   25   13   16 ar    
   26   13   27 1     
   27   14   16 ar    
   28   14   28 1     
   29   15   17 2     
   30   16   29 1     
@<TRIPOS>SUBSTRUCTURE
      1 RES1           1
@<TRIPOS>SET
DONOR_HYDROGENS      STATIC     ATOMS    <user>   **** ""
2 22 23
ATOM$RED        STATIC     ATOMS    COLORGROUP SYSTEM
2 22 23
@<TRIPOS>COMMENT
> <Gold.Version>
2022.3.0

> <Gold.Id.Protein>
unknown|7rmh_cavity_clean|pdb

> <Gold.Protein.RotatedTorsions>
[ 5151 5142 5141 5139 ] final -137.17 input   59.98 | X-H torsion
[ 5186 5181 5180 5177 ] final   -4.38 input   59.99 | X-H torsion
[ 6481 6474 6475 6476 ] final  -40.44 input  103.68 | X-H torsion
[  676  663  664  665 ] final   43.01 input  108.58 | X-H torsion
[  692  687  686  683 ] final  -57.92 input   59.99 | X-H torsion
[  713  708  707  706 ] final  -18.33 input   60.01 | X-H torsion
[ 1581 1565 1566 1567 ] final  100.08 input  115.26 | X-H torsion
[ 2436 2427 2428 2429 ] final  -89.00 input   99.19 | X-H torsion
[ 2461 2452 2451 2449 ] final  -38.24 input   60.00 | X-H torsion
[ 2493 2473 2474 2475 ] final   49.64 input  111.54 | X-H torsion
[ 1670 1661 1660 1658 ] final   92.26 input   59.97 | X-H torsion
[ 1788 1769 1770 1771 ] final  -64.53 input  122.82 | X-H torsion
[ 4502 4497 4496 4493 ] final   13.14 input   59.97 | X-H torsion
[ 1878 1867 1866 1863 ] final  -11.52 input   59.99 | X-H torsion
[ 1879 1868 1869 1870 ] final -159.22 input   29.02 | X-H torsion
[ 1883 1873 1872 1869 ] final   -1.61 input   60.02 | X-H torsion
[ 1328 1317 1316 1315 ] final   94.97 input   60.01 | X-H torsion
[ 4472 4458 4456 4453 ] final   14.35 input   59.98 | X-H torsion
[ 4473 4459 4460 4461 ] final  174.32 input   43.99 | X-H torsion
[ 4479 4465 4463 4460 ] final  152.06 input   60.01 | X-H torsion
[ 14767 6477 6476 6475 ] final   60.68 input   -0.00 | X-H torsion
[ 14784  666  665  664 ] final -114.21 input   -0.00 | X-H torsion
[ 14799 1568 1567 1566 ] final  156.76 input    0.00 | X-H torsion
[ 14808 2430 2429 2428 ] final   53.02 input    0.00 | X-H torsion
[ 14821 2476 2475 2474 ] final -133.11 input    0.00 | X-H torsion
[ 14872 1772 1771 1770 ] final  -23.55 input    0.00 | X-H torsion
[ 14899 1871 1870 1869 ] final  -67.89 input    0.00 | X-H torsion
[ 14944 4462 4461 4460 ] final  -52.65 input    0.00 | X-H torsion

> <Gold.Protein.ActiveResidues>
 LEU46   GLY47   ALA48   ASP49   ASN50   SER51   LYS53   VAL224  GLY225  GLY226 
 GLN227  ARG228  ASP229  GLU230  ARG231  ARG232  LYS233  TRP234  ILE235  GLN236 
 CYS237  PHE246  VAL247  VAL248  ASP249  ASP252  TYR253  ASN264  ARG265  LEU266 
 GLN267  GLU268  ALA269  LEU270  ASN271  LEU272  LYS274  SER275  ASN278  ASN279 
 ARG280  TRP281  ASP310  TYR311  PHE312  GLU344  ARG347  ILE348  ALA351  ILE18  
 TRP63   THR65   ASP66   SER67   ARG68   LEU69   TYR105  ALA106  PRO107  SER108 
 GLY109  ASN110  CYS149  ARG150  PHE151  ASP154  ASN155  GLN156  LEU192  ALA193 
 PRO194  ASP195  THR196  ARG197  LEU198  VAL200  ILE229  ASN230  ALA231  CYS233 
 PHE235 

> <Gold.Protein.RotatedAtoms>
  124.9487  143.6466  126.6595 H   0  0  0  0  0  0  0  0  0  0  0  0  # atno 676  bound_to 663 
  152.2436  115.7797  168.5575 H   0  0  0  0  0  0  0  0  0  0  0  0  # atno 692  bound_to 687 
  153.2951  121.8271  167.1702 H   0  0  0  0  0  0  0  0  0  0  0  0  # atno 713  bound_to 708 
  153.2308  121.2884  168.7358 H   0  0  0  0  0  0  0  0  0  0  0  0  # atno 714  bound_to 708 
  154.3364  122.4438  168.3017 H   0  0  0  0  0  0  0  0  0  0  0  0  # atno 715  bound_to 708 
  140.5581  136.4393  174.9364 H   0  0  0  0  0  0  0  0  0  0  0  0  # atno 1328 bound_to 1317
  139.2960  137.0628  174.0612 H   0  0  0  0  0  0  0  0  0  0  0  0  # atno 1329 bound_to 1317
  139.9376  135.5891  173.6561 H   0  0  0  0  0  0  0  0  0  0  0  0  # atno 1330 bound_to 1317
  133.3511  121.3329  131.7984 H   0  0  0  0  0  0  0  0  0  0  0  0  # atno 1581 bound_to 1565
  146.8270  100.8531  168.5103 H   0  0  0  0  0  0  0  0  0  0  0  0  # atno 1670 bound_to 1661
  137.6320  134.5549   98.6042 H   0  0  0  0  0  0  0  0  0  0  0  0  # atno 1788 bound_to 1769
  139.9599  122.5666  168.0388 H   0  0  0  0  0  0  0  0  0  0  0  0  # atno 1878 bound_to 1867
  138.4032  146.7767  169.6057 H   0  0  0  0  0  0  0  0  0  0  0  0  # atno 1879 bound_to 1868
  140.3675  147.8198  168.9924 H   0  0  0  0  0  0  0  0  0  0  0  0  # atno 1883 bound_to 1873
  126.6760  132.0821  138.9516 H   0  0  0  0  0  0  0  0  0  0  0  0  # atno 2436 bound_to 2427
  145.0436  102.8370  177.3411 H   0  0  0  0  0  0  0  0  0  0  0  0  # atno 2461 bound_to 2452
  126.4712  135.3640  139.1903 H   0  0  0  0  0  0  0  0  0  0  0  0  # atno 2493 bound_to 2473
  152.0027  162.4176  170.9380 H   0  0  0  0  0  0  0  0  0  0  0  0  # atno 4472 bound_to 4458
  137.6181  143.6924  140.5400 H   0  0  0  0  0  0  0  0  0  0  0  0  # atno 4473 bound_to 4459
  137.3944  140.7868  141.6663 H   0  0  0  0  0  0  0  0  0  0  0  0  # atno 4479 bound_to 4465
  147.1967  165.5195  167.6055 H   0  0  0  0  0  0  0  0  0  0  0  0  # atno 4502 bound_to 4497
  156.5175  162.2819  166.3649 H   0  0  0  0  0  0  0  0  0  0  0  0  # atno 5151 bound_to 5142
  158.7204  164.5320  174.0420 H   0  0  0  0  0  0  0  0  0  0  0  0  # atno 5186 bound_to 5181
  145.8082  137.9890  106.5726 H   0  0  0  0  0  0  0  0  0  0  0  0  # atno 6481 bound_to 6474
  155.6165  162.0588  165.0286 LP  0  0  0  0  0  0  0  0  0  0  0  0  # atno 14720 bound_to 5142
  157.0473  161.2886  165.1901 LP  0  0  0  0  0  0  0  0  0  0  0  0  # atno 14721 bound_to 5142
  160.3021  164.9126  174.0023 LP  0  0  0  0  0  0  0  0  0  0  0  0  # atno 14728 bound_to 5181
  159.8266  163.4399  174.5234 LP  0  0  0  0  0  0  0  0  0  0  0  0  # atno 14729 bound_to 5181
  145.4861  139.5643  105.9072 LP  0  0  0  0  0  0  0  0  0  0  0  0  # atno 14766 bound_to 6474
  142.4106  138.3325  109.4688 LP  0  0  0  0  0  0  0  0  0  0  0  0  # atno 14767 bound_to 6477
  143.3102  136.8548  109.5535 LP  0  0  0  0  0  0  0  0  0  0  0  0  # atno 14768 bound_to 6477
  125.4870  141.9947  126.8187 LP  0  0  0  0  0  0  0  0  0  0  0  0  # atno 14783 bound_to 663 
  127.7514  144.6441  129.7810 LP  0  0  0  0  0  0  0  0  0  0  0  0  # atno 14784 bound_to 666 
  128.9822  144.7249  128.5650 LP  0  0  0  0  0  0  0  0  0  0  0  0  # atno 14785 bound_to 666 
  151.6056  116.2494  167.1366 LP  0  0  0  0  0  0  0  0  0  0  0  0  # atno 14790 bound_to 687 
  153.2229  116.0898  167.2960 LP  0  0  0  0  0  0  0  0  0  0  0  0  # atno 14791 bound_to 687 
  133.8155  122.9058  131.1932 LP  0  0  0  0  0  0  0  0  0  0  0  0  # atno 14798 bound_to 1565
  133.1083  121.4625  126.7703 LP  0  0  0  0  0  0  0  0  0  0  0  0  # atno 14799 bound_to 1568
  134.5273  122.2008  127.4347 LP  0  0  0  0  0  0  0  0  0  0  0  0  # atno 14800 bound_to 1568
  127.4349  131.6964  140.4786 LP  0  0  0  0  0  0  0  0  0  0  0  0  # atno 14807 bound_to 2427
  123.7622  134.3475  141.7180 LP  0  0  0  0  0  0  0  0  0  0  0  0  # atno 14808 bound_to 2430
  124.3461  135.4933  140.5577 LP  0  0  0  0  0  0  0  0  0  0  0  0  # atno 14809 bound_to 2430
  145.1708  101.6688  176.2159 LP  0  0  0  0  0  0  0  0  0  0  0  0  # atno 14814 bound_to 2452
  144.2998  101.4086  177.5724 LP  0  0  0  0  0  0  0  0  0  0  0  0  # atno 14815 bound_to 2452
  127.3597  136.8091  139.6032 LP  0  0  0  0  0  0  0  0  0  0  0  0  # atno 14820 bound_to 2473
  123.2536  138.0685  137.5477 LP  0  0  0  0  0  0  0  0  0  0  0  0  # atno 14821 bound_to 2476
  124.3997  138.1389  136.2509 LP  0  0  0  0  0  0  0  0  0  0  0  0  # atno 14822 bound_to 2476
  145.4428  100.9149  167.6572 LP  0  0  0  0  0  0  0  0  0  0  0  0  # atno 14837 bound_to 1661
  145.5978   99.8576  168.8920 LP  0  0  0  0  0  0  0  0  0  0  0  0  # atno 14838 bound_to 1661
  136.0510  135.0669   99.1505 LP  0  0  0  0  0  0  0  0  0  0  0  0  # atno 14871 bound_to 1769
  137.3044  133.3113   95.1520 LP  0  0  0  0  0  0  0  0  0  0  0  0  # atno 14872 bound_to 1772
  136.9085  134.5734   94.0338 LP  0  0  0  0  0  0  0  0  0  0  0  0  # atno 14873 bound_to 1772
  145.6009  165.5226  167.2863 LP  0  0  0  0  0  0  0  0  0  0  0  0  # atno 14890 bound_to 4497
  146.3891  166.9307  167.5366 LP  0  0  0  0  0  0  0  0  0  0  0  0  # atno 14891 bound_to 4497
  140.0819  122.4625  169.6583 LP  0  0  0  0  0  0  0  0  0  0  0  0  # atno 14896 bound_to 1867
  140.4316  123.8652  168.8989 LP  0  0  0  0  0  0  0  0  0  0  0  0  # atno 14897 bound_to 1867
  136.8877  147.6472  169.5565 LP  0  0  0  0  0  0  0  0  0  0  0  0  # atno 14898 bound_to 1868
  136.2177  150.2151  169.3690 LP  0  0  0  0  0  0  0  0  0  0  0  0  # atno 14899 bound_to 1871
  135.6674  149.6142  170.8975 LP  0  0  0  0  0  0  0  0  0  0  0  0  # atno 14900 bound_to 1871
  141.2004  149.1186  168.4757 LP  0  0  0  0  0  0  0  0  0  0  0  0  # atno 14901 bound_to 1873
  140.1285  148.3856  167.4856 LP  0  0  0  0  0  0  0  0  0  0  0  0  # atno 14902 bound_to 1873
  152.1511  163.3046  172.2941 LP  0  0  0  0  0  0  0  0  0  0  0  0  # atno 14941 bound_to 4458
  153.4608  162.9978  171.3682 LP  0  0  0  0  0  0  0  0  0  0  0  0  # atno 14942 bound_to 4458
  138.3023  144.0773  138.9740 LP  0  0  0  0  0  0  0  0  0  0  0  0  # atno 14943 bound_to 4459
  139.0445  142.5178  137.4938 LP  0  0  0  0  0  0  0  0  0  0  0  0  # atno 14944 bound_to 4462
  140.3231  143.6536  137.2197 LP  0  0  0  0  0  0  0  0  0  0  0  0  # atno 14945 bound_to 4462
  137.5200  142.4009  141.5017 LP  0  0  0  0  0  0  0  0  0  0  0  0  # atno 14946 bound_to 4465
  138.4825  141.6075  142.5556 LP  0  0  0  0  0  0  0  0  0  0  0  0  # atno 14947 bound_to 4465

> <Gold.Score>
     Fitness  S(hb_ext) S(vdw_ext)  S(hb_int)    S(int)      intcor
     32.54       1.48      23.08       0.00      -0.67      -0.76

> <Gold.Goldscore.Fitness>
32.5406

> <Gold.Goldscore.Internal.Vdw>
-0.7924

> <Gold.Goldscore.Internal.Torsion>
-0.6387

> <Gold.Goldscore.External.Vdw>
23.0815

> <Gold.Goldscore.Internal.HBond>
0.0000

> <Gold.Goldscore.External.HBond>
1.4761

> <Gold.Goldscore.Internal.Correction>
-0.7585

> <Gold.Goldscore.Hbonds>
donor molecule, donor type, donor heavy atom, donor atom, acceptor molecule, acceptor atom, score
      L1  H    10    23       P1  6894  0.74

> <Gold.Goldscore.Internal.Vdw.Weighted>
-0.7924

> <Gold.Goldscore.Internal.Torsion.Weighted>
-0.6387

> <Gold.Goldscore.External.Vdw.Weighted>
31.7371

> <Gold.Goldscore.Internal.HBond.Weighted>
0.0000

> <Gold.Goldscore.External.HBond.Weighted>
1.4761

> <Gold.Goldscore.Internal.Correction.Weighted>
-0.7585

> <Gold.Rescore>
     Score     S(PLP)   S(hbond)     S(cho)   S(metal)  DE(clash)   DE(tors)     intcor
     31.11     -29.99       1.00       0.00       0.00       0.00       0.94       ----

> <Gold.PLP.Fitness>
31.1085

> <Gold.PLP.PLP>
-29.9948

> <Gold.PLP.part.hbond>
-1.5735

> <Gold.PLP.part.metal>
0.0000

> <Gold.PLP.part.buried>
-4.9843

> <Gold.PLP.part.nonpolar>
-25.0389

> <Gold.PLP.part.repulsive>
0.4942

> <Gold.PLP.ligand.clash>
0.0000

> <Gold.PLP.ligand.torsion>
0.9432

> <Gold.PLP.Chemscore.Hbond>
1.0000

> <Gold.PLP.Chemscore.CHOScore>
0.0000

> <Gold.PLP.Chemscore.Metal>
0.0000

> <Gold.Chemscore.Hbonds>
donor molecule, donor type, donor heavy atom, donor atom, acceptor molecule, acceptor atom, score
      L1  H    10    23       P1  6894  1.00

> <Gold.PLP.Chemscore.Internal.Correction>
   9.000000E+99

