#       Name:                CT1002167954
#       Creating user name   hitesit
#       Creation time:       Sun Apr 16 20:22:23 2023


#       File generated by GOLD software.
#

@<TRIPOS>MOLECULE
CT1002167954|ligand_prepared|mol2|1|dock2
    29    30     1
SMALL
NO_CHARGES


@<TRIPOS>ATOM
      1 C1         144.6394 143.4913 169.8430 C.3            1 RES1               0.0000
      2 C2         145.2938 142.1100 170.0493 C.ar           1 RES1               0.0000
      3 C3         143.7337 143.3583 168.6222 C.2            1 RES1               0.0000
      4 C4         143.8973 143.8093 171.1364 C.2            1 RES1               0.0000
      5 C5         145.6526 144.6299 169.5812 C.3            1 RES1               0.0000
      6 C6         146.5773 142.0058 170.5770 C.ar           1 RES1               0.0000
      7 C7         144.6267 140.9332 169.7197 C.ar           1 RES1               0.0000
      8 N8         142.3876 143.3126 168.8360 N.am           1 RES1               0.0000
      9 O9         144.1953 143.2552 167.4923 O.2            1 RES1               0.0000
     10 N10        142.5302 143.8891 171.0893 N.am           1 RES1               0.0000
     11 O11        144.4831 143.9749 172.1993 O.2            1 RES1               0.0000
     12 C12        145.0164 145.9091 169.0605 C.3            1 RES1               0.0000
     13 C13        147.1713 140.7697 170.7711 C.ar           1 RES1               0.0000
     14 C14        145.2227 139.6981 169.9144 C.ar           1 RES1               0.0000
     15 C15        141.7397 143.6249 170.0041 C.2            1 RES1               0.0000
     16 C16        146.4944 139.6152 170.4404 C.ar           1 RES1               0.0000
     17 O17        140.5137 143.6648 170.0540 O.2            1 RES1               0.0000
     18 H18        146.1815 144.8537 170.5158 H              1 RES1               0.0000
     19 H19        146.3940 144.2820 168.8514 H              1 RES1               0.0000
     20 H20        147.1264 142.9035 170.8409 H              1 RES1               0.0000
     21 H21        143.6259 140.9743 169.3035 H              1 RES1               0.0000
     22 H22        141.8092 143.0190 168.0553 H              1 RES1               0.0000
     23 H23        142.0580 144.1719 171.9421 H              1 RES1               0.0000
     24 H24        145.7709 146.6750 168.8937 H              1 RES1               0.0000
     25 H25        144.5026 145.7287 168.1185 H              1 RES1               0.0000
     26 H26        144.2914 146.2971 169.7731 H              1 RES1               0.0000
     27 H27        148.1729 140.7099 171.1840 H              1 RES1               0.0000
     28 H28        144.6864 138.7921 169.6521 H              1 RES1               0.0000
     29 H29        146.9598 138.6470 170.5928 H              1 RES1               0.0000
@<TRIPOS>BOND
    1    1    2 1     
    2    1    3 1     
    3    1    4 1     
    4    1    5 1     
    5    2    6 ar    
    6    2    7 ar    
    7    3    8 1     
    8    3    9 2     
    9    4   10 1     
   10    4   11 2     
   11    5   12 1     
   12    5   18 1     
   13    5   19 1     
   14    6   13 ar    
   15    6   20 1     
   16    7   14 ar    
   17    7   21 1     
   18    8   15 1     
   19    8   22 1     
   20   10   15 1     
   21   10   23 1     
   22   12   24 1     
   23   12   25 1     
   24   12   26 1     
   25   13   16 ar    
   26   13   27 1     
   27   14   16 ar    
   28   14   28 1     
   29   15   17 2     
   30   16   29 1     
@<TRIPOS>SUBSTRUCTURE
      1 RES1           1
@<TRIPOS>SET
DONOR_HYDROGENS      STATIC     ATOMS    <user>   **** ""
2 22 23
ATOM$RED        STATIC     ATOMS    COLORGROUP SYSTEM
2 22 23
@<TRIPOS>COMMENT
> <Gold.Version>
2022.3.0

> <Gold.Id.Protein>
unknown|7rmh_cavity_clean|pdb

> <Gold.Protein.RotatedTorsions>
[ 5151 5142 5141 5139 ] final   31.97 input   59.98 | X-H torsion
[ 5186 5181 5180 5177 ] final  148.39 input   59.99 | X-H torsion
[ 6481 6474 6475 6476 ] final    7.79 input  103.68 | X-H torsion
[  676  663  664  665 ] final  -60.53 input  108.58 | X-H torsion
[  692  687  686  683 ] final -165.36 input   59.99 | X-H torsion
[  713  708  707  706 ] final -169.49 input   60.01 | X-H torsion
[ 1581 1565 1566 1567 ] final  133.06 input  115.26 | X-H torsion
[ 2436 2427 2428 2429 ] final   42.38 input   99.19 | X-H torsion
[ 2461 2452 2451 2449 ] final  167.98 input   60.00 | X-H torsion
[ 2493 2473 2474 2475 ] final  -40.58 input  111.54 | X-H torsion
[ 1670 1661 1660 1658 ] final   37.17 input   59.97 | X-H torsion
[ 1788 1769 1770 1771 ] final  -67.05 input  122.82 | X-H torsion
[ 4502 4497 4496 4493 ] final  -89.51 input   59.97 | X-H torsion
[ 1878 1867 1866 1863 ] final  -73.69 input   59.99 | X-H torsion
[ 1879 1868 1869 1870 ] final -176.25 input   29.02 | X-H torsion
[ 1883 1873 1872 1869 ] final  -57.37 input   60.02 | X-H torsion
[ 1328 1317 1316 1315 ] final  -97.72 input   60.01 | X-H torsion
[ 4472 4458 4456 4453 ] final -102.02 input   59.98 | X-H torsion
[ 4473 4459 4460 4461 ] final  -19.37 input   43.99 | X-H torsion
[ 4479 4465 4463 4460 ] final -153.77 input   60.01 | X-H torsion
[ 14767 6477 6476 6475 ] final  175.64 input   -0.00 | X-H torsion
[ 14784  666  665  664 ] final  -85.91 input   -0.00 | X-H torsion
[ 14799 1568 1567 1566 ] final  157.21 input    0.00 | X-H torsion
[ 14808 2430 2429 2428 ] final  -60.96 input    0.00 | X-H torsion
[ 14821 2476 2475 2474 ] final    5.34 input    0.00 | X-H torsion
[ 14872 1772 1771 1770 ] final  168.13 input    0.00 | X-H torsion
[ 14899 1871 1870 1869 ] final    5.44 input    0.00 | X-H torsion
[ 14944 4462 4461 4460 ] final  -44.91 input    0.00 | X-H torsion

> <Gold.Protein.ActiveResidues>
 LEU46   GLY47   ALA48   ASP49   ASN50   SER51   LYS53   VAL224  GLY225  GLY226 
 GLN227  ARG228  ASP229  GLU230  ARG231  ARG232  LYS233  TRP234  ILE235  GLN236 
 CYS237  PHE246  VAL247  VAL248  ASP249  ASP252  TYR253  ASN264  ARG265  LEU266 
 GLN267  GLU268  ALA269  LEU270  ASN271  LEU272  LYS274  SER275  ASN278  ASN279 
 ARG280  TRP281  ASP310  TYR311  PHE312  GLU344  ARG347  ILE348  ALA351  ILE18  
 TRP63   THR65   ASP66   SER67   ARG68   LEU69   TYR105  ALA106  PRO107  SER108 
 GLY109  ASN110  CYS149  ARG150  PHE151  ASP154  ASN155  GLN156  LEU192  ALA193 
 PRO194  ASP195  THR196  ARG197  LEU198  VAL200  ILE229  ASN230  ALA231  CYS233 
 PHE235 

> <Gold.Protein.RotatedAtoms>
  125.1459  142.6572  127.6001 H   0  0  0  0  0  0  0  0  0  0  0  0  # atno 676  bound_to 663 
  151.5067  116.2017  167.3105 H   0  0  0  0  0  0  0  0  0  0  0  0  # atno 692  bound_to 687 
  154.2138  122.1982  168.7356 H   0  0  0  0  0  0  0  0  0  0  0  0  # atno 713  bound_to 708 
  153.6727  122.1761  167.1697 H   0  0  0  0  0  0  0  0  0  0  0  0  # atno 714  bound_to 708 
  152.9763  121.1860  168.3012 H   0  0  0  0  0  0  0  0  0  0  0  0  # atno 715  bound_to 708 
  139.2367  136.4762  173.5683 H   0  0  0  0  0  0  0  0  0  0  0  0  # atno 1328 bound_to 1317
  140.4707  135.5733  174.2085 H   0  0  0  0  0  0  0  0  0  0  0  0  # atno 1329 bound_to 1317
  140.0843  137.0404  174.8761 H   0  0  0  0  0  0  0  0  0  0  0  0  # atno 1330 bound_to 1317
  133.8208  121.4138  131.9572 H   0  0  0  0  0  0  0  0  0  0  0  0  # atno 1581 bound_to 1565
  146.3823  101.2177  167.8632 H   0  0  0  0  0  0  0  0  0  0  0  0  # atno 1670 bound_to 1661
  137.6252  134.5198   98.6200 H   0  0  0  0  0  0  0  0  0  0  0  0  # atno 1788 bound_to 1769
  139.8871  122.0673  168.8636 H   0  0  0  0  0  0  0  0  0  0  0  0  # atno 1878 bound_to 1867
  138.4103  146.8528  169.3550 H   0  0  0  0  0  0  0  0  0  0  0  0  # atno 1879 bound_to 1868
  140.9613  148.4386  169.1675 H   0  0  0  0  0  0  0  0  0  0  0  0  # atno 1883 bound_to 1873
  127.5671  132.3713  140.2651 H   0  0  0  0  0  0  0  0  0  0  0  0  # atno 2436 bound_to 2427
  144.8731  101.2659  176.4327 H   0  0  0  0  0  0  0  0  0  0  0  0  # atno 2461 bound_to 2452
  126.2253  136.3950  139.8483 H   0  0  0  0  0  0  0  0  0  0  0  0  # atno 2493 bound_to 2473
  152.1011  163.2819  172.2701 H   0  0  0  0  0  0  0  0  0  0  0  0  # atno 4472 bound_to 4458
  138.4251  144.2299  139.0577 H   0  0  0  0  0  0  0  0  0  0  0  0  # atno 4473 bound_to 4459
  138.0095  140.7536  142.2557 H   0  0  0  0  0  0  0  0  0  0  0  0  # atno 4479 bound_to 4465
  145.7818  165.3051  167.3065 H   0  0  0  0  0  0  0  0  0  0  0  0  # atno 4502 bound_to 4497
  156.4260  161.3949  164.7286 H   0  0  0  0  0  0  0  0  0  0  0  0  # atno 5151 bound_to 5142
  160.2847  163.6977  174.4535 H   0  0  0  0  0  0  0  0  0  0  0  0  # atno 5186 bound_to 5181
  145.2912  137.9981  106.0854 H   0  0  0  0  0  0  0  0  0  0  0  0  # atno 6481 bound_to 6474
  157.1010  161.8089  166.1500 LP  0  0  0  0  0  0  0  0  0  0  0  0  # atno 14720 bound_to 5142
  155.6550  162.4320  165.7172 LP  0  0  0  0  0  0  0  0  0  0  0  0  # atno 14721 bound_to 5142
  158.7087  164.0361  174.2294 LP  0  0  0  0  0  0  0  0  0  0  0  0  # atno 14728 bound_to 5181
  159.8448  165.1565  173.8820 LP  0  0  0  0  0  0  0  0  0  0  0  0  # atno 14729 bound_to 5181
  146.0038  139.5551  106.3951 LP  0  0  0  0  0  0  0  0  0  0  0  0  # atno 14766 bound_to 6474
  142.4429  136.8943  109.2169 LP  0  0  0  0  0  0  0  0  0  0  0  0  # atno 14767 bound_to 6477
  143.2778  138.2931  109.8054 LP  0  0  0  0  0  0  0  0  0  0  0  0  # atno 14768 bound_to 6477
  125.2923  142.9714  125.8902 LP  0  0  0  0  0  0  0  0  0  0  0  0  # atno 14783 bound_to 663 
  127.8469  144.2391  129.7034 LP  0  0  0  0  0  0  0  0  0  0  0  0  # atno 14784 bound_to 666 
  128.8867  145.1299  128.6426 LP  0  0  0  0  0  0  0  0  0  0  0  0  # atno 14785 bound_to 666 
  153.1221  116.1475  167.1254 LP  0  0  0  0  0  0  0  0  0  0  0  0  # atno 14790 bound_to 687 
  152.4487  115.7665  168.5635 LP  0  0  0  0  0  0  0  0  0  0  0  0  # atno 14791 bound_to 687 
  133.3576  122.8269  131.0384 LP  0  0  0  0  0  0  0  0  0  0  0  0  # atno 14798 bound_to 1565
  133.1051  121.4684  126.7708 LP  0  0  0  0  0  0  0  0  0  0  0  0  # atno 14799 bound_to 1568
  134.5306  122.1949  127.4342 LP  0  0  0  0  0  0  0  0  0  0  0  0  # atno 14800 bound_to 1568
  126.5661  131.4144  139.1979 LP  0  0  0  0  0  0  0  0  0  0  0  0  # atno 14807 bound_to 2427
  123.8488  134.7279  140.3188 LP  0  0  0  0  0  0  0  0  0  0  0  0  # atno 14808 bound_to 2430
  124.2595  135.1129  141.9569 LP  0  0  0  0  0  0  0  0  0  0  0  0  # atno 14809 bound_to 2430
  144.3511  101.8810  177.8456 LP  0  0  0  0  0  0  0  0  0  0  0  0  # atno 14814 bound_to 2452
  145.2914  102.7796  176.8581 LP  0  0  0  0  0  0  0  0  0  0  0  0  # atno 14815 bound_to 2452
  127.6014  135.7957  138.9565 LP  0  0  0  0  0  0  0  0  0  0  0  0  # atno 14820 bound_to 2473
  124.5610  138.5197  136.7051 LP  0  0  0  0  0  0  0  0  0  0  0  0  # atno 14821 bound_to 2476
  123.0924  137.6877  137.0935 LP  0  0  0  0  0  0  0  0  0  0  0  0  # atno 14822 bound_to 2476
  145.0780  100.2837  168.1357 LP  0  0  0  0  0  0  0  0  0  0  0  0  # atno 14837 bound_to 1661
  146.4107  100.1215  169.0654 LP  0  0  0  0  0  0  0  0  0  0  0  0  # atno 14838 bound_to 1661
  136.0576  135.1009   99.1351 LP  0  0  0  0  0  0  0  0  0  0  0  0  # atno 14871 bound_to 1769
  137.0725  134.6292   94.0665 LP  0  0  0  0  0  0  0  0  0  0  0  0  # atno 14872 bound_to 1772
  137.1404  133.2556   95.1193 LP  0  0  0  0  0  0  0  0  0  0  0  0  # atno 14873 bound_to 1772
  146.1139  166.8890  167.4784 LP  0  0  0  0  0  0  0  0  0  0  0  0  # atno 14890 bound_to 4497
  147.3010  165.7802  167.6455 LP  0  0  0  0  0  0  0  0  0  0  0  0  # atno 14891 bound_to 4497
  140.3630  123.3944  169.6766 LP  0  0  0  0  0  0  0  0  0  0  0  0  # atno 14896 bound_to 1867
  140.2238  123.4361  168.0501 LP  0  0  0  0  0  0  0  0  0  0  0  0  # atno 14897 bound_to 1867
  136.8808  147.5729  169.8009 LP  0  0  0  0  0  0  0  0  0  0  0  0  # atno 14898 bound_to 1868
  136.0879  149.2234  169.6322 LP  0  0  0  0  0  0  0  0  0  0  0  0  # atno 14899 bound_to 1871
  135.7973  150.6059  170.6343 LP  0  0  0  0  0  0  0  0  0  0  0  0  # atno 14900 bound_to 1871
  140.8087  149.0943  167.6862 LP  0  0  0  0  0  0  0  0  0  0  0  0  # atno 14901 bound_to 1873
  139.9220  147.7866  168.0987 LP  0  0  0  0  0  0  0  0  0  0  0  0  # atno 14902 bound_to 1873
  153.4645  163.0303  171.4183 LP  0  0  0  0  0  0  0  0  0  0  0  0  # atno 14941 bound_to 4458
  152.0484  162.4017  170.9025 LP  0  0  0  0  0  0  0  0  0  0  0  0  # atno 14942 bound_to 4458
  137.5247  143.5594  140.4024 LP  0  0  0  0  0  0  0  0  0  0  0  0  # atno 14943 bound_to 4459
  138.9859  142.6072  137.5414 LP  0  0  0  0  0  0  0  0  0  0  0  0  # atno 14944 bound_to 4462
  140.3816  143.5642  137.1721 LP  0  0  0  0  0  0  0  0  0  0  0  0  # atno 14945 bound_to 4462
  137.1237  141.6809  141.2538 LP  0  0  0  0  0  0  0  0  0  0  0  0  # atno 14946 bound_to 4465
  138.2593  142.3610  142.2101 LP  0  0  0  0  0  0  0  0  0  0  0  0  # atno 14947 bound_to 4465

> <Gold.Score>
     Fitness  S(hb_ext) S(vdw_ext)  S(hb_int)    S(int)      intcor
     31.88       1.87      22.34       0.00      -0.71      -0.78

> <Gold.Goldscore.Fitness>
31.8837

> <Gold.Goldscore.Internal.Vdw>
-0.8290

> <Gold.Goldscore.Internal.Torsion>
-0.6578

> <Gold.Goldscore.External.Vdw>
22.3433

> <Gold.Goldscore.Internal.HBond>
0.0000

> <Gold.Goldscore.External.HBond>
1.8716

> <Gold.Goldscore.Internal.Correction>
-0.7769

> <Gold.Goldscore.Hbonds>
donor molecule, donor type, donor heavy atom, donor atom, acceptor molecule, acceptor atom, score
      L1  H    10    23       P1  6894  0.94

> <Gold.Goldscore.Internal.Vdw.Weighted>
-0.8290

> <Gold.Goldscore.Internal.Torsion.Weighted>
-0.6578

> <Gold.Goldscore.External.Vdw.Weighted>
30.7220

> <Gold.Goldscore.Internal.HBond.Weighted>
0.0000

> <Gold.Goldscore.External.HBond.Weighted>
1.8716

> <Gold.Goldscore.Internal.Correction.Weighted>
-0.7769

> <Gold.Rescore>
     Score     S(PLP)   S(hbond)     S(cho)   S(metal)  DE(clash)   DE(tors)     intcor
     29.30     -28.12       0.99       0.00       0.00       0.00       0.90       ----

> <Gold.PLP.Fitness>
29.3021

> <Gold.PLP.PLP>
-28.1236

> <Gold.PLP.part.hbond>
-1.0000

> <Gold.PLP.part.metal>
0.0000

> <Gold.PLP.part.buried>
-4.1803

> <Gold.PLP.part.nonpolar>
-24.4849

> <Gold.PLP.part.repulsive>
0.6445

> <Gold.PLP.ligand.clash>
0.0000

> <Gold.PLP.ligand.torsion>
0.8976

> <Gold.PLP.Chemscore.Hbond>
0.9913

> <Gold.PLP.Chemscore.CHOScore>
0.0000

> <Gold.PLP.Chemscore.Metal>
0.0000

> <Gold.Chemscore.Hbonds>
donor molecule, donor type, donor heavy atom, donor atom, acceptor molecule, acceptor atom, score
      L1  H    10    23       P1  6894  0.46

> <Gold.PLP.Chemscore.Internal.Correction>
   9.000000E+99

