#       Name:                CT1002167954
#       Creating user name   hitesit
#       Creation time:       Sun Apr 16 20:24:48 2023


#       File generated by GOLD software.
#

@<TRIPOS>MOLECULE
CT1002167954|ligand_prepared|mol2|1|dock9
    29    30     1
SMALL
NO_CHARGES


@<TRIPOS>ATOM
      1 C1         145.5558 144.6319 170.1634 C.3            1 RES1               0.0000
      2 C2         145.7823 143.1070 170.1193 C.ar           1 RES1               0.0000
      3 C3         145.3826 145.0814 168.7155 C.2            1 RES1               0.0000
      4 C4         144.3254 144.8554 171.0356 C.2            1 RES1               0.0000
      5 C5         146.7318 145.4206 170.7851 C.3            1 RES1               0.0000
      6 C6         144.8439 142.2681 169.5256 C.ar           1 RES1               0.0000
      7 C7         146.9239 142.5257 170.6647 C.ar           1 RES1               0.0000
      8 N8         144.1259 145.4140 168.3032 N.am           1 RES1               0.0000
      9 O9         146.3275 145.1056 167.9366 O.2            1 RES1               0.0000
     10 N10        143.2030 145.3713 170.4424 N.am           1 RES1               0.0000
     11 O11        144.3124 144.5739 172.2276 O.2            1 RES1               0.0000
     12 C12        146.5606 146.9300 170.7194 C.3            1 RES1               0.0000
     13 C13        145.0410 140.8980 169.4763 C.ar           1 RES1               0.0000
     14 C14        147.1189 141.1553 170.6145 C.ar           1 RES1               0.0000
     15 C15        143.0377 145.6320 169.1094 C.2            1 RES1               0.0000
     16 C16        146.1786 140.3408 170.0203 C.ar           1 RES1               0.0000
     17 O17        141.9795 146.0439 168.6427 O.2            1 RES1               0.0000
     18 H18        146.8405 145.1229 171.8353 H              1 RES1               0.0000
     19 H19        147.6563 145.1470 170.2617 H              1 RES1               0.0000
     20 H20        143.9414 142.6882 169.0945 H              1 RES1               0.0000
     21 H21        147.6766 143.1469 171.1382 H              1 RES1               0.0000
     22 H22        143.9819 145.5094 167.3030 H              1 RES1               0.0000
     23 H23        142.4180 145.5805 171.0510 H              1 RES1               0.0000
     24 H24        147.4130 147.4349 171.1691 H              1 RES1               0.0000
     25 H25        146.4747 147.2640 169.6875 H              1 RES1               0.0000
     26 H26        145.6637 147.2400 171.2518 H              1 RES1               0.0000
     27 H27        144.2973 140.2612 169.0087 H              1 RES1               0.0000
     28 H28        148.0154 140.7210 171.0444 H              1 RES1               0.0000
     29 H29        146.3329 139.2675 169.9812 H              1 RES1               0.0000
@<TRIPOS>BOND
    1    1    2 1     
    2    1    3 1     
    3    1    4 1     
    4    1    5 1     
    5    2    6 ar    
    6    2    7 ar    
    7    3    8 1     
    8    3    9 2     
    9    4   10 1     
   10    4   11 2     
   11    5   12 1     
   12    5   18 1     
   13    5   19 1     
   14    6   13 ar    
   15    6   20 1     
   16    7   14 ar    
   17    7   21 1     
   18    8   15 1     
   19    8   22 1     
   20   10   15 1     
   21   10   23 1     
   22   12   24 1     
   23   12   25 1     
   24   12   26 1     
   25   13   16 ar    
   26   13   27 1     
   27   14   16 ar    
   28   14   28 1     
   29   15   17 2     
   30   16   29 1     
@<TRIPOS>SUBSTRUCTURE
      1 RES1           1
@<TRIPOS>SET
DONOR_HYDROGENS      STATIC     ATOMS    <user>   **** ""
2 22 23
ATOM$RED        STATIC     ATOMS    COLORGROUP SYSTEM
2 22 23
@<TRIPOS>COMMENT
> <Gold.Version>
2022.3.0

> <Gold.Id.Protein>
unknown|7rmh_cavity_clean|pdb

> <Gold.Protein.RotatedTorsions>
[ 5151 5142 5141 5139 ] final  -20.40 input   59.98 | X-H torsion
[ 5186 5181 5180 5177 ] final   -8.57 input   59.99 | X-H torsion
[ 6481 6474 6475 6476 ] final   11.60 input  103.68 | X-H torsion
[  676  663  664  665 ] final   62.83 input  108.58 | X-H torsion
[  692  687  686  683 ] final  -30.99 input   59.99 | X-H torsion
[  713  708  707  706 ] final -179.74 input   60.01 | X-H torsion
[ 1581 1565 1566 1567 ] final  103.75 input  115.26 | X-H torsion
[ 2436 2427 2428 2429 ] final   92.04 input   99.19 | X-H torsion
[ 2461 2452 2451 2449 ] final   86.55 input   60.00 | X-H torsion
[ 2493 2473 2474 2475 ] final   24.22 input  111.54 | X-H torsion
[ 1670 1661 1660 1658 ] final  -68.38 input   59.97 | X-H torsion
[ 1788 1769 1770 1771 ] final  161.70 input  122.82 | X-H torsion
[ 4502 4497 4496 4493 ] final   64.46 input   59.97 | X-H torsion
[ 1878 1867 1866 1863 ] final  -14.05 input   59.99 | X-H torsion
[ 1879 1868 1869 1870 ] final -162.26 input   29.02 | X-H torsion
[ 1883 1873 1872 1869 ] final  176.09 input   60.02 | X-H torsion
[ 1328 1317 1316 1315 ] final   28.57 input   60.01 | X-H torsion
[ 4472 4458 4456 4453 ] final   36.71 input   59.98 | X-H torsion
[ 4473 4459 4460 4461 ] final  127.13 input   43.99 | X-H torsion
[ 4479 4465 4463 4460 ] final -178.67 input   60.01 | X-H torsion
[ 14767 6477 6476 6475 ] final  -63.79 input   -0.00 | X-H torsion
[ 14784  666  665  664 ] final  145.57 input   -0.00 | X-H torsion
[ 14799 1568 1567 1566 ] final -124.49 input    0.00 | X-H torsion
[ 14808 2430 2429 2428 ] final  179.21 input    0.00 | X-H torsion
[ 14821 2476 2475 2474 ] final  128.05 input    0.00 | X-H torsion
[ 14872 1772 1771 1770 ] final -100.95 input    0.00 | X-H torsion
[ 14899 1871 1870 1869 ] final  -45.80 input    0.00 | X-H torsion
[ 14944 4462 4461 4460 ] final   91.06 input    0.00 | X-H torsion

> <Gold.Protein.ActiveResidues>
 LEU46   GLY47   ALA48   ASP49   ASN50   SER51   LYS53   VAL224  GLY225  GLY226 
 GLN227  ARG228  ASP229  GLU230  ARG231  ARG232  LYS233  TRP234  ILE235  GLN236 
 CYS237  PHE246  VAL247  VAL248  ASP249  ASP252  TYR253  ASN264  ARG265  LEU266 
 GLN267  GLU268  ALA269  LEU270  ASN271  LEU272  LYS274  SER275  ASN278  ASN279 
 ARG280  TRP281  ASP310  TYR311  PHE312  GLU344  ARG347  ILE348  ALA351  ILE18  
 TRP63   THR65   ASP66   SER67   ARG68   LEU69   TYR105  ALA106  PRO107  SER108 
 GLY109  ASN110  CYS149  ARG150  PHE151  ASP154  ASN155  GLN156  LEU192  ALA193 
 PRO194  ASP195  THR196  ARG197  LEU198  VAL200  ILE229  ASN230  ALA231  CYS233 
 PHE235 

> <Gold.Protein.RotatedAtoms>
  125.0101  143.5838  126.3703 H   0  0  0  0  0  0  0  0  0  0  0  0  # atno 676  bound_to 663 
  152.6756  115.7662  168.5021 H   0  0  0  0  0  0  0  0  0  0  0  0  # atno 692  bound_to 687 
  154.1329  122.0911  168.8412 H   0  0  0  0  0  0  0  0  0  0  0  0  # atno 713  bound_to 708 
  153.7990  122.2749  167.2287 H   0  0  0  0  0  0  0  0  0  0  0  0  # atno 714  bound_to 708 
  152.9310  121.1944  168.1368 H   0  0  0  0  0  0  0  0  0  0  0  0  # atno 715  bound_to 708 
  140.5210  135.6139  174.2916 H   0  0  0  0  0  0  0  0  0  0  0  0  # atno 1328 bound_to 1317
  140.0052  137.0934  174.8326 H   0  0  0  0  0  0  0  0  0  0  0  0  # atno 1329 bound_to 1317
  139.2660  136.3833  173.5299 H   0  0  0  0  0  0  0  0  0  0  0  0  # atno 1330 bound_to 1317
  133.4023  121.3290  131.8223 H   0  0  0  0  0  0  0  0  0  0  0  0  # atno 1581 bound_to 1565
  145.1078  100.4524  167.9728 H   0  0  0  0  0  0  0  0  0  0  0  0  # atno 1670 bound_to 1661
  136.1711  134.4112   99.3184 H   0  0  0  0  0  0  0  0  0  0  0  0  # atno 1788 bound_to 1769
  139.9513  122.5316  168.0588 H   0  0  0  0  0  0  0  0  0  0  0  0  # atno 1878 bound_to 1867
  138.4095  146.7876  169.5604 H   0  0  0  0  0  0  0  0  0  0  0  0  # atno 1879 bound_to 1868
  140.7358  149.0440  167.6254 H   0  0  0  0  0  0  0  0  0  0  0  0  # atno 1883 bound_to 1873
  127.4316  131.6794  140.5011 H   0  0  0  0  0  0  0  0  0  0  0  0  # atno 2436 bound_to 2427
  144.3100  101.3595  177.5119 H   0  0  0  0  0  0  0  0  0  0  0  0  # atno 2461 bound_to 2452
  126.2157  135.5635  139.4026 H   0  0  0  0  0  0  0  0  0  0  0  0  # atno 2493 bound_to 2473
  152.3285  162.3875  170.7807 H   0  0  0  0  0  0  0  0  0  0  0  0  # atno 4472 bound_to 4458
  137.4258  143.2374  140.0244 H   0  0  0  0  0  0  0  0  0  0  0  0  # atno 4473 bound_to 4459
  137.7158  140.6677  141.9924 H   0  0  0  0  0  0  0  0  0  0  0  0  # atno 4479 bound_to 4465
  147.2499  166.3262  167.6686 H   0  0  0  0  0  0  0  0  0  0  0  0  # atno 4502 bound_to 4497
  157.0698  161.2996  165.2374 H   0  0  0  0  0  0  0  0  0  0  0  0  # atno 5151 bound_to 5142
  158.7427  164.5930  174.0206 H   0  0  0  0  0  0  0  0  0  0  0  0  # atno 5186 bound_to 5181
  145.2569  138.0237  106.0467 H   0  0  0  0  0  0  0  0  0  0  0  0  # atno 6481 bound_to 6474
  156.4726  162.3109  166.3635 LP  0  0  0  0  0  0  0  0  0  0  0  0  # atno 14720 bound_to 5142
  155.6348  162.0261  164.9911 LP  0  0  0  0  0  0  0  0  0  0  0  0  # atno 14721 bound_to 5142
  160.3471  164.8648  174.0230 LP  0  0  0  0  0  0  0  0  0  0  0  0  # atno 14728 bound_to 5181
  159.7591  163.4262  174.5243 LP  0  0  0  0  0  0  0  0  0  0  0  0  # atno 14729 bound_to 5181
  146.0382  139.5295  106.4339 LP  0  0  0  0  0  0  0  0  0  0  0  0  # atno 14766 bound_to 6474
  143.6672  137.5279  109.8189 LP  0  0  0  0  0  0  0  0  0  0  0  0  # atno 14767 bound_to 6477
  142.0535  137.6594  109.2034 LP  0  0  0  0  0  0  0  0  0  0  0  0  # atno 14768 bound_to 6477
  125.4264  142.0568  127.1042 LP  0  0  0  0  0  0  0  0  0  0  0  0  # atno 14783 bound_to 663 
  128.4303  145.5427  129.0754 LP  0  0  0  0  0  0  0  0  0  0  0  0  # atno 14784 bound_to 666 
  128.3032  143.8263  129.2706 LP  0  0  0  0  0  0  0  0  0  0  0  0  # atno 14785 bound_to 666 
  151.4308  116.1458  167.5258 LP  0  0  0  0  0  0  0  0  0  0  0  0  # atno 14790 bound_to 687 
  152.9624  116.2070  166.9626 LP  0  0  0  0  0  0  0  0  0  0  0  0  # atno 14791 bound_to 687 
  133.7657  122.9096  131.1700 LP  0  0  0  0  0  0  0  0  0  0  0  0  # atno 14798 bound_to 1565
  133.2673  122.5001  127.0949 LP  0  0  0  0  0  0  0  0  0  0  0  0  # atno 14799 bound_to 1568
  134.3684  121.1632  127.1100 LP  0  0  0  0  0  0  0  0  0  0  0  0  # atno 14800 bound_to 1568
  126.6982  132.0890  138.9679 LP  0  0  0  0  0  0  0  0  0  0  0  0  # atno 14807 bound_to 2427
  124.5128  135.6344  141.3105 LP  0  0  0  0  0  0  0  0  0  0  0  0  # atno 14808 bound_to 2430
  123.5955  134.2064  140.9652 LP  0  0  0  0  0  0  0  0  0  0  0  0  # atno 14809 bound_to 2430
  145.0042  102.8273  177.4085 LP  0  0  0  0  0  0  0  0  0  0  0  0  # atno 14814 bound_to 2452
  145.2057  101.7390  176.2078 LP  0  0  0  0  0  0  0  0  0  0  0  0  # atno 14815 bound_to 2452
  127.6108  136.6130  139.3945 LP  0  0  0  0  0  0  0  0  0  0  0  0  # atno 14820 bound_to 2473
  123.4597  137.5284  136.3660 LP  0  0  0  0  0  0  0  0  0  0  0  0  # atno 14821 bound_to 2476
  124.1937  138.6790  137.4326 LP  0  0  0  0  0  0  0  0  0  0  0  0  # atno 14822 bound_to 2476
  146.2080   99.9998  169.0828 LP  0  0  0  0  0  0  0  0  0  0  0  0  # atno 14837 bound_to 1661
  146.5646  101.1763  168.0079 LP  0  0  0  0  0  0  0  0  0  0  0  0  # atno 14838 bound_to 1661
  137.4695  135.2064   98.4569 LP  0  0  0  0  0  0  0  0  0  0  0  0  # atno 14871 bound_to 1769
  137.9203  134.1364   94.8164 LP  0  0  0  0  0  0  0  0  0  0  0  0  # atno 14872 bound_to 1772
  136.2926  133.7484   94.3694 LP  0  0  0  0  0  0  0  0  0  0  0  0  # atno 14873 bound_to 1772
  146.2658  165.0603  167.3902 LP  0  0  0  0  0  0  0  0  0  0  0  0  # atno 14890 bound_to 4497
  145.6706  166.5808  167.3691 LP  0  0  0  0  0  0  0  0  0  0  0  0  # atno 14891 bound_to 4497
  140.0940  122.4961  169.6796 LP  0  0  0  0  0  0  0  0  0  0  0  0  # atno 14896 bound_to 1867
  140.4282  123.8669  168.8575 LP  0  0  0  0  0  0  0  0  0  0  0  0  # atno 14897 bound_to 1867
  136.8816  147.6365  169.6006 LP  0  0  0  0  0  0  0  0  0  0  0  0  # atno 14898 bound_to 1868
  136.2236  149.8879  169.3145 LP  0  0  0  0  0  0  0  0  0  0  0  0  # atno 14899 bound_to 1871
  135.6616  149.9414  170.9520 LP  0  0  0  0  0  0  0  0  0  0  0  0  # atno 14900 bound_to 1871
  139.9365  147.7476  168.1981 LP  0  0  0  0  0  0  0  0  0  0  0  0  # atno 14901 bound_to 1873
  141.0214  148.5234  169.1403 LP  0  0  0  0  0  0  0  0  0  0  0  0  # atno 14902 bound_to 1873
  151.8592  163.1459  172.1417 LP  0  0  0  0  0  0  0  0  0  0  0  0  # atno 14941 bound_to 4458
  153.4247  163.1869  171.6790 LP  0  0  0  0  0  0  0  0  0  0  0  0  # atno 14942 bound_to 4458
  138.4877  144.5158  139.4709 LP  0  0  0  0  0  0  0  0  0  0  0  0  # atno 14943 bound_to 4459
  139.9165  143.9134  137.4606 LP  0  0  0  0  0  0  0  0  0  0  0  0  # atno 14944 bound_to 4462
  139.4511  142.2580  137.2530 LP  0  0  0  0  0  0  0  0  0  0  0  0  # atno 14945 bound_to 4462
  137.2471  142.0651  141.3025 LP  0  0  0  0  0  0  0  0  0  0  0  0  # atno 14946 bound_to 4465
  138.4317  142.0632  142.4265 LP  0  0  0  0  0  0  0  0  0  0  0  0  # atno 14947 bound_to 4465

> <Gold.Score>
     Fitness  S(hb_ext) S(vdw_ext)  S(hb_int)    S(int)      intcor
     30.45       0.00      22.31       0.00      -0.22      -0.76

> <Gold.Goldscore.Fitness>
30.4534

> <Gold.Goldscore.Internal.Vdw>
-0.5706

> <Gold.Goldscore.Internal.Torsion>
-0.4091

> <Gold.Goldscore.External.Vdw>
22.3088

> <Gold.Goldscore.Internal.HBond>
0.0000

> <Gold.Goldscore.External.HBond>
0.0000

> <Gold.Goldscore.Internal.Correction>
-0.7585

> <Gold.Goldscore.Internal.Vdw.Weighted>
-0.5706

> <Gold.Goldscore.Internal.Torsion.Weighted>
-0.4091

> <Gold.Goldscore.External.Vdw.Weighted>
30.6746

> <Gold.Goldscore.Internal.HBond.Weighted>
0.0000

> <Gold.Goldscore.External.HBond.Weighted>
0.0000

> <Gold.Goldscore.Internal.Correction.Weighted>
-0.7585

> <Gold.Rescore>
     Score     S(PLP)   S(hbond)     S(cho)   S(metal)  DE(clash)   DE(tors)     intcor
     18.38     -18.57       0.00       0.00       0.00       0.00       0.09       ----

> <Gold.PLP.Fitness>
18.3821

> <Gold.PLP.PLP>
-18.5713

> <Gold.PLP.part.hbond>
-0.5586

> <Gold.PLP.part.metal>
0.0000

> <Gold.PLP.part.buried>
-1.8289

> <Gold.PLP.part.nonpolar>
-24.6237

> <Gold.PLP.part.repulsive>
7.9835

> <Gold.PLP.ligand.clash>
0.0000

> <Gold.PLP.ligand.torsion>
0.0946

> <Gold.PLP.Chemscore.Hbond>
0.0000

> <Gold.PLP.Chemscore.CHOScore>
0.0000

> <Gold.PLP.Chemscore.Metal>
0.0000

> <Gold.PLP.Chemscore.Internal.Correction>
   9.000000E+99

