#       Name:                CT1002167954
#       Creating user name   hitesit
#       Creation time:       Sun Apr 16 20:23:24 2023


#       File generated by GOLD software.
#

@<TRIPOS>MOLECULE
CT1002167954|ligand_prepared|mol2|1|dock5
    29    30     1
SMALL
NO_CHARGES


@<TRIPOS>ATOM
      1 C1         143.0398 141.7702 169.4973 C.3            1 RES1               0.0000
      2 C2         144.4960 141.5398 169.9503 C.ar           1 RES1               0.0000
      3 C3         142.7212 140.6612 168.4988 C.2            1 RES1               0.0000
      4 C4         142.1887 141.7323 170.7617 C.2            1 RES1               0.0000
      5 C5         142.8088 143.1344 168.8065 C.3            1 RES1               0.0000
      6 C6         145.3595 142.6156 170.1342 C.ar           1 RES1               0.0000
      7 C7         144.9887 140.2599 170.1903 C.ar           1 RES1               0.0000
      8 N8         141.9013 139.6536 168.9140 N.am           1 RES1               0.0000
      9 O9         143.2135 140.6503 167.3773 O.2            1 RES1               0.0000
     10 N10        141.2874 140.7093 170.8986 N.am           1 RES1               0.0000
     11 O11        142.3021 142.5698 171.6483 O.2            1 RES1               0.0000
     12 C12        141.4438 143.2654 168.1493 C.3            1 RES1               0.0000
     13 C13        146.6673 142.4192 170.5460 C.ar           1 RES1               0.0000
     14 C14        146.2969 140.0657 170.6019 C.ar           1 RES1               0.0000
     15 C15        141.1268 139.6510 170.0462 C.2            1 RES1               0.0000
     16 C16        147.1367 141.1444 170.7805 C.ar           1 RES1               0.0000
     17 O17        140.3329 138.7406 170.2651 O.2            1 RES1               0.0000
     18 H18        142.9195 143.9311 169.5524 H              1 RES1               0.0000
     19 H19        143.5834 143.2794 168.0434 H              1 RES1               0.0000
     20 H20        145.0086 143.6259 169.9521 H              1 RES1               0.0000
     21 H21        144.3463 139.3963 170.0552 H              1 RES1               0.0000
     22 H22        141.8603 138.8254 168.3287 H              1 RES1               0.0000
     23 H23        140.6798 140.7394 171.7111 H              1 RES1               0.0000
     24 H24        141.3339 144.2407 167.6797 H              1 RES1               0.0000
     25 H25        141.3094 142.5038 167.3840 H              1 RES1               0.0000
     26 H26        140.6494 143.1515 168.8841 H              1 RES1               0.0000
     27 H27        147.3246 143.2714 170.6838 H              1 RES1               0.0000
     28 H28        146.6622 139.0605 170.7847 H              1 RES1               0.0000
     29 H29        148.1610 140.9908 171.1035 H              1 RES1               0.0000
@<TRIPOS>BOND
    1    1    2 1     
    2    1    3 1     
    3    1    4 1     
    4    1    5 1     
    5    2    6 ar    
    6    2    7 ar    
    7    3    8 1     
    8    3    9 2     
    9    4   10 1     
   10    4   11 2     
   11    5   12 1     
   12    5   18 1     
   13    5   19 1     
   14    6   13 ar    
   15    6   20 1     
   16    7   14 ar    
   17    7   21 1     
   18    8   15 1     
   19    8   22 1     
   20   10   15 1     
   21   10   23 1     
   22   12   24 1     
   23   12   25 1     
   24   12   26 1     
   25   13   16 ar    
   26   13   27 1     
   27   14   16 ar    
   28   14   28 1     
   29   15   17 2     
   30   16   29 1     
@<TRIPOS>SUBSTRUCTURE
      1 RES1           1
@<TRIPOS>SET
DONOR_HYDROGENS      STATIC     ATOMS    <user>   **** ""
2 22 23
ATOM$RED        STATIC     ATOMS    COLORGROUP SYSTEM
2 22 23
@<TRIPOS>COMMENT
> <Gold.Version>
2022.3.0

> <Gold.Id.Protein>
unknown|7rmh_cavity_clean|pdb

> <Gold.Protein.RotatedTorsions>
[ 5151 5142 5141 5139 ] final    6.10 input   59.98 | X-H torsion
[ 5186 5181 5180 5177 ] final  -86.59 input   59.99 | X-H torsion
[ 6481 6474 6475 6476 ] final  110.90 input  103.68 | X-H torsion
[  676  663  664  665 ] final   47.97 input  108.58 | X-H torsion
[  692  687  686  683 ] final  -60.46 input   59.99 | X-H torsion
[  713  708  707  706 ] final  -60.43 input   60.01 | X-H torsion
[ 1581 1565 1566 1567 ] final -106.14 input  115.26 | X-H torsion
[ 2436 2427 2428 2429 ] final -145.55 input   99.19 | X-H torsion
[ 2461 2452 2451 2449 ] final  162.51 input   60.00 | X-H torsion
[ 2493 2473 2474 2475 ] final   80.63 input  111.54 | X-H torsion
[ 1670 1661 1660 1658 ] final   -2.96 input   59.97 | X-H torsion
[ 1788 1769 1770 1771 ] final -172.32 input  122.82 | X-H torsion
[ 4502 4497 4496 4493 ] final   91.88 input   59.97 | X-H torsion
[ 1878 1867 1866 1863 ] final   80.02 input   59.99 | X-H torsion
[ 1879 1868 1869 1870 ] final -155.29 input   29.02 | X-H torsion
[ 1883 1873 1872 1869 ] final   -3.36 input   60.02 | X-H torsion
[ 1328 1317 1316 1315 ] final  159.58 input   60.01 | X-H torsion
[ 4472 4458 4456 4453 ] final   24.44 input   59.98 | X-H torsion
[ 4473 4459 4460 4461 ] final  -21.76 input   43.99 | X-H torsion
[ 4479 4465 4463 4460 ] final   62.92 input   60.01 | X-H torsion
[ 14767 6477 6476 6475 ] final   14.35 input   -0.00 | X-H torsion
[ 14784  666  665  664 ] final  -57.84 input   -0.00 | X-H torsion
[ 14799 1568 1567 1566 ] final   49.01 input    0.00 | X-H torsion
[ 14808 2430 2429 2428 ] final  -46.42 input    0.00 | X-H torsion
[ 14821 2476 2475 2474 ] final   44.85 input    0.00 | X-H torsion
[ 14872 1772 1771 1770 ] final  -34.04 input    0.00 | X-H torsion
[ 14899 1871 1870 1869 ] final   47.36 input    0.00 | X-H torsion
[ 14944 4462 4461 4460 ] final -105.24 input    0.00 | X-H torsion

> <Gold.Protein.ActiveResidues>
 LEU46   GLY47   ALA48   ASP49   ASN50   SER51   LYS53   VAL224  GLY225  GLY226 
 GLN227  ARG228  ASP229  GLU230  ARG231  ARG232  LYS233  TRP234  ILE235  GLN236 
 CYS237  PHE246  VAL247  VAL248  ASP249  ASP252  TYR253  ASN264  ARG265  LEU266 
 GLN267  GLU268  ALA269  LEU270  ASN271  LEU272  LYS274  SER275  ASN278  ASN279 
 ARG280  TRP281  ASP310  TYR311  PHE312  GLU344  ARG347  ILE348  ALA351  ILE18  
 TRP63   THR65   ASP66   SER67   ARG68   LEU69   TYR105  ALA106  PRO107  SER108 
 GLY109  ASN110  CYS149  ARG150  PHE151  ASP154  ASN155  GLN156  LEU192  ALA193 
 PRO194  ASP195  THR196  ARG197  LEU198  VAL200  ILE229  ASN230  ALA231  CYS233 
 PHE235 

> <Gold.Protein.RotatedAtoms>
  124.9614  143.6400  126.5849 H   0  0  0  0  0  0  0  0  0  0  0  0  # atno 676  bound_to 663 
  152.2026  115.7840  168.5526 H   0  0  0  0  0  0  0  0  0  0  0  0  # atno 692  bound_to 687 
  153.8069  122.2810  167.2341 H   0  0  0  0  0  0  0  0  0  0  0  0  # atno 713  bound_to 708 
  152.9283  121.1953  168.1256 H   0  0  0  0  0  0  0  0  0  0  0  0  # atno 714  bound_to 708 
  154.1268  122.0831  168.8475 H   0  0  0  0  0  0  0  0  0  0  0  0  # atno 715  bound_to 708 
  139.8650  137.1648  174.7370 H   0  0  0  0  0  0  0  0  0  0  0  0  # atno 1328 bound_to 1317
  139.3343  136.2196  173.4829 H   0  0  0  0  0  0  0  0  0  0  0  0  # atno 1329 bound_to 1317
  140.5919  135.7066  174.4332 H   0  0  0  0  0  0  0  0  0  0  0  0  # atno 1330 bound_to 1317
  134.1506  122.8019  131.3796 H   0  0  0  0  0  0  0  0  0  0  0  0  # atno 1581 bound_to 1565
  145.7898  101.1189  167.6354 H   0  0  0  0  0  0  0  0  0  0  0  0  # atno 1670 bound_to 1661
  136.4504  134.1274   99.2954 H   0  0  0  0  0  0  0  0  0  0  0  0  # atno 1788 bound_to 1769
  140.3617  123.7790  168.4504 H   0  0  0  0  0  0  0  0  0  0  0  0  # atno 1878 bound_to 1867
  138.3918  146.7644  169.6642 H   0  0  0  0  0  0  0  0  0  0  0  0  # atno 1879 bound_to 1868
  140.3863  147.8329  169.0094 H   0  0  0  0  0  0  0  0  0  0  0  0  # atno 1883 bound_to 1873
  126.5597  131.3151  139.2705 H   0  0  0  0  0  0  0  0  0  0  0  0  # atno 2436 bound_to 2427
  144.8216  101.2201  176.4893 H   0  0  0  0  0  0  0  0  0  0  0  0  # atno 2461 bound_to 2452
  126.8938  135.3132  138.9901 H   0  0  0  0  0  0  0  0  0  0  0  0  # atno 2493 bound_to 2473
  152.1425  162.3943  170.8542 H   0  0  0  0  0  0  0  0  0  0  0  0  # atno 4472 bound_to 4458
  138.4381  144.2562  139.0805 H   0  0  0  0  0  0  0  0  0  0  0  0  # atno 4473 bound_to 4459
  137.2412  142.0392  141.2985 H   0  0  0  0  0  0  0  0  0  0  0  0  # atno 4479 bound_to 4465
  146.9970  166.6899  167.6413 H   0  0  0  0  0  0  0  0  0  0  0  0  # atno 4502 bound_to 4497
  156.7843  161.2873  164.9171 H   0  0  0  0  0  0  0  0  0  0  0  0  # atno 5151 bound_to 5142
  159.7632  165.1636  173.8717 H   0  0  0  0  0  0  0  0  0  0  0  0  # atno 5186 bound_to 5181
  145.2256  139.2989  105.6881 H   0  0  0  0  0  0  0  0  0  0  0  0  # atno 6481 bound_to 6474
  156.8357  162.0775  166.3386 LP  0  0  0  0  0  0  0  0  0  0  0  0  # atno 14720 bound_to 5142
  155.5593  162.2718  165.3387 LP  0  0  0  0  0  0  0  0  0  0  0  0  # atno 14721 bound_to 5142
  160.3440  163.7532  174.4389 LP  0  0  0  0  0  0  0  0  0  0  0  0  # atno 14728 bound_to 5181
  158.7347  163.9632  174.2583 LP  0  0  0  0  0  0  0  0  0  0  0  0  # atno 14729 bound_to 5181
  146.0695  138.2525  106.7929 LP  0  0  0  0  0  0  0  0  0  0  0  0  # atno 14766 bound_to 6474
  143.0343  138.4131  109.7309 LP  0  0  0  0  0  0  0  0  0  0  0  0  # atno 14767 bound_to 6477
  142.6864  136.7743  109.2913 LP  0  0  0  0  0  0  0  0  0  0  0  0  # atno 14768 bound_to 6477
  125.4745  142.0012  126.8924 LP  0  0  0  0  0  0  0  0  0  0  0  0  # atno 14783 bound_to 663 
  128.0645  143.9422  129.5011 LP  0  0  0  0  0  0  0  0  0  0  0  0  # atno 14784 bound_to 666 
  128.6690  145.4268  128.8450 LP  0  0  0  0  0  0  0  0  0  0  0  0  # atno 14785 bound_to 666 
  151.6314  116.2571  167.1046 LP  0  0  0  0  0  0  0  0  0  0  0  0  # atno 14790 bound_to 687 
  153.2384  116.0777  167.3329 LP  0  0  0  0  0  0  0  0  0  0  0  0  # atno 14791 bound_to 687 
  133.0361  121.4736  131.6016 LP  0  0  0  0  0  0  0  0  0  0  0  0  # atno 14798 bound_to 1565
  134.4343  121.2251  127.1481 LP  0  0  0  0  0  0  0  0  0  0  0  0  # atno 14799 bound_to 1568
  133.2014  122.4382  127.0568 LP  0  0  0  0  0  0  0  0  0  0  0  0  # atno 14800 bound_to 1568
  127.5482  132.4441  140.1676 LP  0  0  0  0  0  0  0  0  0  0  0  0  # atno 14807 bound_to 2427
  123.7522  134.5551  140.4130 LP  0  0  0  0  0  0  0  0  0  0  0  0  # atno 14808 bound_to 2430
  124.3561  135.2857  141.8627 LP  0  0  0  0  0  0  0  0  0  0  0  0  # atno 14809 bound_to 2430
  144.3762  101.9650  177.8655 LP  0  0  0  0  0  0  0  0  0  0  0  0  # atno 14814 bound_to 2452
  145.3181  102.7418  176.7811 LP  0  0  0  0  0  0  0  0  0  0  0  0  # atno 14815 bound_to 2452
  126.9443  136.8590  139.8000 LP  0  0  0  0  0  0  0  0  0  0  0  0  # atno 14820 bound_to 2473
  124.4158  138.1598  136.2670 LP  0  0  0  0  0  0  0  0  0  0  0  0  # atno 14821 bound_to 2476
  123.2376  138.0476  137.5316 LP  0  0  0  0  0  0  0  0  0  0  0  0  # atno 14822 bound_to 2476
  145.2945   99.9354  168.6361 LP  0  0  0  0  0  0  0  0  0  0  0  0  # atno 14837 bound_to 1661
  146.7910  100.5694  168.7944 LP  0  0  0  0  0  0  0  0  0  0  0  0  # atno 14838 bound_to 1661
  137.1983  135.4820   98.4793 LP  0  0  0  0  0  0  0  0  0  0  0  0  # atno 14871 bound_to 1769
  137.4448  133.3837   95.1616 LP  0  0  0  0  0  0  0  0  0  0  0  0  # atno 14872 bound_to 1772
  136.7681  134.5011   94.0242 LP  0  0  0  0  0  0  0  0  0  0  0  0  # atno 14873 bound_to 1772
  146.7019  165.0975  167.4804 LP  0  0  0  0  0  0  0  0  0  0  0  0  # atno 14890 bound_to 4497
  145.4892  166.1772  167.3063 LP  0  0  0  0  0  0  0  0  0  0  0  0  # atno 14891 bound_to 4497
  139.8882  122.2257  168.3422 LP  0  0  0  0  0  0  0  0  0  0  0  0  # atno 14896 bound_to 1867
  140.2207  122.8812  169.8005 LP  0  0  0  0  0  0  0  0  0  0  0  0  # atno 14897 bound_to 1867
  136.8988  147.6591  169.4995 LP  0  0  0  0  0  0  0  0  0  0  0  0  # atno 14898 bound_to 1868
  135.8879  149.0525  170.1932 LP  0  0  0  0  0  0  0  0  0  0  0  0  # atno 14899 bound_to 1871
  135.9973  150.7769  170.0733 LP  0  0  0  0  0  0  0  0  0  0  0  0  # atno 14900 bound_to 1871
  141.1959  149.1284  168.4490 LP  0  0  0  0  0  0  0  0  0  0  0  0  # atno 14901 bound_to 1873
  140.1140  148.3627  167.4952 LP  0  0  0  0  0  0  0  0  0  0  0  0  # atno 14902 bound_to 1873
  152.0093  163.2392  172.2385 LP  0  0  0  0  0  0  0  0  0  0  0  0  # atno 14941 bound_to 4458
  153.4619  163.0866  171.5082 LP  0  0  0  0  0  0  0  0  0  0  0  0  # atno 14942 bound_to 4458
  137.5122  143.5341  140.3804 LP  0  0  0  0  0  0  0  0  0  0  0  0  # atno 14943 bound_to 4459
  139.6747  142.2442  137.1524 LP  0  0  0  0  0  0  0  0  0  0  0  0  # atno 14944 bound_to 4462
  139.6928  143.9272  137.5611 LP  0  0  0  0  0  0  0  0  0  0  0  0  # atno 14945 bound_to 4462
  138.4240  142.0854  142.4152 LP  0  0  0  0  0  0  0  0  0  0  0  0  # atno 14946 bound_to 4465
  137.7327  140.6619  142.0125 LP  0  0  0  0  0  0  0  0  0  0  0  0  # atno 14947 bound_to 4465

> <Gold.Score>
     Fitness  S(hb_ext) S(vdw_ext)  S(hb_int)    S(int)      intcor
     33.58       1.97      23.46       0.00      -0.64      -0.76

> <Gold.Goldscore.Fitness>
33.5844

> <Gold.Goldscore.Internal.Vdw>
-0.8771

> <Gold.Goldscore.Internal.Torsion>
-0.5298

> <Gold.Goldscore.External.Vdw>
23.4606

> <Gold.Goldscore.Internal.HBond>
0.0000

> <Gold.Goldscore.External.HBond>
1.9680

> <Gold.Goldscore.Internal.Correction>
-0.7650

> <Gold.Goldscore.Hbonds>
donor molecule, donor type, donor heavy atom, donor atom, acceptor molecule, acceptor atom, score
      L1  H     8    22       P1  1382  0.98

> <Gold.Goldscore.Internal.Vdw.Weighted>
-0.8771

> <Gold.Goldscore.Internal.Torsion.Weighted>
-0.5298

> <Gold.Goldscore.External.Vdw.Weighted>
32.2583

> <Gold.Goldscore.Internal.HBond.Weighted>
0.0000

> <Gold.Goldscore.External.HBond.Weighted>
1.9680

> <Gold.Goldscore.Internal.Correction.Weighted>
-0.7650

> <Gold.Rescore>
     Score     S(PLP)   S(hbond)     S(cho)   S(metal)  DE(clash)   DE(tors)     intcor
     35.55     -34.72       0.93       0.00       0.00       0.00       0.98       ----

> <Gold.PLP.Fitness>
35.5546

> <Gold.PLP.PLP>
-34.7247

> <Gold.PLP.part.hbond>
-2.2838

> <Gold.PLP.part.metal>
0.0000

> <Gold.PLP.part.buried>
-6.0584

> <Gold.PLP.part.nonpolar>
-28.4808

> <Gold.PLP.part.repulsive>
0.6154

> <Gold.PLP.ligand.clash>
0.0000

> <Gold.PLP.ligand.torsion>
0.9771

> <Gold.PLP.Chemscore.Hbond>
0.9280

> <Gold.PLP.Chemscore.CHOScore>
0.0000

> <Gold.PLP.Chemscore.Metal>
0.0000

> <Gold.Chemscore.Hbonds>
donor molecule, donor type, donor heavy atom, donor atom, acceptor molecule, acceptor atom, score
      L1  H     8    22       P1  1382  1.00
      L1  H    10    23       P1  6898  0.09

> <Gold.PLP.Chemscore.Internal.Correction>
   9.000000E+99

