#       Name:                CT1002167954
#       Creating user name   hitesit
#       Creation time:       Sun Apr 16 20:23:03 2023


#       File generated by GOLD software.
#

@<TRIPOS>MOLECULE
CT1002167954|ligand_prepared|mol2|1|dock4
    29    30     1
SMALL
NO_CHARGES


@<TRIPOS>ATOM
      1 C1         142.8394 141.4501 168.9858 C.3            1 RES1               0.0000
      2 C2         144.2755 141.3151 169.5318 C.ar           1 RES1               0.0000
      3 C3         142.9744 141.8393 167.5166 C.2            1 RES1               0.0000
      4 C4         142.1682 140.1000 169.2125 C.2            1 RES1               0.0000
      5 C5         141.9966 142.5293 169.7045 C.3            1 RES1               0.0000
      6 C6         145.0027 142.4432 169.8997 C.ar           1 RES1               0.0000
      7 C7         144.8845 140.0713 169.6756 C.ar           1 RES1               0.0000
      8 N8         142.7012 140.8843 166.5823 N.am           1 RES1               0.0000
      9 O9         143.3531 142.9555 167.1835 O.2            1 RES1               0.0000
     10 N10        141.8115 139.3672 168.1109 N.am           1 RES1               0.0000
     11 O11        141.9600 139.6567 170.3352 O.2            1 RES1               0.0000
     12 C12        140.5122 142.4638 169.3813 C.3            1 RES1               0.0000
     13 C13        146.2909 142.3319 170.3961 C.ar           1 RES1               0.0000
     14 C14        146.1730 139.9622 170.1720 C.ar           1 RES1               0.0000
     15 C15        142.0754 139.6843 166.8063 C.2            1 RES1               0.0000
     16 C16        146.8767 141.0914 170.5330 C.ar           1 RES1               0.0000
     17 O17        141.7713 138.9477 165.8725 O.2            1 RES1               0.0000
     18 H18        142.1275 142.4162 170.7877 H              1 RES1               0.0000
     19 H19        142.3759 143.5193 169.4225 H              1 RES1               0.0000
     20 H20        144.5591 143.4279 169.7967 H              1 RES1               0.0000
     21 H21        144.3503 139.1694 169.3970 H              1 RES1               0.0000
     22 H22        142.9888 141.0804 165.6288 H              1 RES1               0.0000
     23 H23        141.3020 138.5055 168.2790 H              1 RES1               0.0000
     24 H24        139.9674 143.2423 169.9112 H              1 RES1               0.0000
     25 H25        140.3432 142.5978 168.3149 H              1 RES1               0.0000
     26 H26        140.0963 141.5013 169.6721 H              1 RES1               0.0000
     27 H27        146.8410 143.2237 170.6775 H              1 RES1               0.0000
     28 H28        146.6303 138.9840 170.2775 H              1 RES1               0.0000
     29 H29        147.8857 141.0044 170.9223 H              1 RES1               0.0000
@<TRIPOS>BOND
    1    1    2 1     
    2    1    3 1     
    3    1    4 1     
    4    1    5 1     
    5    2    6 ar    
    6    2    7 ar    
    7    3    8 1     
    8    3    9 2     
    9    4   10 1     
   10    4   11 2     
   11    5   12 1     
   12    5   18 1     
   13    5   19 1     
   14    6   13 ar    
   15    6   20 1     
   16    7   14 ar    
   17    7   21 1     
   18    8   15 1     
   19    8   22 1     
   20   10   15 1     
   21   10   23 1     
   22   12   24 1     
   23   12   25 1     
   24   12   26 1     
   25   13   16 ar    
   26   13   27 1     
   27   14   16 ar    
   28   14   28 1     
   29   15   17 2     
   30   16   29 1     
@<TRIPOS>SUBSTRUCTURE
      1 RES1           1
@<TRIPOS>SET
DONOR_HYDROGENS      STATIC     ATOMS    <user>   **** ""
2 22 23
ATOM$RED        STATIC     ATOMS    COLORGROUP SYSTEM
2 22 23
@<TRIPOS>COMMENT
> <Gold.Version>
2022.3.0

> <Gold.Id.Protein>
unknown|7rmh_cavity_clean|pdb

> <Gold.Protein.RotatedTorsions>
[ 5151 5142 5141 5139 ] final   33.79 input   59.98 | X-H torsion
[ 5186 5181 5180 5177 ] final -170.62 input   59.99 | X-H torsion
[ 6481 6474 6475 6476 ] final   45.90 input  103.68 | X-H torsion
[  676  663  664  665 ] final  137.79 input  108.58 | X-H torsion
[  692  687  686  683 ] final -134.34 input   59.99 | X-H torsion
[  713  708  707  706 ] final   66.83 input   60.01 | X-H torsion
[ 1581 1565 1566 1567 ] final  178.14 input  115.26 | X-H torsion
[ 2436 2427 2428 2429 ] final  156.00 input   99.19 | X-H torsion
[ 2461 2452 2451 2449 ] final  -19.90 input   60.00 | X-H torsion
[ 2493 2473 2474 2475 ] final -129.17 input  111.54 | X-H torsion
[ 1670 1661 1660 1658 ] final  117.38 input   59.97 | X-H torsion
[ 1788 1769 1770 1771 ] final  -96.87 input  122.82 | X-H torsion
[ 4502 4497 4496 4493 ] final -134.92 input   59.97 | X-H torsion
[ 1878 1867 1866 1863 ] final  144.09 input   59.99 | X-H torsion
[ 1879 1868 1869 1870 ] final -152.42 input   29.02 | X-H torsion
[ 1883 1873 1872 1869 ] final  -77.82 input   60.02 | X-H torsion
[ 1328 1317 1316 1315 ] final   80.92 input   60.01 | X-H torsion
[ 4472 4458 4456 4453 ] final  -89.77 input   59.98 | X-H torsion
[ 4473 4459 4460 4461 ] final   88.45 input   43.99 | X-H torsion
[ 4479 4465 4463 4460 ] final -169.80 input   60.01 | X-H torsion
[ 14767 6477 6476 6475 ] final  -59.67 input   -0.00 | X-H torsion
[ 14784  666  665  664 ] final  -40.08 input   -0.00 | X-H torsion
[ 14799 1568 1567 1566 ] final -172.49 input    0.00 | X-H torsion
[ 14808 2430 2429 2428 ] final -148.61 input    0.00 | X-H torsion
[ 14821 2476 2475 2474 ] final  -85.18 input    0.00 | X-H torsion
[ 14872 1772 1771 1770 ] final -110.44 input    0.00 | X-H torsion
[ 14899 1871 1870 1869 ] final  -61.19 input    0.00 | X-H torsion
[ 14944 4462 4461 4460 ] final -106.08 input    0.00 | X-H torsion

> <Gold.Protein.ActiveResidues>
 LEU46   GLY47   ALA48   ASP49   ASN50   SER51   LYS53   VAL224  GLY225  GLY226 
 GLN227  ARG228  ASP229  GLU230  ARG231  ARG232  LYS233  TRP234  ILE235  GLN236 
 CYS237  PHE246  VAL247  VAL248  ASP249  ASP252  TYR253  ASN264  ARG265  LEU266 
 GLN267  GLU268  ALA269  LEU270  ASN271  LEU272  LYS274  SER275  ASN278  ASN279 
 ARG280  TRP281  ASP310  TYR311  PHE312  GLU344  ARG347  ILE348  ALA351  ILE18  
 TRP63   THR65   ASP66   SER67   ARG68   LEU69   TYR105  ALA106  PRO107  SER108 
 GLY109  ASN110  CYS149  ARG150  PHE151  ASP154  ASN155  GLN156  LEU192  ALA193 
 PRO194  ASP195  THR196  ARG197  LEU198  VAL200  ILE229  ASN230  ALA231  CYS233 
 PHE235 

> <Gold.Protein.RotatedAtoms>
  125.3706  142.7046  125.8819 H   0  0  0  0  0  0  0  0  0  0  0  0  # atno 676  bound_to 663 
  151.4294  116.0657  167.7858 H   0  0  0  0  0  0  0  0  0  0  0  0  # atno 692  bound_to 687 
  152.9574  121.1867  168.2431 H   0  0  0  0  0  0  0  0  0  0  0  0  # atno 713  bound_to 708 
  154.1872  122.1606  168.7767 H   0  0  0  0  0  0  0  0  0  0  0  0  # atno 714  bound_to 708 
  153.7184  122.2128  167.1882 H   0  0  0  0  0  0  0  0  0  0  0  0  # atno 715  bound_to 708 
  140.6292  136.2304  174.8582 H   0  0  0  0  0  0  0  0  0  0  0  0  # atno 1328 bound_to 1317
  139.4021  137.1611  174.2454 H   0  0  0  0  0  0  0  0  0  0  0  0  # atno 1329 bound_to 1317
  139.7605  135.6996  173.5503 H   0  0  0  0  0  0  0  0  0  0  0  0  # atno 1330 bound_to 1317
  134.3146  121.8783  131.9277 H   0  0  0  0  0  0  0  0  0  0  0  0  # atno 1581 bound_to 1565
  146.7825  100.5666  168.7960 H   0  0  0  0  0  0  0  0  0  0  0  0  # atno 1670 bound_to 1661
  137.4338  134.1658   98.8359 H   0  0  0  0  0  0  0  0  0  0  0  0  # atno 1788 bound_to 1769
  140.4174  123.6585  169.4349 H   0  0  0  0  0  0  0  0  0  0  0  0  # atno 1878 bound_to 1867
  138.3813  146.7569  169.7065 H   0  0  0  0  0  0  0  0  0  0  0  0  # atno 1879 bound_to 1868
  141.1139  148.7006  169.0315 H   0  0  0  0  0  0  0  0  0  0  0  0  # atno 1883 bound_to 1873
  126.9060  131.0677  140.0229 H   0  0  0  0  0  0  0  0  0  0  0  0  # atno 2436 bound_to 2427
  144.8762  102.7464  177.5705 H   0  0  0  0  0  0  0  0  0  0  0  0  # atno 2461 bound_to 2452
  127.3543  136.8257  139.6196 H   0  0  0  0  0  0  0  0  0  0  0  0  # atno 2493 bound_to 2473
  151.9388  163.1969  172.1905 H   0  0  0  0  0  0  0  0  0  0  0  0  # atno 4472 bound_to 4458
  137.5334  143.1665  139.4478 H   0  0  0  0  0  0  0  0  0  0  0  0  # atno 4473 bound_to 4459
  137.8216  140.6787  142.0908 H   0  0  0  0  0  0  0  0  0  0  0  0  # atno 4479 bound_to 4465
  145.4805  165.9620  167.2885 H   0  0  0  0  0  0  0  0  0  0  0  0  # atno 4502 bound_to 4497
  156.3997  161.4065  164.7211 H   0  0  0  0  0  0  0  0  0  0  0  0  # atno 5151 bound_to 5142
  160.5476  164.2654  174.2577 H   0  0  0  0  0  0  0  0  0  0  0  0  # atno 5186 bound_to 5181
  145.0428  138.3850  105.7526 H   0  0  0  0  0  0  0  0  0  0  0  0  # atno 6481 bound_to 6474
  157.1148  161.7899  166.1314 LP  0  0  0  0  0  0  0  0  0  0  0  0  # atno 14720 bound_to 5142
  155.6677  162.4394  165.7433 LP  0  0  0  0  0  0  0  0  0  0  0  0  # atno 14721 bound_to 5142
  159.0989  163.5461  174.4376 LP  0  0  0  0  0  0  0  0  0  0  0  0  # atno 14728 bound_to 5181
  159.1898  165.0749  173.8710 LP  0  0  0  0  0  0  0  0  0  0  0  0  # atno 14729 bound_to 5181
  146.2525  139.1677  106.7283 LP  0  0  0  0  0  0  0  0  0  0  0  0  # atno 14766 bound_to 6474
  143.6657  137.5893  109.8296 LP  0  0  0  0  0  0  0  0  0  0  0  0  # atno 14767 bound_to 6477
  142.0550  137.5981  109.1927 LP  0  0  0  0  0  0  0  0  0  0  0  0  # atno 14768 bound_to 6477
  125.0705  142.9246  127.5863 LP  0  0  0  0  0  0  0  0  0  0  0  0  # atno 14783 bound_to 663 
  128.2431  143.8417  129.3292 LP  0  0  0  0  0  0  0  0  0  0  0  0  # atno 14784 bound_to 666 
  128.4904  145.5273  129.0169 LP  0  0  0  0  0  0  0  0  0  0  0  0  # atno 14785 bound_to 666 
  152.7306  116.2627  166.8294 LP  0  0  0  0  0  0  0  0  0  0  0  0  # atno 14790 bound_to 687 
  152.9180  115.7883  168.3806 LP  0  0  0  0  0  0  0  0  0  0  0  0  # atno 14791 bound_to 687 
  132.8762  122.3741  131.0671 LP  0  0  0  0  0  0  0  0  0  0  0  0  # atno 14798 bound_to 1565
  132.9933  121.9005  126.8469 LP  0  0  0  0  0  0  0  0  0  0  0  0  # atno 14799 bound_to 1568
  134.6424  121.7628  127.3581 LP  0  0  0  0  0  0  0  0  0  0  0  0  # atno 14800 bound_to 1568
  127.2107  132.6854  139.4341 LP  0  0  0  0  0  0  0  0  0  0  0  0  # atno 14807 bound_to 2427
  124.4563  135.6246  140.8338 LP  0  0  0  0  0  0  0  0  0  0  0  0  # atno 14808 bound_to 2430
  123.6520  134.2163  141.4419 LP  0  0  0  0  0  0  0  0  0  0  0  0  # atno 14809 bound_to 2430
  145.2897  101.9447  176.2164 LP  0  0  0  0  0  0  0  0  0  0  0  0  # atno 14814 bound_to 2452
  144.3497  101.2241  177.3407 LP  0  0  0  0  0  0  0  0  0  0  0  0  # atno 14815 bound_to 2452
  126.4917  135.3724  139.1813 LP  0  0  0  0  0  0  0  0  0  0  0  0  # atno 14820 bound_to 2473
  123.7847  138.5164  137.6595 LP  0  0  0  0  0  0  0  0  0  0  0  0  # atno 14821 bound_to 2476
  123.8687  137.6910  136.1391 LP  0  0  0  0  0  0  0  0  0  0  0  0  # atno 14822 bound_to 2476
  145.7945  101.1238  167.6294 LP  0  0  0  0  0  0  0  0  0  0  0  0  # atno 14837 bound_to 1661
  145.2910   99.9373  168.6320 LP  0  0  0  0  0  0  0  0  0  0  0  0  # atno 14838 bound_to 1661
  136.2435  135.4447   98.9255 LP  0  0  0  0  0  0  0  0  0  0  0  0  # atno 14871 bound_to 1769
  137.9058  134.2475   94.7272 LP  0  0  0  0  0  0  0  0  0  0  0  0  # atno 14872 bound_to 1772
  136.3072  133.6373   94.4587 LP  0  0  0  0  0  0  0  0  0  0  0  0  # atno 14873 bound_to 1772
  146.8250  166.8183  167.6170 LP  0  0  0  0  0  0  0  0  0  0  0  0  # atno 14890 bound_to 4497
  146.8932  165.1894  167.5249 LP  0  0  0  0  0  0  0  0  0  0  0  0  # atno 14891 bound_to 4497
  140.1150  123.1098  167.9329 LP  0  0  0  0  0  0  0  0  0  0  0  0  # atno 14896 bound_to 1867
  139.9377  122.1185  169.2184 LP  0  0  0  0  0  0  0  0  0  0  0  0  # atno 14897 bound_to 1867
  136.9090  147.6665  169.4582 LP  0  0  0  0  0  0  0  0  0  0  0  0  # atno 14898 bound_to 1868
  136.2239  150.1185  169.3400 LP  0  0  0  0  0  0  0  0  0  0  0  0  # atno 14899 bound_to 1871
  135.6613  149.7108  170.9265 LP  0  0  0  0  0  0  0  0  0  0  0  0  # atno 14900 bound_to 1871
  140.5829  148.9218  167.5094 LP  0  0  0  0  0  0  0  0  0  0  0  0  # atno 14901 bound_to 1873
  139.9942  147.6952  168.4125 LP  0  0  0  0  0  0  0  0  0  0  0  0  # atno 14902 bound_to 1873
  153.4495  163.1353  171.5892 LP  0  0  0  0  0  0  0  0  0  0  0  0  # atno 14941 bound_to 4458
  152.2268  162.3823  170.8117 LP  0  0  0  0  0  0  0  0  0  0  0  0  # atno 14942 bound_to 4458
  138.3840  144.5841  140.0265 LP  0  0  0  0  0  0  0  0  0  0  0  0  # atno 14943 bound_to 4459
  139.6864  142.2453  137.1476 LP  0  0  0  0  0  0  0  0  0  0  0  0  # atno 14944 bound_to 4462
  139.6812  143.9261  137.5659 LP  0  0  0  0  0  0  0  0  0  0  0  0  # atno 14945 bound_to 4462
  137.1897  141.9347  141.2713 LP  0  0  0  0  0  0  0  0  0  0  0  0  # atno 14946 bound_to 4465
  138.3825  142.1826  142.3586 LP  0  0  0  0  0  0  0  0  0  0  0  0  # atno 14947 bound_to 4465

> <Gold.Score>
     Fitness  S(hb_ext) S(vdw_ext)  S(hb_int)    S(int)      intcor
     35.79       0.33      26.48       0.00      -0.95      -0.76

> <Gold.Goldscore.Fitness>
35.7908

> <Gold.Goldscore.Internal.Vdw>
-1.1101

> <Gold.Goldscore.Internal.Torsion>
-0.6013

> <Gold.Goldscore.External.Vdw>
26.4795

> <Gold.Goldscore.Internal.HBond>
0.0000

> <Gold.Goldscore.External.HBond>
0.3279

> <Gold.Goldscore.Internal.Correction>
-0.7650

> <Gold.Goldscore.Hbonds>
donor molecule, donor type, donor heavy atom, donor atom, acceptor molecule, acceptor atom, score
      L1  H    10    23       P1  1382  0.16

> <Gold.Goldscore.Internal.Vdw.Weighted>
-1.1101

> <Gold.Goldscore.Internal.Torsion.Weighted>
-0.6013

> <Gold.Goldscore.External.Vdw.Weighted>
36.4093

> <Gold.Goldscore.Internal.HBond.Weighted>
0.0000

> <Gold.Goldscore.External.HBond.Weighted>
0.3279

> <Gold.Goldscore.Internal.Correction.Weighted>
-0.7650

> <Gold.Rescore>
     Score     S(PLP)   S(hbond)     S(cho)   S(metal)  DE(clash)   DE(tors)     intcor
     31.03     -29.59       1.00       0.00       0.00       1.44       0.06       ----

> <Gold.PLP.Fitness>
31.0341

> <Gold.PLP.PLP>
-29.5895

> <Gold.PLP.part.hbond>
-4.1946

> <Gold.PLP.part.metal>
0.0000

> <Gold.PLP.part.buried>
1.3471

> <Gold.PLP.part.nonpolar>
-28.5630

> <Gold.PLP.part.repulsive>
0.4636

> <Gold.PLP.ligand.clash>
1.4359

> <Gold.PLP.ligand.torsion>
0.0598

> <Gold.PLP.Chemscore.Hbond>
1.0000

> <Gold.PLP.Chemscore.CHOScore>
0.0000

> <Gold.PLP.Chemscore.Metal>
0.0000

> <Gold.Chemscore.Hbonds>
donor molecule, donor type, donor heavy atom, donor atom, acceptor molecule, acceptor atom, score
      L1  H    10    23       P1  1382  0.56

> <Gold.PLP.Chemscore.Internal.Correction>
   9.000000E+99

