#       Name:                CT1002167954
#       Creating user name   hitesit
#       Creation time:       Sun Apr 16 20:24:28 2023


#       File generated by GOLD software.
#

@<TRIPOS>MOLECULE
CT1002167954|ligand_prepared|mol2|1|dock8
    29    30     1
SMALL
NO_CHARGES


@<TRIPOS>ATOM
      1 C1         143.1533 144.2256 170.4349 C.3            1 RES1               0.0000
      2 C2         142.1270 143.0744 170.4285 C.ar           1 RES1               0.0000
      3 C3         142.6039 145.2946 169.4949 C.2            1 RES1               0.0000
      4 C4         143.2784 144.6776 171.8857 C.2            1 RES1               0.0000
      5 C5         144.5590 143.8122 169.9404 C.3            1 RES1               0.0000
      6 C6         142.5190 141.7738 170.7314 C.ar           1 RES1               0.0000
      7 C7         140.7866 143.2973 170.1249 C.ar           1 RES1               0.0000
      8 N8         142.0867 146.4246 170.0567 N.am           1 RES1               0.0000
      9 O9         142.5885 145.1314 168.2811 O.2            1 RES1               0.0000
     10 N10        142.8497 145.9395 172.2043 N.am           1 RES1               0.0000
     11 O11        143.7290 143.9463 172.7589 O.2            1 RES1               0.0000
     12 C12        145.4784 144.9887 169.6528 C.3            1 RES1               0.0000
     13 C13        141.6037 140.7344 170.7337 C.ar           1 RES1               0.0000
     14 C14        139.8729 142.2563 170.1275 C.ar           1 RES1               0.0000
     15 C15        142.2312 146.8223 171.3615 C.2            1 RES1               0.0000
     16 C16        140.2801 140.9749 170.4322 C.ar           1 RES1               0.0000
     17 O17        141.8246 147.9187 171.7353 O.2            1 RES1               0.0000
     18 H18        145.0277 143.1754 170.7008 H              1 RES1               0.0000
     19 H19        144.4505 143.2170 169.0253 H              1 RES1               0.0000
     20 H20        143.5568 141.5650 170.9688 H              1 RES1               0.0000
     21 H21        140.4438 144.2972 169.8812 H              1 RES1               0.0000
     22 H22        141.5422 147.0299 169.4505 H              1 RES1               0.0000
     23 H23        143.0063 146.2495 173.1581 H              1 RES1               0.0000
     24 H24        146.4511 144.6431 169.3091 H              1 RES1               0.0000
     25 H25        145.0550 145.6298 168.8825 H              1 RES1               0.0000
     26 H26        145.6288 145.5885 170.5481 H              1 RES1               0.0000
     27 H27        141.9295 139.7274 170.9728 H              1 RES1               0.0000
     28 H28        138.8323 142.4501 169.8890 H              1 RES1               0.0000
     29 H29        139.5632 140.1605 170.4344 H              1 RES1               0.0000
@<TRIPOS>BOND
    1    1    2 1     
    2    1    3 1     
    3    1    4 1     
    4    1    5 1     
    5    2    6 ar    
    6    2    7 ar    
    7    3    8 1     
    8    3    9 2     
    9    4   10 1     
   10    4   11 2     
   11    5   12 1     
   12    5   18 1     
   13    5   19 1     
   14    6   13 ar    
   15    6   20 1     
   16    7   14 ar    
   17    7   21 1     
   18    8   15 1     
   19    8   22 1     
   20   10   15 1     
   21   10   23 1     
   22   12   24 1     
   23   12   25 1     
   24   12   26 1     
   25   13   16 ar    
   26   13   27 1     
   27   14   16 ar    
   28   14   28 1     
   29   15   17 2     
   30   16   29 1     
@<TRIPOS>SUBSTRUCTURE
      1 RES1           1
@<TRIPOS>SET
DONOR_HYDROGENS      STATIC     ATOMS    <user>   **** ""
2 22 23
ATOM$RED        STATIC     ATOMS    COLORGROUP SYSTEM
2 22 23
@<TRIPOS>COMMENT
> <Gold.Version>
2022.3.0

> <Gold.Id.Protein>
unknown|7rmh_cavity_clean|pdb

> <Gold.Protein.RotatedTorsions>
[ 5151 5142 5141 5139 ] final   42.83 input   59.98 | X-H torsion
[ 5186 5181 5180 5177 ] final   39.49 input   59.99 | X-H torsion
[ 6481 6474 6475 6476 ] final   51.86 input  103.68 | X-H torsion
[  676  663  664  665 ] final  115.59 input  108.58 | X-H torsion
[  692  687  686  683 ] final   -0.14 input   59.99 | X-H torsion
[  713  708  707  706 ] final   61.09 input   60.01 | X-H torsion
[ 1581 1565 1566 1567 ] final -126.98 input  115.26 | X-H torsion
[ 2436 2427 2428 2429 ] final  131.64 input   99.19 | X-H torsion
[ 2461 2452 2451 2449 ] final   19.72 input   60.00 | X-H torsion
[ 2493 2473 2474 2475 ] final   14.20 input  111.54 | X-H torsion
[ 1670 1661 1660 1658 ] final -103.71 input   59.97 | X-H torsion
[ 1788 1769 1770 1771 ] final -177.18 input  122.82 | X-H torsion
[ 4502 4497 4496 4493 ] final   36.20 input   59.97 | X-H torsion
[ 1878 1867 1866 1863 ] final -165.77 input   59.99 | X-H torsion
[ 1879 1868 1869 1870 ] final -177.00 input   29.02 | X-H torsion
[ 1883 1873 1872 1869 ] final  175.11 input   60.02 | X-H torsion
[ 1328 1317 1316 1315 ] final -160.25 input   60.01 | X-H torsion
[ 4472 4458 4456 4453 ] final  -57.54 input   59.98 | X-H torsion
[ 4473 4459 4460 4461 ] final  -75.15 input   43.99 | X-H torsion
[ 4479 4465 4463 4460 ] final  157.08 input   60.01 | X-H torsion
[ 14767 6477 6476 6475 ] final   46.26 input   -0.00 | X-H torsion
[ 14784  666  665  664 ] final  115.78 input   -0.00 | X-H torsion
[ 14799 1568 1567 1566 ] final  -61.56 input    0.00 | X-H torsion
[ 14808 2430 2429 2428 ] final  -46.10 input    0.00 | X-H torsion
[ 14821 2476 2475 2474 ] final -140.46 input    0.00 | X-H torsion
[ 14872 1772 1771 1770 ] final  -84.41 input    0.00 | X-H torsion
[ 14899 1871 1870 1869 ] final -136.73 input    0.00 | X-H torsion
[ 14944 4462 4461 4460 ] final   19.31 input    0.00 | X-H torsion

> <Gold.Protein.ActiveResidues>
 LEU46   GLY47   ALA48   ASP49   ASN50   SER51   LYS53   VAL224  GLY225  GLY226 
 GLN227  ARG228  ASP229  GLU230  ARG231  ARG232  LYS233  TRP234  ILE235  GLN236 
 CYS237  PHE246  VAL247  VAL248  ASP249  ASP252  TYR253  ASN264  ARG265  LEU266 
 GLN267  GLU268  ALA269  LEU270  ASN271  LEU272  LYS274  SER275  ASN278  ASN279 
 ARG280  TRP281  ASP310  TYR311  PHE312  GLU344  ARG347  ILE348  ALA351  ILE18  
 TRP63   THR65   ASP66   SER67   ARG68   LEU69   TYR105  ALA106  PRO107  SER108 
 GLY109  ASN110  CYS149  ARG150  PHE151  ASP154  ASN155  GLN156  LEU192  ALA193 
 PRO194  ASP195  THR196  ARG197  LEU198  VAL200  ILE229  ASN230  ALA231  CYS233 
 PHE235 

> <Gold.Protein.RotatedAtoms>
  125.2632  143.0251  125.8882 H   0  0  0  0  0  0  0  0  0  0  0  0  # atno 676  bound_to 663 
  153.0806  115.8226  168.2181 H   0  0  0  0  0  0  0  0  0  0  0  0  # atno 692  bound_to 687 
  152.9337  121.1931  168.1506 H   0  0  0  0  0  0  0  0  0  0  0  0  # atno 713  bound_to 708 
  154.1405  122.0998  168.8340 H   0  0  0  0  0  0  0  0  0  0  0  0  # atno 714  bound_to 708 
  153.7888  122.2672  167.2234 H   0  0  0  0  0  0  0  0  0  0  0  0  # atno 715  bound_to 708 
  139.4123  137.1669  174.2606 H   0  0  0  0  0  0  0  0  0  0  0  0  # atno 1328 bound_to 1317
  139.7454  135.7102  173.5431 H   0  0  0  0  0  0  0  0  0  0  0  0  # atno 1329 bound_to 1317
  140.6335  136.2134  174.8491 H   0  0  0  0  0  0  0  0  0  0  0  0  # atno 1330 bound_to 1317
  134.3297  122.6052  131.5579 H   0  0  0  0  0  0  0  0  0  0  0  0  # atno 1581 bound_to 1565
  145.1461  100.0792  168.3994 H   0  0  0  0  0  0  0  0  0  0  0  0  # atno 1670 bound_to 1661
  136.3904  134.1713   99.3065 H   0  0  0  0  0  0  0  0  0  0  0  0  # atno 1788 bound_to 1769
  140.2455  122.9729  169.7956 H   0  0  0  0  0  0  0  0  0  0  0  0  # atno 1878 bound_to 1867
  138.4090  146.8570  169.3442 H   0  0  0  0  0  0  0  0  0  0  0  0  # atno 1879 bound_to 1868
  140.7252  149.0364  167.6163 H   0  0  0  0  0  0  0  0  0  0  0  0  # atno 1883 bound_to 1873
  127.1219  131.2103  140.2923 H   0  0  0  0  0  0  0  0  0  0  0  0  # atno 2436 bound_to 2427
  144.5238  102.3056  177.8602 H   0  0  0  0  0  0  0  0  0  0  0  0  # atno 2461 bound_to 2452
  126.1505  135.6731  139.4885 H   0  0  0  0  0  0  0  0  0  0  0  0  # atno 2493 bound_to 2473
  151.6571  162.9220  171.8512 H   0  0  0  0  0  0  0  0  0  0  0  0  # atno 4472 bound_to 4458
  138.4954  144.6046  139.8000 H   0  0  0  0  0  0  0  0  0  0  0  0  # atno 4473 bound_to 4459
  137.4442  140.7501  141.7201 H   0  0  0  0  0  0  0  0  0  0  0  0  # atno 4479 bound_to 4465
  147.3099  165.8733  167.6513 H   0  0  0  0  0  0  0  0  0  0  0  0  # atno 4502 bound_to 4497
  156.2693  161.4708  164.6962 H   0  0  0  0  0  0  0  0  0  0  0  0  # atno 5151 bound_to 5142
  158.7810  163.8806  174.2897 H   0  0  0  0  0  0  0  0  0  0  0  0  # atno 5186 bound_to 5181
  145.0264  138.4661  105.7163 H   0  0  0  0  0  0  0  0  0  0  0  0  # atno 6481 bound_to 6474
  157.1724  161.6971  166.0306 LP  0  0  0  0  0  0  0  0  0  0  0  0  # atno 14720 bound_to 5142
  155.7415  162.4673  165.8692 LP  0  0  0  0  0  0  0  0  0  0  0  0  # atno 14721 bound_to 5142
  159.6649  165.1784  173.8624 LP  0  0  0  0  0  0  0  0  0  0  0  0  # atno 14728 bound_to 5181
  160.4028  163.8301  174.4139 LP  0  0  0  0  0  0  0  0  0  0  0  0  # atno 14729 bound_to 5181
  146.2690  139.0865  106.7647 LP  0  0  0  0  0  0  0  0  0  0  0  0  # atno 14766 bound_to 6474
  142.5915  138.4157  109.5559 LP  0  0  0  0  0  0  0  0  0  0  0  0  # atno 14767 bound_to 6477
  143.1292  136.7716  109.4664 LP  0  0  0  0  0  0  0  0  0  0  0  0  # atno 14768 bound_to 6477
  125.1765  142.6082  127.5801 LP  0  0  0  0  0  0  0  0  0  0  0  0  # atno 14783 bound_to 663 
  128.7270  145.3727  128.7901 LP  0  0  0  0  0  0  0  0  0  0  0  0  # atno 14784 bound_to 666 
  128.0066  143.9963  129.5559 LP  0  0  0  0  0  0  0  0  0  0  0  0  # atno 14785 bound_to 666 
  151.4778  116.0004  168.0036 LP  0  0  0  0  0  0  0  0  0  0  0  0  # atno 14790 bound_to 687 
  152.5074  116.2956  166.7709 LP  0  0  0  0  0  0  0  0  0  0  0  0  # atno 14791 bound_to 687 
  132.8615  121.6654  131.4277 LP  0  0  0  0  0  0  0  0  0  0  0  0  # atno 14798 bound_to 1565
  134.1140  122.5894  127.3993 LP  0  0  0  0  0  0  0  0  0  0  0  0  # atno 14799 bound_to 1568
  133.5217  121.0739  126.8057 LP  0  0  0  0  0  0  0  0  0  0  0  0  # atno 14800 bound_to 1568
  127.0002  132.5464  139.1714 LP  0  0  0  0  0  0  0  0  0  0  0  0  # atno 14807 bound_to 2427
  123.7502  134.5516  140.4156 LP  0  0  0  0  0  0  0  0  0  0  0  0  # atno 14808 bound_to 2430
  124.3581  135.2893  141.8601 LP  0  0  0  0  0  0  0  0  0  0  0  0  # atno 14809 bound_to 2430
  145.3807  102.5136  176.4930 LP  0  0  0  0  0  0  0  0  0  0  0  0  # atno 14814 bound_to 2452
  144.6137  101.0993  176.7723 LP  0  0  0  0  0  0  0  0  0  0  0  0  # atno 14815 bound_to 2452
  127.6749  136.5053  139.3101 LP  0  0  0  0  0  0  0  0  0  0  0  0  # atno 14820 bound_to 2473
  123.1995  137.9937  137.4862 LP  0  0  0  0  0  0  0  0  0  0  0  0  # atno 14821 bound_to 2476
  124.4539  138.2137  136.3124 LP  0  0  0  0  0  0  0  0  0  0  0  0  # atno 14822 bound_to 2476
  146.6503  100.3422  168.9614 LP  0  0  0  0  0  0  0  0  0  0  0  0  # atno 14837 bound_to 1661
  146.0837  101.2099  167.6994 LP  0  0  0  0  0  0  0  0  0  0  0  0  # atno 14838 bound_to 1661
  137.2566  135.4393   98.4685 LP  0  0  0  0  0  0  0  0  0  0  0  0  # atno 14871 bound_to 1769
  137.8926  133.9319   94.9560 LP  0  0  0  0  0  0  0  0  0  0  0  0  # atno 14872 bound_to 1772
  136.3203  133.9528   94.2298 LP  0  0  0  0  0  0  0  0  0  0  0  0  # atno 14873 bound_to 1772
  145.8483  165.2400  167.3177 LP  0  0  0  0  0  0  0  0  0  0  0  0  # atno 14890 bound_to 4497
  146.0277  166.8570  167.4590 LP  0  0  0  0  0  0  0  0  0  0  0  0  # atno 14891 bound_to 4497
  140.3447  123.7417  168.3646 LP  0  0  0  0  0  0  0  0  0  0  0  0  # atno 14896 bound_to 1867
  139.8811  122.1770  168.4236 LP  0  0  0  0  0  0  0  0  0  0  0  0  # atno 14897 bound_to 1867
  136.8820  147.5688  169.8114 LP  0  0  0  0  0  0  0  0  0  0  0  0  # atno 14898 bound_to 1868
  135.9773  150.7800  170.1318 LP  0  0  0  0  0  0  0  0  0  0  0  0  # atno 14899 bound_to 1871
  135.9079  149.0493  170.1347 LP  0  0  0  0  0  0  0  0  0  0  0  0  # atno 14900 bound_to 1871
  139.9394  147.7425  168.2130 LP  0  0  0  0  0  0  0  0  0  0  0  0  # atno 14901 bound_to 1873
  141.0292  148.5362  169.1345 LP  0  0  0  0  0  0  0  0  0  0  0  0  # atno 14902 bound_to 1873
  153.2191  163.3506  172.0069 LP  0  0  0  0  0  0  0  0  0  0  0  0  # atno 14941 bound_to 4458
  152.7410  162.4438  170.7357 LP  0  0  0  0  0  0  0  0  0  0  0  0  # atno 14942 bound_to 4458
  137.4570  143.1984  139.6871 LP  0  0  0  0  0  0  0  0  0  0  0  0  # atno 14943 bound_to 4459
  139.0316  143.5042  137.7435 LP  0  0  0  0  0  0  0  0  0  0  0  0  # atno 14944 bound_to 4462
  140.3359  142.6672  136.9700 LP  0  0  0  0  0  0  0  0  0  0  0  0  # atno 14945 bound_to 4462
  137.4659  142.3562  141.4584 LP  0  0  0  0  0  0  0  0  0  0  0  0  # atno 14946 bound_to 4465
  138.4864  141.6892  142.5448 LP  0  0  0  0  0  0  0  0  0  0  0  0  # atno 14947 bound_to 4465

> <Gold.Score>
     Fitness  S(hb_ext) S(vdw_ext)  S(hb_int)    S(int)      intcor
     29.49       1.93      20.69       0.00      -0.90      -0.76

> <Gold.Goldscore.Fitness>
29.4874

> <Gold.Goldscore.Internal.Vdw>
-1.0255

> <Gold.Goldscore.Internal.Torsion>
-0.6296

> <Gold.Goldscore.External.Vdw>
20.6946

> <Gold.Goldscore.Internal.HBond>
0.0000

> <Gold.Goldscore.External.HBond>
1.9289

> <Gold.Goldscore.Internal.Correction>
-0.7585

> <Gold.Goldscore.Hbonds>
donor molecule, donor type, donor heavy atom, donor atom, acceptor molecule, acceptor atom, score
      L1  H     8    22       P1  1873  0.96

> <Gold.Goldscore.Internal.Vdw.Weighted>
-1.0255

> <Gold.Goldscore.Internal.Torsion.Weighted>
-0.6296

> <Gold.Goldscore.External.Vdw.Weighted>
28.4551

> <Gold.Goldscore.Internal.HBond.Weighted>
0.0000

> <Gold.Goldscore.External.HBond.Weighted>
1.9289

> <Gold.Goldscore.Internal.Correction.Weighted>
-0.7585

> <Gold.Rescore>
     Score     S(PLP)   S(hbond)     S(cho)   S(metal)  DE(clash)   DE(tors)     intcor
     19.01     -19.65       0.32       0.00       0.00       0.01       0.81       ----

> <Gold.PLP.Fitness>
19.0057

> <Gold.PLP.PLP>
-19.6474

> <Gold.PLP.part.hbond>
-2.1214

> <Gold.PLP.part.metal>
0.0000

> <Gold.PLP.part.buried>
-4.4825

> <Gold.PLP.part.nonpolar>
-20.4584

> <Gold.PLP.part.repulsive>
6.0089

> <Gold.PLP.ligand.clash>
0.0062

> <Gold.PLP.ligand.torsion>
0.8052

> <Gold.PLP.Chemscore.Hbond>
0.3250

> <Gold.PLP.Chemscore.CHOScore>
0.0000

> <Gold.PLP.Chemscore.Metal>
0.0000

> <Gold.Chemscore.Hbonds>
donor molecule, donor type, donor heavy atom, donor atom, acceptor molecule, acceptor atom, score
      L1  H     8    22       P1  1873  0.60

> <Gold.PLP.Chemscore.Internal.Correction>
   9.000000E+99

