#       Name:                CT1002167954
#       Creating user name   hitesit
#       Creation time:       Sun Apr 16 20:22:02 2023


#       File generated by GOLD software.
#

@<TRIPOS>MOLECULE
CT1002167954|ligand_prepared|mol2|1|dock1
    29    30     1
SMALL
NO_CHARGES


@<TRIPOS>ATOM
      1 C1         142.5606 140.9122 169.4767 C.3            1 RES1               0.0000
      2 C2         143.9137 140.2576 169.8222 C.ar           1 RES1               0.0000
      3 C3         142.5424 142.2607 170.1905 C.2            1 RES1               0.0000
      4 C4         142.5112 141.0125 167.9561 C.2            1 RES1               0.0000
      5 C5         141.3336 140.0937 169.9416 C.3            1 RES1               0.0000
      6 C6         145.0330 141.0411 170.0866 C.ar           1 RES1               0.0000
      7 C7         144.0572 138.8740 169.8830 C.ar           1 RES1               0.0000
      8 N8         142.7066 143.3806 169.4297 N.am           1 RES1               0.0000
      9 O9         142.4252 142.3381 171.4073 O.2            1 RES1               0.0000
     10 N10        142.5094 142.2626 167.3948 N.am           1 RES1               0.0000
     11 O11        142.4907 140.0201 167.2384 O.2            1 RES1               0.0000
     12 C12        140.0263 140.8689 169.8957 C.3            1 RES1               0.0000
     13 C13        146.2510 140.4626 170.4032 C.ar           1 RES1               0.0000
     14 C14        145.2762 138.2975 170.1996 C.ar           1 RES1               0.0000
     15 C15        142.6359 143.4507 168.0616 C.2            1 RES1               0.0000
     16 C16        146.3733 139.0906 170.4603 C.ar           1 RES1               0.0000
     17 O17        142.6809 144.5322 167.4824 O.2            1 RES1               0.0000
     18 H18        141.2399 139.2054 169.3048 H              1 RES1               0.0000
     19 H19        141.5058 139.7525 170.9699 H              1 RES1               0.0000
     20 H20        144.9565 142.1225 170.0440 H              1 RES1               0.0000
     21 H21        143.2079 138.2303 169.6806 H              1 RES1               0.0000
     22 H22        142.9001 144.2459 169.9237 H              1 RES1               0.0000
     23 H23        142.4038 142.3120 166.3864 H              1 RES1               0.0000
     24 H24        139.1981 140.2486 170.2318 H              1 RES1               0.0000
     25 H25        140.0752 141.7460 170.5377 H              1 RES1               0.0000
     26 H26        139.8108 141.2021 168.8825 H              1 RES1               0.0000
     27 H27        147.1117 141.0912 170.6062 H              1 RES1               0.0000
     28 H28        145.3680 137.2173 170.2428 H              1 RES1               0.0000
     29 H29        147.3274 138.6377 170.7087 H              1 RES1               0.0000
@<TRIPOS>BOND
    1    1    2 1     
    2    1    3 1     
    3    1    4 1     
    4    1    5 1     
    5    2    6 ar    
    6    2    7 ar    
    7    3    8 1     
    8    3    9 2     
    9    4   10 1     
   10    4   11 2     
   11    5   12 1     
   12    5   18 1     
   13    5   19 1     
   14    6   13 ar    
   15    6   20 1     
   16    7   14 ar    
   17    7   21 1     
   18    8   15 1     
   19    8   22 1     
   20   10   15 1     
   21   10   23 1     
   22   12   24 1     
   23   12   25 1     
   24   12   26 1     
   25   13   16 ar    
   26   13   27 1     
   27   14   16 ar    
   28   14   28 1     
   29   15   17 2     
   30   16   29 1     
@<TRIPOS>SUBSTRUCTURE
      1 RES1           1
@<TRIPOS>SET
DONOR_HYDROGENS      STATIC     ATOMS    <user>   **** ""
2 22 23
ATOM$RED        STATIC     ATOMS    COLORGROUP SYSTEM
2 22 23
@<TRIPOS>COMMENT
> <Gold.Version>
2022.3.0

> <Gold.Id.Protein>
unknown|7rmh_cavity_clean|pdb

> <Gold.Protein.RotatedTorsions>
[ 5151 5142 5141 5139 ] final -104.27 input   59.98 | X-H torsion
[ 5186 5181 5180 5177 ] final  -85.96 input   59.99 | X-H torsion
[ 6481 6474 6475 6476 ] final -175.01 input  103.68 | X-H torsion
[  676  663  664  665 ] final   69.84 input  108.58 | X-H torsion
[  692  687  686  683 ] final  -29.59 input   59.99 | X-H torsion
[  713  708  707  706 ] final -118.52 input   60.01 | X-H torsion
[ 1581 1565 1566 1567 ] final    1.58 input  115.26 | X-H torsion
[ 2436 2427 2428 2429 ] final  -45.74 input   99.19 | X-H torsion
[ 2461 2452 2451 2449 ] final -131.58 input   60.00 | X-H torsion
[ 2493 2473 2474 2475 ] final -121.46 input  111.54 | X-H torsion
[ 1670 1661 1660 1658 ] final   26.50 input   59.97 | X-H torsion
[ 1788 1769 1770 1771 ] final   -2.74 input  122.82 | X-H torsion
[ 4502 4497 4496 4493 ] final  112.47 input   59.97 | X-H torsion
[ 1878 1867 1866 1863 ] final  -82.55 input   59.99 | X-H torsion
[ 1879 1868 1869 1870 ] final -142.60 input   29.02 | X-H torsion
[ 1883 1873 1872 1869 ] final   -5.76 input   60.02 | X-H torsion
[ 1328 1317 1316 1315 ] final   94.89 input   60.01 | X-H torsion
[ 4472 4458 4456 4453 ] final  149.79 input   59.98 | X-H torsion
[ 4473 4459 4460 4461 ] final  175.03 input   43.99 | X-H torsion
[ 4479 4465 4463 4460 ] final  162.42 input   60.01 | X-H torsion
[ 14767 6477 6476 6475 ] final -166.01 input   -0.00 | X-H torsion
[ 14784  666  665  664 ] final  -49.58 input   -0.00 | X-H torsion
[ 14799 1568 1567 1566 ] final  -43.75 input    0.00 | X-H torsion
[ 14808 2430 2429 2428 ] final -162.59 input    0.00 | X-H torsion
[ 14821 2476 2475 2474 ] final   58.05 input    0.00 | X-H torsion
[ 14872 1772 1771 1770 ] final -140.34 input    0.00 | X-H torsion
[ 14899 1871 1870 1869 ] final   25.85 input    0.00 | X-H torsion
[ 14944 4462 4461 4460 ] final -152.37 input    0.00 | X-H torsion

> <Gold.Protein.ActiveResidues>
 LEU46   GLY47   ALA48   ASP49   ASN50   SER51   LYS53   VAL224  GLY225  GLY226 
 GLN227  ARG228  ASP229  GLU230  ARG231  ARG232  LYS233  TRP234  ILE235  GLN236 
 CYS237  PHE246  VAL247  VAL248  ASP249  ASP252  TYR253  ASN264  ARG265  LEU266 
 GLN267  GLU268  ALA269  LEU270  ASN271  LEU272  LYS274  SER275  ASN278  ASN279 
 ARG280  TRP281  ASP310  TYR311  PHE312  GLU344  ARG347  ILE348  ALA351  ILE18  
 TRP63   THR65   ASP66   SER67   ARG68   LEU69   TYR105  ALA106  PRO107  SER108 
 GLY109  ASN110  CYS149  ARG150  PHE151  ASP154  ASN155  GLN156  LEU192  ALA193 
 PRO194  ASP195  THR196  ARG197  LEU198  VAL200  ILE229  ASN230  ALA231  CYS233 
 PHE235 

> <Gold.Protein.RotatedAtoms>
  125.0381  143.5390  126.2769 H   0  0  0  0  0  0  0  0  0  0  0  0  # atno 676  bound_to 663 
  152.6970  115.7671  168.4940 H   0  0  0  0  0  0  0  0  0  0  0  0  # atno 692  bound_to 687 
  154.3064  122.5145  167.9815 H   0  0  0  0  0  0  0  0  0  0  0  0  # atno 713  bound_to 708 
  153.0982  121.6025  167.3077 H   0  0  0  0  0  0  0  0  0  0  0  0  # atno 714  bound_to 708 
  153.4577  121.4428  168.9174 H   0  0  0  0  0  0  0  0  0  0  0  0  # atno 715  bound_to 708 
  140.5586  136.4381  174.9361 H   0  0  0  0  0  0  0  0  0  0  0  0  # atno 1328 bound_to 1317
  139.2965  137.0635  174.0623 H   0  0  0  0  0  0  0  0  0  0  0  0  # atno 1329 bound_to 1317
  139.9365  135.5896  173.6554 H   0  0  0  0  0  0  0  0  0  0  0  0  # atno 1330 bound_to 1317
  132.8387  122.3305  131.0630 H   0  0  0  0  0  0  0  0  0  0  0  0  # atno 1581 bound_to 1565
  146.2335  101.2232  167.7730 H   0  0  0  0  0  0  0  0  0  0  0  0  # atno 1670 bound_to 1661
  137.3284  135.3974   98.4345 H   0  0  0  0  0  0  0  0  0  0  0  0  # atno 1788 bound_to 1769
  139.9026  122.0743  169.0071 H   0  0  0  0  0  0  0  0  0  0  0  0  # atno 1878 bound_to 1867
  138.3315  146.7399  169.8485 H   0  0  0  0  0  0  0  0  0  0  0  0  # atno 1879 bound_to 1868
  140.4124  147.8518  169.0316 H   0  0  0  0  0  0  0  0  0  0  0  0  # atno 1883 bound_to 1873
  127.0154  132.5878  139.1860 H   0  0  0  0  0  0  0  0  0  0  0  0  # atno 2436 bound_to 2427
  145.3238  102.0727  176.2498 H   0  0  0  0  0  0  0  0  0  0  0  0  # atno 2461 bound_to 2452
  127.2557  136.8574  139.6770 H   0  0  0  0  0  0  0  0  0  0  0  0  # atno 2493 bound_to 2473
  153.4439  163.1322  171.5814 H   0  0  0  0  0  0  0  0  0  0  0  0  # atno 4472 bound_to 4458
  137.6233  143.7011  140.5443 H   0  0  0  0  0  0  0  0  0  0  0  0  # atno 4473 bound_to 4459
  137.5002  140.7182  141.7789 H   0  0  0  0  0  0  0  0  0  0  0  0  # atno 4479 bound_to 4465
  146.7141  166.8630  167.5956 H   0  0  0  0  0  0  0  0  0  0  0  0  # atno 4502 bound_to 4497
  156.9432  161.9770  166.2814 H   0  0  0  0  0  0  0  0  0  0  0  0  # atno 5151 bound_to 5142
  159.7531  165.1649  173.8706 H   0  0  0  0  0  0  0  0  0  0  0  0  # atno 5186 bound_to 5181
  145.9978  139.5649  106.3437 H   0  0  0  0  0  0  0  0  0  0  0  0  # atno 6481 bound_to 6474
  155.5757  162.3427  165.4791 LP  0  0  0  0  0  0  0  0  0  0  0  0  # atno 14720 bound_to 5142
  156.6593  161.3118  164.8238 LP  0  0  0  0  0  0  0  0  0  0  0  0  # atno 14721 bound_to 5142
  160.3504  163.7609  174.4365 LP  0  0  0  0  0  0  0  0  0  0  0  0  # atno 14728 bound_to 5181
  158.7384  163.9543  174.2619 LP  0  0  0  0  0  0  0  0  0  0  0  0  # atno 14729 bound_to 5181
  145.2962  137.9861  106.1364 LP  0  0  0  0  0  0  0  0  0  0  0  0  # atno 14766 bound_to 6474
  142.6815  136.7758  109.2897 LP  0  0  0  0  0  0  0  0  0  0  0  0  # atno 14767 bound_to 6477
  143.0393  138.4116  109.7326 LP  0  0  0  0  0  0  0  0  0  0  0  0  # atno 14768 bound_to 6477
  125.3988  142.1010  127.1964 LP  0  0  0  0  0  0  0  0  0  0  0  0  # atno 14783 bound_to 663 
  128.1450  143.8859  129.4240 LP  0  0  0  0  0  0  0  0  0  0  0  0  # atno 14784 bound_to 666 
  128.5885  145.4831  128.9220 LP  0  0  0  0  0  0  0  0  0  0  0  0  # atno 14785 bound_to 666 
  151.4271  116.1395  167.5477 LP  0  0  0  0  0  0  0  0  0  0  0  0  # atno 14790 bound_to 687 
  152.9446  116.2123  166.9489 LP  0  0  0  0  0  0  0  0  0  0  0  0  # atno 14791 bound_to 687 
  134.3151  121.9332  131.9102 LP  0  0  0  0  0  0  0  0  0  0  0  0  # atno 14798 bound_to 1565
  134.3351  122.4420  127.4341 LP  0  0  0  0  0  0  0  0  0  0  0  0  # atno 14799 bound_to 1568
  133.3006  121.2214  126.7709 LP  0  0  0  0  0  0  0  0  0  0  0  0  # atno 14800 bound_to 1568
  127.1040  131.2034  140.2500 LP  0  0  0  0  0  0  0  0  0  0  0  0  # atno 14807 bound_to 2427
  124.4980  135.6573  141.0378 LP  0  0  0  0  0  0  0  0  0  0  0  0  # atno 14808 bound_to 2430
  123.6103  134.1836  141.2379 LP  0  0  0  0  0  0  0  0  0  0  0  0  # atno 14809 bound_to 2430
  144.3893  101.1647  177.2241 LP  0  0  0  0  0  0  0  0  0  0  0  0  # atno 14814 bound_to 2452
  144.7991  102.6830  177.6638 LP  0  0  0  0  0  0  0  0  0  0  0  0  # atno 14815 bound_to 2452
  126.5887  135.3413  139.1249 LP  0  0  0  0  0  0  0  0  0  0  0  0  # atno 14820 bound_to 2473
  124.2997  138.0244  136.1782 LP  0  0  0  0  0  0  0  0  0  0  0  0  # atno 14821 bound_to 2476
  123.3537  138.1830  137.6204 LP  0  0  0  0  0  0  0  0  0  0  0  0  # atno 14822 bound_to 2476
  145.0959  100.1707  168.2685 LP  0  0  0  0  0  0  0  0  0  0  0  0  # atno 14837 bound_to 1661
  146.5427  100.2290  169.0234 LP  0  0  0  0  0  0  0  0  0  0  0  0  # atno 14838 bound_to 1661
  136.3458  134.2488   99.3152 LP  0  0  0  0  0  0  0  0  0  0  0  0  # atno 14871 bound_to 1769
  137.7222  134.5302   94.4338 LP  0  0  0  0  0  0  0  0  0  0  0  0  # atno 14872 bound_to 1772
  136.4907  133.3545   94.7520 LP  0  0  0  0  0  0  0  0  0  0  0  0  # atno 14873 bound_to 1772
  146.9895  165.2597  167.5489 LP  0  0  0  0  0  0  0  0  0  0  0  0  # atno 14890 bound_to 4497
  145.4866  165.8408  167.2839 LP  0  0  0  0  0  0  0  0  0  0  0  0  # atno 14891 bound_to 4497
  140.3904  123.5115  169.5946 LP  0  0  0  0  0  0  0  0  0  0  0  0  # atno 14896 bound_to 1867
  140.1807  123.3119  167.9875 LP  0  0  0  0  0  0  0  0  0  0  0  0  # atno 14897 bound_to 1867
  136.9576  147.6830  169.3197 LP  0  0  0  0  0  0  0  0  0  0  0  0  # atno 14898 bound_to 1868
  135.9938  149.0852  169.8895 LP  0  0  0  0  0  0  0  0  0  0  0  0  # atno 14899 bound_to 1871
  135.8914  150.7441  170.3770 LP  0  0  0  0  0  0  0  0  0  0  0  0  # atno 14900 bound_to 1871
  141.1888  149.1407  168.4123 LP  0  0  0  0  0  0  0  0  0  0  0  0  # atno 14901 bound_to 1873
  140.0949  148.3314  167.5095 LP  0  0  0  0  0  0  0  0  0  0  0  0  # atno 14902 bound_to 1873
  152.2202  162.3826  170.8144 LP  0  0  0  0  0  0  0  0  0  0  0  0  # atno 14941 bound_to 4458
  151.9404  163.2001  172.2000 LP  0  0  0  0  0  0  0  0  0  0  0  0  # atno 14942 bound_to 4458
  138.2973  144.0690  138.9699 LP  0  0  0  0  0  0  0  0  0  0  0  0  # atno 14943 bound_to 4459
  140.2624  142.5654  136.9767 LP  0  0  0  0  0  0  0  0  0  0  0  0  # atno 14944 bound_to 4462
  139.1051  143.6060  137.7368 LP  0  0  0  0  0  0  0  0  0  0  0  0  # atno 14945 bound_to 4462
  137.4111  142.3021  141.4160 LP  0  0  0  0  0  0  0  0  0  0  0  0  # atno 14946 bound_to 4465
  138.4848  141.7754  142.5280 LP  0  0  0  0  0  0  0  0  0  0  0  0  # atno 14947 bound_to 4465

> <Gold.Score>
     Fitness  S(hb_ext) S(vdw_ext)  S(hb_int)    S(int)      intcor
     33.24       0.00      24.66       0.00      -0.67      -0.78

> <Gold.Goldscore.Fitness>
33.2418

> <Gold.Goldscore.Internal.Vdw>
-0.7954

> <Gold.Goldscore.Internal.Torsion>
-0.6474

> <Gold.Goldscore.External.Vdw>
24.6602

> <Gold.Goldscore.Internal.HBond>
0.0000

> <Gold.Goldscore.External.HBond>
0.0000

> <Gold.Goldscore.Internal.Correction>
-0.7769

> <Gold.Goldscore.Internal.Vdw.Weighted>
-0.7954

> <Gold.Goldscore.Internal.Torsion.Weighted>
-0.6474

> <Gold.Goldscore.External.Vdw.Weighted>
33.9078

> <Gold.Goldscore.Internal.HBond.Weighted>
0.0000

> <Gold.Goldscore.External.HBond.Weighted>
0.0000

> <Gold.Goldscore.Internal.Correction.Weighted>
-0.7769

> <Gold.Rescore>
     Score     S(PLP)   S(hbond)     S(cho)   S(metal)  DE(clash)   DE(tors)     intcor
     29.81     -32.04       0.00       0.00       0.00       0.00       1.11       ----

> <Gold.PLP.Fitness>
29.8106

> <Gold.PLP.PLP>
-32.0380

> <Gold.PLP.part.hbond>
-1.5850

> <Gold.PLP.part.metal>
0.0000

> <Gold.PLP.part.buried>
-4.8683

> <Gold.PLP.part.nonpolar>
-28.9744

> <Gold.PLP.part.repulsive>
2.8230

> <Gold.PLP.ligand.clash>
0.0000

> <Gold.PLP.ligand.torsion>
1.1137

> <Gold.PLP.Chemscore.Hbond>
0.0000

> <Gold.PLP.Chemscore.CHOScore>
0.0000

> <Gold.PLP.Chemscore.Metal>
0.0000

> <Gold.PLP.Chemscore.Internal.Correction>
   9.000000E+99

