#       Name:                CT1002167954
#       Creating user name   hitesit
#       Creation time:       Sun Apr 16 20:24:07 2023


#       File generated by GOLD software.
#

@<TRIPOS>MOLECULE
CT1002167954|ligand_prepared|mol2|1|dock7
    29    30     1
SMALL
NO_CHARGES


@<TRIPOS>ATOM
      1 C1         144.1160 145.7388 169.1130 C.3            1 RES1               0.0000
      2 C2         143.4883 144.6665 168.1994 C.ar           1 RES1               0.0000
      3 C3         143.3808 147.0416 168.8123 C.2            1 RES1               0.0000
      4 C4         143.9372 145.2393 170.5424 C.2            1 RES1               0.0000
      5 C5         145.6271 145.9601 168.8698 C.3            1 RES1               0.0000
      6 C6         144.1317 144.2648 167.0326 C.ar           1 RES1               0.0000
      7 C7         142.2698 144.0690 168.5109 C.ar           1 RES1               0.0000
      8 N8         142.4901 147.4934 169.7409 N.am           1 RES1               0.0000
      9 O9         143.5508 147.6427 167.7587 O.2            1 RES1               0.0000
     10 N10        143.1180 145.9556 171.3752 N.am           1 RES1               0.0000
     11 O11        144.4851 144.2225 170.9501 O.2            1 RES1               0.0000
     12 C12        146.2968 146.8289 169.9228 C.3            1 RES1               0.0000
     13 C13        143.5786 143.2987 166.2085 C.ar           1 RES1               0.0000
     14 C14        141.7184 143.1032 167.6853 C.ar           1 RES1               0.0000
     15 C15        142.3621 147.0428 171.0302 C.2            1 RES1               0.0000
     16 C16        142.3719 142.7170 166.5345 C.ar           1 RES1               0.0000
     17 O17        141.6072 147.6008 171.8213 O.2            1 RES1               0.0000
     18 H18        146.1276 144.9842 168.8467 H              1 RES1               0.0000
     19 H19        145.7617 146.4293 167.8874 H              1 RES1               0.0000
     20 H20        145.0808 144.7132 166.7585 H              1 RES1               0.0000
     21 H21        141.7373 144.3580 169.4107 H              1 RES1               0.0000
     22 H22        141.8608 148.2348 169.4498 H              1 RES1               0.0000
     23 H23        143.0670 145.6502 172.3418 H              1 RES1               0.0000
     24 H24        147.3556 146.9522 169.7047 H              1 RES1               0.0000
     25 H25        145.8404 147.8160 169.9558 H              1 RES1               0.0000
     26 H26        146.2042 146.3795 170.9094 H              1 RES1               0.0000
     27 H27        144.0963 142.9992 165.3032 H              1 RES1               0.0000
     28 H28        140.7682 142.6485 167.9454 H              1 RES1               0.0000
     29 H29        141.9391 141.9599 165.8890 H              1 RES1               0.0000
@<TRIPOS>BOND
    1    1    2 1     
    2    1    3 1     
    3    1    4 1     
    4    1    5 1     
    5    2    6 ar    
    6    2    7 ar    
    7    3    8 1     
    8    3    9 2     
    9    4   10 1     
   10    4   11 2     
   11    5   12 1     
   12    5   18 1     
   13    5   19 1     
   14    6   13 ar    
   15    6   20 1     
   16    7   14 ar    
   17    7   21 1     
   18    8   15 1     
   19    8   22 1     
   20   10   15 1     
   21   10   23 1     
   22   12   24 1     
   23   12   25 1     
   24   12   26 1     
   25   13   16 ar    
   26   13   27 1     
   27   14   16 ar    
   28   14   28 1     
   29   15   17 2     
   30   16   29 1     
@<TRIPOS>SUBSTRUCTURE
      1 RES1           1
@<TRIPOS>SET
DONOR_HYDROGENS      STATIC     ATOMS    <user>   **** ""
2 22 23
ATOM$RED        STATIC     ATOMS    COLORGROUP SYSTEM
2 22 23
@<TRIPOS>COMMENT
> <Gold.Version>
2022.3.0

> <Gold.Id.Protein>
unknown|7rmh_cavity_clean|pdb

> <Gold.Protein.RotatedTorsions>
[ 5151 5142 5141 5139 ] final  -82.91 input   59.98 | X-H torsion
[ 5186 5181 5180 5177 ] final  113.78 input   59.99 | X-H torsion
[ 6481 6474 6475 6476 ] final   89.09 input  103.68 | X-H torsion
[  676  663  664  665 ] final   59.34 input  108.58 | X-H torsion
[  692  687  686  683 ] final  -42.62 input   59.99 | X-H torsion
[  713  708  707  706 ] final -157.56 input   60.01 | X-H torsion
[ 1581 1565 1566 1567 ] final   -9.14 input  115.26 | X-H torsion
[ 2436 2427 2428 2429 ] final  174.02 input   99.19 | X-H torsion
[ 2461 2452 2451 2449 ] final  138.61 input   60.00 | X-H torsion
[ 2493 2473 2474 2475 ] final  138.02 input  111.54 | X-H torsion
[ 1670 1661 1660 1658 ] final   53.02 input   59.97 | X-H torsion
[ 1788 1769 1770 1771 ] final   55.79 input  122.82 | X-H torsion
[ 4502 4497 4496 4493 ] final  -44.93 input   59.97 | X-H torsion
[ 1878 1867 1866 1863 ] final -110.00 input   59.99 | X-H torsion
[ 1879 1868 1869 1870 ] final -154.54 input   29.02 | X-H torsion
[ 1883 1873 1872 1869 ] final  117.10 input   60.02 | X-H torsion
[ 1328 1317 1316 1315 ] final  164.09 input   60.01 | X-H torsion
[ 4472 4458 4456 4453 ] final -115.94 input   59.98 | X-H torsion
[ 4473 4459 4460 4461 ] final  138.12 input   43.99 | X-H torsion
[ 4479 4465 4463 4460 ] final -140.15 input   60.01 | X-H torsion
[ 14767 6477 6476 6475 ] final   82.72 input   -0.00 | X-H torsion
[ 14784  666  665  664 ] final  -62.48 input   -0.00 | X-H torsion
[ 14799 1568 1567 1566 ] final  -59.04 input    0.00 | X-H torsion
[ 14808 2430 2429 2428 ] final   92.45 input    0.00 | X-H torsion
[ 14821 2476 2475 2474 ] final   41.80 input    0.00 | X-H torsion
[ 14872 1772 1771 1770 ] final  170.90 input    0.00 | X-H torsion
[ 14899 1871 1870 1869 ] final   46.87 input    0.00 | X-H torsion
[ 14944 4462 4461 4460 ] final  128.95 input    0.00 | X-H torsion

> <Gold.Protein.ActiveResidues>
 LEU46   GLY47   ALA48   ASP49   ASN50   SER51   LYS53   VAL224  GLY225  GLY226 
 GLN227  ARG228  ASP229  GLU230  ARG231  ARG232  LYS233  TRP234  ILE235  GLN236 
 CYS237  PHE246  VAL247  VAL248  ASP249  ASP252  TYR253  ASN264  ARG265  LEU266 
 GLN267  GLU268  ALA269  LEU270  ASN271  LEU272  LYS274  SER275  ASN278  ASN279 
 ARG280  TRP281  ASP310  TYR311  PHE312  GLU344  ARG347  ILE348  ALA351  ILE18  
 TRP63   THR65   ASP66   SER67   ARG68   LEU69   TYR105  ALA106  PRO107  SER108 
 GLY109  ASN110  CYS149  ARG150  PHE151  ASP154  ASN155  GLN156  LEU192  ALA193 
 PRO194  ASP195  THR196  ARG197  LEU198  VAL200  ILE229  ASN230  ALA231  CYS233 
 PHE235 

> <Gold.Protein.RotatedAtoms>
  124.9973  143.6018  126.4190 H   0  0  0  0  0  0  0  0  0  0  0  0  # atno 676  bound_to 663 
  152.4922  115.7647  168.5500 H   0  0  0  0  0  0  0  0  0  0  0  0  # atno 692  bound_to 687 
  154.2841  122.3089  168.5862 H   0  0  0  0  0  0  0  0  0  0  0  0  # atno 713  bound_to 708 
  153.5238  122.0483  167.1373 H   0  0  0  0  0  0  0  0  0  0  0  0  # atno 714  bound_to 708 
  153.0548  121.2030  168.4831 H   0  0  0  0  0  0  0  0  0  0  0  0  # atno 715  bound_to 708 
  139.8081  137.1856  174.6922 H   0  0  0  0  0  0  0  0  0  0  0  0  # atno 1328 bound_to 1317
  139.3691  136.1538  173.4714 H   0  0  0  0  0  0  0  0  0  0  0  0  # atno 1329 bound_to 1317
  140.6139  135.7515  174.4894 H   0  0  0  0  0  0  0  0  0  0  0  0  # atno 1330 bound_to 1317
  132.9170  122.4707  131.0239 H   0  0  0  0  0  0  0  0  0  0  0  0  # atno 1581 bound_to 1565
  146.5746  101.1667  168.0273 H   0  0  0  0  0  0  0  0  0  0  0  0  # atno 1670 bound_to 1661
  136.5389  135.6346   98.7057 H   0  0  0  0  0  0  0  0  0  0  0  0  # atno 1788 bound_to 1769
  139.9866  122.2273  169.4157 H   0  0  0  0  0  0  0  0  0  0  0  0  # atno 1878 bound_to 1867
  138.3893  146.7624  169.6751 H   0  0  0  0  0  0  0  0  0  0  0  0  # atno 1879 bound_to 1868
  140.1196  148.3704  167.4992 H   0  0  0  0  0  0  0  0  0  0  0  0  # atno 1883 bound_to 1873
  126.7616  131.0558  139.7864 H   0  0  0  0  0  0  0  0  0  0  0  0  # atno 2436 bound_to 2427
  144.6043  101.1044  176.7886 H   0  0  0  0  0  0  0  0  0  0  0  0  # atno 2461 bound_to 2452
  127.6035  135.7710  138.9475 H   0  0  0  0  0  0  0  0  0  0  0  0  # atno 2493 bound_to 2473
  152.3093  163.3575  172.3195 H   0  0  0  0  0  0  0  0  0  0  0  0  # atno 4472 bound_to 4458
  137.4400  143.3138  140.1764 H   0  0  0  0  0  0  0  0  0  0  0  0  # atno 4473 bound_to 4459
  138.1569  140.8691  142.3750 H   0  0  0  0  0  0  0  0  0  0  0  0  # atno 4479 bound_to 4465
  146.4367  165.0559  167.4223 H   0  0  0  0  0  0  0  0  0  0  0  0  # atno 4502 bound_to 4497
  157.1316  161.7549  166.0931 H   0  0  0  0  0  0  0  0  0  0  0  0  # atno 5151 bound_to 5142
  159.7960  163.4385  174.5195 H   0  0  0  0  0  0  0  0  0  0  0  0  # atno 5186 bound_to 5181
  145.0793  139.0110  105.6252 H   0  0  0  0  0  0  0  0  0  0  0  0  # atno 6481 bound_to 6474
  155.6926  162.4512  165.7899 LP  0  0  0  0  0  0  0  0  0  0  0  0  # atno 14720 bound_to 5142
  156.3526  161.4270  164.7027 LP  0  0  0  0  0  0  0  0  0  0  0  0  # atno 14721 bound_to 5142
  158.7233  164.5616  174.0336 LP  0  0  0  0  0  0  0  0  0  0  0  0  # atno 14728 bound_to 5181
  160.3223  164.8921  174.0113 LP  0  0  0  0  0  0  0  0  0  0  0  0  # atno 14729 bound_to 5181
  146.2161  138.5408  106.8559 LP  0  0  0  0  0  0  0  0  0  0  0  0  # atno 14766 bound_to 6474
  142.1920  138.1180  109.3427 LP  0  0  0  0  0  0  0  0  0  0  0  0  # atno 14767 bound_to 6477
  143.5287  137.0693  109.6796 LP  0  0  0  0  0  0  0  0  0  0  0  0  # atno 14768 bound_to 6477
  125.4391  142.0389  127.0561 LP  0  0  0  0  0  0  0  0  0  0  0  0  # atno 14783 bound_to 663 
  128.0220  143.9806  129.5414 LP  0  0  0  0  0  0  0  0  0  0  0  0  # atno 14784 bound_to 666 
  128.7116  145.3883  128.8046 LP  0  0  0  0  0  0  0  0  0  0  0  0  # atno 14785 bound_to 666 
  151.4829  116.1948  167.3487 LP  0  0  0  0  0  0  0  0  0  0  0  0  # atno 14790 bound_to 687 
  153.0951  116.1595  167.0914 LP  0  0  0  0  0  0  0  0  0  0  0  0  # atno 14791 bound_to 687 
  134.2387  121.7966  131.9483 LP  0  0  0  0  0  0  0  0  0  0  0  0  # atno 14798 bound_to 1565
  134.1475  122.5727  127.4060 LP  0  0  0  0  0  0  0  0  0  0  0  0  # atno 14799 bound_to 1568
  133.4882  121.0906  126.7989 LP  0  0  0  0  0  0  0  0  0  0  0  0  # atno 14800 bound_to 1568
  127.3515  132.6970  139.6646 LP  0  0  0  0  0  0  0  0  0  0  0  0  # atno 14807 bound_to 2427
  124.0539  134.7736  141.9913 LP  0  0  0  0  0  0  0  0  0  0  0  0  # atno 14808 bound_to 2430
  124.0544  135.0672  140.2844 LP  0  0  0  0  0  0  0  0  0  0  0  0  # atno 14809 bound_to 2430
  144.5317  102.3231  177.8640 LP  0  0  0  0  0  0  0  0  0  0  0  0  # atno 14814 bound_to 2452
  145.3816  102.5002  176.4810 LP  0  0  0  0  0  0  0  0  0  0  0  0  # atno 14815 bound_to 2452
  126.2468  136.4091  139.8419 LP  0  0  0  0  0  0  0  0  0  0  0  0  # atno 14820 bound_to 2473
  124.4383  138.1908  136.2924 LP  0  0  0  0  0  0  0  0  0  0  0  0  # atno 14821 bound_to 2476
  123.2151  138.0166  137.5062 LP  0  0  0  0  0  0  0  0  0  0  0  0  # atno 14822 bound_to 2476
  145.1075  100.4669  167.9537 LP  0  0  0  0  0  0  0  0  0  0  0  0  # atno 14837 bound_to 1661
  146.1873   99.9898  169.0820 LP  0  0  0  0  0  0  0  0  0  0  0  0  # atno 14838 bound_to 1661
  137.1124  134.0185   99.0519 LP  0  0  0  0  0  0  0  0  0  0  0  0  # atno 14871 bound_to 1769
  137.1118  134.6383   94.0775 LP  0  0  0  0  0  0  0  0  0  0  0  0  # atno 14872 bound_to 1772
  137.1011  133.2465   95.1083 LP  0  0  0  0  0  0  0  0  0  0  0  0  # atno 14873 bound_to 1772
  145.5779  166.4359  167.3410 LP  0  0  0  0  0  0  0  0  0  0  0  0  # atno 14890 bound_to 4497
  147.1775  166.4843  167.6663 LP  0  0  0  0  0  0  0  0  0  0  0  0  # atno 14891 bound_to 4497
  140.4382  123.7810  169.2407 LP  0  0  0  0  0  0  0  0  0  0  0  0  # atno 14896 bound_to 1867
  140.0484  122.8885  167.9299 LP  0  0  0  0  0  0  0  0  0  0  0  0  # atno 14897 bound_to 1867
  136.9012  147.6611  169.4888 LP  0  0  0  0  0  0  0  0  0  0  0  0  # atno 14898 bound_to 1868
  135.8902  149.0519  170.1862 LP  0  0  0  0  0  0  0  0  0  0  0  0  # atno 14899 bound_to 1871
  135.9949  150.7775  170.0803 LP  0  0  0  0  0  0  0  0  0  0  0  0  # atno 14900 bound_to 1871
  140.3815  147.8238  169.0093 LP  0  0  0  0  0  0  0  0  0  0  0  0  # atno 14901 bound_to 1873
  141.1972  149.1258  168.4562 LP  0  0  0  0  0  0  0  0  0  0  0  0  # atno 14902 bound_to 1873
  153.4303  162.9042  171.2307 LP  0  0  0  0  0  0  0  0  0  0  0  0  # atno 14941 bound_to 4458
  151.8730  162.4515  171.0403 LP  0  0  0  0  0  0  0  0  0  0  0  0  # atno 14942 bound_to 4458
  138.4740  144.4422  139.3244 LP  0  0  0  0  0  0  0  0  0  0  0  0  # atno 14943 bound_to 4459
  140.3362  143.6359  137.2096 LP  0  0  0  0  0  0  0  0  0  0  0  0  # atno 14944 bound_to 4462
  139.0314  142.5355  137.5039 LP  0  0  0  0  0  0  0  0  0  0  0  0  # atno 14945 bound_to 4462
  137.1087  141.4592  141.2789 LP  0  0  0  0  0  0  0  0  0  0  0  0  # atno 14946 bound_to 4465
  138.1259  142.4664  142.0648 LP  0  0  0  0  0  0  0  0  0  0  0  0  # atno 14947 bound_to 4465

> <Gold.Score>
     Fitness  S(hb_ext) S(vdw_ext)  S(hb_int)    S(int)      intcor
     33.20       0.63      24.09       0.00      -0.56      -0.76

> <Gold.Goldscore.Fitness>
33.1990

> <Gold.Goldscore.Internal.Vdw>
-0.7912

> <Gold.Goldscore.Internal.Torsion>
-0.5264

> <Gold.Goldscore.External.Vdw>
24.0898

> <Gold.Goldscore.Internal.HBond>
0.0000

> <Gold.Goldscore.External.HBond>
0.6347

> <Gold.Goldscore.Internal.Correction>
-0.7585

> <Gold.Goldscore.Hbonds>
donor molecule, donor type, donor heavy atom, donor atom, acceptor molecule, acceptor atom, score
      L1  H     8    22       P1  1873  0.32

> <Gold.Goldscore.Internal.Vdw.Weighted>
-0.7912

> <Gold.Goldscore.Internal.Torsion.Weighted>
-0.5264

> <Gold.Goldscore.External.Vdw.Weighted>
33.1234

> <Gold.Goldscore.Internal.HBond.Weighted>
0.0000

> <Gold.Goldscore.External.HBond.Weighted>
0.6347

> <Gold.Goldscore.Internal.Correction.Weighted>
-0.7585

> <Gold.Rescore>
     Score     S(PLP)   S(hbond)     S(cho)   S(metal)  DE(clash)   DE(tors)     intcor
     27.96     -28.90       0.00       0.00       0.00       0.00       0.47       ----

> <Gold.PLP.Fitness>
27.9621

> <Gold.PLP.PLP>
-28.8995

> <Gold.PLP.part.hbond>
-0.7804

> <Gold.PLP.part.metal>
0.0000

> <Gold.PLP.part.buried>
-5.7777

> <Gold.PLP.part.nonpolar>
-24.4290

> <Gold.PLP.part.repulsive>
0.4844

> <Gold.PLP.ligand.clash>
0.0000

> <Gold.PLP.ligand.torsion>
0.4687

> <Gold.PLP.Chemscore.Hbond>
0.0000

> <Gold.PLP.Chemscore.CHOScore>
0.0000

> <Gold.PLP.Chemscore.Metal>
0.0000

> <Gold.Chemscore.Hbonds>
donor molecule, donor type, donor heavy atom, donor atom, acceptor molecule, acceptor atom, score
      L1  H     8    22       P1  1873  0.90

> <Gold.PLP.Chemscore.Internal.Correction>
   9.000000E+99

