#       Name:                CT1002167954
#       Creating user name   hitesit
#       Creation time:       Sun Apr 16 20:19:54 2023


#       File generated by GOLD software.
#

@<TRIPOS>MOLECULE
CT1002167954|ligand_prepared|mol2|1|dock2
    29    30     1
SMALL
NO_CHARGES


@<TRIPOS>ATOM
      1 C1          17.6121  12.4732  37.3865 C.3            1 RES1               0.0000
      2 C2          16.6393  11.2955  37.1729 C.ar           1 RES1               0.0000
      3 C3          18.9467  11.8576  37.7966 C.2            1 RES1               0.0000
      4 C4          17.6575  13.2339  36.0659 C.2            1 RES1               0.0000
      5 C5          17.1661  13.4596  38.4909 C.3            1 RES1               0.0000
      6 C6          16.5551  10.6613  35.9370 C.ar           1 RES1               0.0000
      7 C7          15.8233  10.8313  38.2011 C.ar           1 RES1               0.0000
      8 N8          19.9505  11.8528  36.8735 N.am           1 RES1               0.0000
      9 O9          19.1035  11.3485  38.8995 O.2            1 RES1               0.0000
     10 N10         18.8390  13.2455  35.3719 N.am           1 RES1               0.0000
     11 O11         16.6762  13.8094  35.6119 O.2            1 RES1               0.0000
     12 C12         17.9630  14.7544  38.5148 C.3            1 RES1               0.0000
     13 C13         15.6886   9.5994  35.7370 C.ar           1 RES1               0.0000
     14 C14         14.9573   9.7694  37.9988 C.ar           1 RES1               0.0000
     15 C15         19.9789  12.5638  35.7007 C.2            1 RES1               0.0000
     16 C16         14.8895   9.1525  36.7678 C.ar           1 RES1               0.0000
     17 O17         20.9849  12.5798  34.9972 O.2            1 RES1               0.0000
     18 H18         16.1061  13.6999  38.3426 H              1 RES1               0.0000
     19 H19         17.2649  12.9663  39.4658 H              1 RES1               0.0000
     20 H20         17.1743  11.0006  35.1134 H              1 RES1               0.0000
     21 H21         15.8590  11.3020  39.1777 H              1 RES1               0.0000
     22 H22         20.7544  11.2663  37.0736 H              1 RES1               0.0000
     23 H23         18.8719  13.8153  34.5325 H              1 RES1               0.0000
     24 H24         17.6096  15.4102  39.3077 H              1 RES1               0.0000
     25 H25         19.0187  14.5546  38.6856 H              1 RES1               0.0000
     26 H26         17.8669  15.2839  37.5691 H              1 RES1               0.0000
     27 H27         15.6380   9.1182  34.7659 H              1 RES1               0.0000
     28 H28         14.3298   9.4214  38.8127 H              1 RES1               0.0000
     29 H29         14.2111   8.3204  36.6109 H              1 RES1               0.0000
@<TRIPOS>BOND
    1    1    2 1     
    2    1    3 1     
    3    1    4 1     
    4    1    5 1     
    5    2    6 ar    
    6    2    7 ar    
    7    3    8 1     
    8    3    9 2     
    9    4   10 1     
   10    4   11 2     
   11    5   12 1     
   12    5   18 1     
   13    5   19 1     
   14    6   13 ar    
   15    6   20 1     
   16    7   14 ar    
   17    7   21 1     
   18    8   15 1     
   19    8   22 1     
   20   10   15 1     
   21   10   23 1     
   22   12   24 1     
   23   12   25 1     
   24   12   26 1     
   25   13   16 ar    
   26   13   27 1     
   27   14   16 ar    
   28   14   28 1     
   29   15   17 2     
   30   16   29 1     
@<TRIPOS>SUBSTRUCTURE
      1 RES1           1
@<TRIPOS>SET
DONOR_HYDROGENS      STATIC     ATOMS    <user>   **** ""
2 22 23
ATOM$RED        STATIC     ATOMS    COLORGROUP SYSTEM
2 22 23
@<TRIPOS>COMMENT
> <Gold.Version>
2022.3.0

> <Gold.Id.Protein>
unknown|3mvj_clean|pdb

> <Gold.Protein.RotatedTorsions>
[ 10968 10947 10946 10944 ] final -146.47 input   60.01 | X-H torsion
[ 10728 10707 10706 10704 ] final  -78.85 input   59.96 | X-H torsion
[ 10960 10936 10937 10938 ] final   -5.20 input   23.31 | X-H torsion
[ 12092 12045 12046 12047 ] final  -76.62 input   63.71 | X-H torsion
[ 15542 15533 15534 15535 ] final -168.08 input   83.29 | X-H torsion
[ 15588 15579 15580 15581 ] final -101.59 input  107.67 | X-H torsion
[ 15633 15624 15625 15626 ] final -173.68 input   84.82 | X-H torsion
[ 10915 10907 10908 10909 ] final   47.85 input  -87.38 | X-H torsion
[ 6151 6129 6130 6131 ] final   31.77 input   27.76 | X-H torsion
[ 6109 6101 6102 6103 ] final  177.81 input  -93.79 | X-H torsion
[ 5929 5907 5908 5909 ] final   94.12 input  119.25 | X-H torsion
[ 6001 5979 5980 5981 ] final  122.54 input  112.51 | X-H torsion
[ 6064 6048 6049 6050 ] final  -87.05 input  108.26 | X-H torsion
[ 11206 11196 11197 11198 ] final -134.11 input   -0.63 | X-H torsion
[ 11253 11229 11230 11231 ] final  -70.41 input  120.69 | X-H torsion
[ 11164 11142 11143 11144 ] final  100.11 input   33.88 | X-H torsion
[ 11104 11082 11083 11084 ] final   75.98 input   45.00 | X-H torsion
[ 11300 11266 11267 11268 ] final   29.94 input   49.58 | X-H torsion
[ 9451 9421 9422 9423 ] final   -0.28 input  116.39 | X-H torsion
[ 11504 11466 11467 11468 ] final  -55.30 input  126.08 | X-H torsion
[ 11396 11358 11359 11360 ] final -133.95 input   98.08 | X-H torsion
[ 11577 11538 11537 11535 ] final   62.82 input   60.01 | X-H torsion
[ 9363 9335 9336 9337 ] final  -87.42 input   84.14 | X-H torsion
[ 9369 9341 9339 9336 ] final -166.41 input   60.02 | X-H torsion
[ 9511 9469 9470 9471 ] final   17.69 input   75.21 | X-H torsion
[ 7840 7822 7823 7824 ] final  -12.20 input  121.36 | X-H torsion
[ 7742 7722 7721 7720 ] final   52.99 input   60.01 | X-H torsion
[ 5728 5706 5707 5708 ] final -131.10 input  119.20 | X-H torsion
[ 5773 5761 5762 5763 ] final   92.07 input  120.20 | X-H torsion
[ 5777 5766 5765 5762 ] final   44.50 input   59.99 | X-H torsion
[ 7882 7866 7867 7868 ] final -178.99 input   81.17 | X-H torsion
[ 9519 9480 9479 9477 ] final   13.62 input   60.03 | X-H torsion
[ 7732 7714 7715 7716 ] final -137.26 input  -10.67 | X-H torsion
[ 15096 15054 15053 15052 ] final  -11.73 input   60.01 | X-H torsion
[ 9325 9311 9312 9313 ] final   77.14 input  -66.31 | X-H torsion
[ 15182 15161 15160 15159 ] final  -41.34 input   59.99 | X-H torsion
[ 15326 15310 15309 15306 ] final  131.62 input   59.99 | X-H torsion
[ 9302 9280 9281 9282 ] final   29.88 input   22.77 | X-H torsion
[ 7636 7620 7621 7622 ] final -113.38 input   34.37 | X-H torsion
[ 9263 9225 9226 9227 ] final   70.66 input   96.07 | X-H torsion
[ 9566 9528 9529 9530 ] final   77.04 input   99.68 | X-H torsion
[ 3444 3412 3413 3414 ] final  -46.22 input -120.58 | X-H torsion
[ 3506 3478 3479 3480 ] final  -92.64 input   70.69 | X-H torsion
[ 9208 9168 9169 9170 ] final -147.42 input  115.65 | X-H torsion
[ 9216 9178 9175 9174 ] final  -24.53 input   59.98 | X-H torsion
[ 6271 6255 6254 6251 ] final   -7.66 input   60.00 | X-H torsion
[ 9214 9176 9175 9174 ] final  -79.37 input   60.01 | X-H torsion
[ 12154 12142 12143 12144 ] final  173.08 input  108.55 | X-H torsion
[ 12021 11973 11974 11975 ] final  141.25 input   68.31 | X-H torsion
[ 11450 11416 11417 11418 ] final -135.53 input  102.35 | X-H torsion
[ 5632 5608 5609 5610 ] final   31.68 input  119.09 | X-H torsion
[ 10774 10756 10757 10758 ] final  -32.71 input  129.22 | X-H torsion
[ 10816 10800 10801 10802 ] final  176.43 input  128.85 | X-H torsion
[ 8641 8619 8620 8621 ] final  172.88 input   87.35 | X-H torsion
[ 3661 3632 3633 3634 ] final   71.72 input  116.97 | X-H torsion
[ 10029 10008 10007 10005 ] final   79.44 input   60.01 | X-H torsion
[ 16458 15536 15535 15534 ] final  -59.35 input    0.00 | X-H torsion
[ 16468 10881 10880 10879 ] final  -29.84 input    0.00 | X-H torsion
[ 16470 10910 10909 10908 ] final  -88.87 input    0.00 | X-H torsion
[ 16473 10997 10996 10995 ] final -176.02 input    0.00 | X-H torsion
[ 16475 11976 11975 11974 ] final  175.60 input    0.00 | X-H torsion
[ 16477 12048 12047 12046 ] final   47.63 input    0.00 | X-H torsion
[ 16480 10939 10938 10937 ] final  -55.04 input   -0.00 | X-H torsion
[ 16483 11039 11038 11037 ] final  -26.96 input    0.00 | X-H torsion
[ 16492 15582 15581 15580 ] final  140.36 input    0.00 | X-H torsion
[ 16496 6104 6103 6102 ] final   63.03 input    0.00 | X-H torsion
[ 16499 5910 5909 5908 ] final   82.70 input   -0.00 | X-H torsion
[ 16502 5850 5849 5848 ] final  -53.71 input    0.00 | X-H torsion
[ 16505 6051 6050 6049 ] final   -5.93 input    0.00 | X-H torsion
[ 16507 5982 5981 5980 ] final   82.66 input    0.00 | X-H torsion
[ 16511 11145 11144 11143 ] final   64.34 input    0.00 | X-H torsion
[ 16514 11199 11198 11197 ] final   71.32 input    0.00 | X-H torsion
[ 16530 11085 11084 11083 ] final  137.38 input   -0.00 | X-H torsion
[ 16538 11232 11231 11230 ] final -117.10 input    0.00 | X-H torsion
[ 16549 11269 11268 11267 ] final   85.20 input   -0.00 | X-H torsion
[ 16552 11318 11317 11316 ] final  -59.54 input    0.00 | X-H torsion
[ 16558 9314 9313 9312 ] final   75.37 input    0.00 | X-H torsion
[ 16561 9338 9337 9336 ] final  166.81 input    0.00 | X-H torsion
[ 16565 9380 9379 9378 ] final   71.16 input    0.00 | X-H torsion
[ 16570 5709 5708 5707 ] final  -48.39 input    0.00 | X-H torsion
[ 16575 7825 7824 7823 ] final  123.23 input    0.00 | X-H torsion
[ 16583 7781 7780 7779 ] final -131.27 input   -0.00 | X-H torsion
[ 16593 9424 9423 9422 ] final  -44.09 input   -0.00 | X-H torsion
[ 16597 7659 7658 7657 ] final   64.22 input   -0.00 | X-H torsion
[ 16599 7717 7716 7715 ] final -101.78 input    0.00 | X-H torsion
[ 16602 10532 10531 10530 ] final  -65.17 input    0.00 | X-H torsion
[ 16611 7554 7553 7552 ] final    9.33 input    0.00 | X-H torsion
[ 16613 7623 7622 7621 ] final -100.46 input   -0.00 | X-H torsion
[ 16616 9283 9282 9281 ] final  -90.61 input    0.00 | X-H torsion
[ 16618 9228 9227 9226 ] final -142.61 input   -0.00 | X-H torsion
[ 16636 3357 3356 3355 ] final -166.60 input   -0.00 | X-H torsion
[ 16638 3415 3414 3413 ] final  116.13 input   -0.00 | X-H torsion
[ 16646 9102 9101 9100 ] final  165.37 input    0.00 | X-H torsion

> <Gold.Protein.ActiveResidues>
 ARG45   SER53   PHE54   LEU82   LYS83   GLN84   GLU86   HIS87   GLU127  PHE129 
 SER130  HIS131  LEU132  ARG133  ARG134  ILE135  GLY136  ARG137  PHE138  SER139 
 HIS142  ARG165  ASP166  LEU167  LYS168  PRO169  GLU170  ASN171  ASP184  GLY186 
 PHE187  TRP196  TPO197  LEU198  CYS199  GLY200  THR201  PRO202  GLU203  TYR204 
 LEU205  ILE209  ILE210  TYR215  VAL226  LEU227  TYR229  GLU230  MET231  ALA233 
 GLY234  TYR235  PRO236  PRO237  PHE238  PHE239  ALA240  ASP241  GLN242  PRO243 
 ILE244  GLN245  ILE246  TYR247  LYS249  ARG256  PHE257  PRO258  SER259  HIS260 
 PRO313  PHE314  ILE315  LYS317  LYS319  SER325  ASN326  ASP328  ASP329  GLU331 
 GLU332  GLU333  GLU334 

> <Gold.Protein.RotatedAtoms>
   25.2131   22.7120   37.8533 H   0  0  0  0  0  0  0  0  0  0  0  0  # atno 3444 bound_to 3412
   23.5986   21.9476   39.9311 H   0  0  0  0  0  0  0  0  0  0  0  0  # atno 3506 bound_to 3478
   23.7180   20.1885   44.8188 H   0  0  0  0  0  0  0  0  0  0  0  0  # atno 3661 bound_to 3632
   35.6125   -1.8412   41.8707 H   0  0  0  0  0  0  0  0  0  0  0  0  # atno 5632 bound_to 5608
   29.5448   -2.4159   41.4919 H   0  0  0  0  0  0  0  0  0  0  0  0  # atno 5728 bound_to 5706
   31.8833   -2.3563   39.2644 H   0  0  0  0  0  0  0  0  0  0  0  0  # atno 5773 bound_to 5761
   33.5065   -1.4560   36.3831 H   0  0  0  0  0  0  0  0  0  0  0  0  # atno 5777 bound_to 5766
   29.8371   -5.9615   37.0881 H   0  0  0  0  0  0  0  0  0  0  0  0  # atno 5929 bound_to 5907
   31.6816   -7.1666   35.7303 H   0  0  0  0  0  0  0  0  0  0  0  0  # atno 6001 bound_to 5979
   32.1984  -10.4656   35.5499 H   0  0  0  0  0  0  0  0  0  0  0  0  # atno 6064 bound_to 6048
   29.8272  -11.2237   35.2886 H   0  0  0  0  0  0  0  0  0  0  0  0  # atno 6109 bound_to 6101
   27.4950  -13.2340   37.5374 H   0  0  0  0  0  0  0  0  0  0  0  0  # atno 6151 bound_to 6129
    9.9032   24.0979   35.3293 H   0  0  0  0  0  0  0  0  0  0  0  0  # atno 6271 bound_to 6255
   18.4189    6.9252   46.3970 H   0  0  0  0  0  0  0  0  0  0  0  0  # atno 7636 bound_to 7620
   21.4623    1.5542   44.9959 H   0  0  0  0  0  0  0  0  0  0  0  0  # atno 7732 bound_to 7714
   22.6828    5.8302   41.9662 H   0  0  0  0  0  0  0  0  0  0  0  0  # atno 7742 bound_to 7722
   23.2895    6.9688   40.9262 H   0  0  0  0  0  0  0  0  0  0  0  0  # atno 7743 bound_to 7722
   21.7868    6.3210   40.6607 H   0  0  0  0  0  0  0  0  0  0  0  0  # atno 7744 bound_to 7722
   26.3114    0.9691   42.2187 H   0  0  0  0  0  0  0  0  0  0  0  0  # atno 7840 bound_to 7822
   26.5718    3.4532   42.3193 H   0  0  0  0  0  0  0  0  0  0  0  0  # atno 7882 bound_to 7866
   22.6946   13.1590   45.9036 H   0  0  0  0  0  0  0  0  0  0  0  0  # atno 8641 bound_to 8619
   10.0119   15.9676   45.7299 H   0  0  0  0  0  0  0  0  0  0  0  0  # atno 9208 bound_to 9168
   13.3521   19.0232   47.4541 H   0  0  0  0  0  0  0  0  0  0  0  0  # atno 9214 bound_to 9176
   14.9135   16.4563   46.3537 H   0  0  0  0  0  0  0  0  0  0  0  0  # atno 9216 bound_to 9178
   11.8345   15.0510   41.8565 H   0  0  0  0  0  0  0  0  0  0  0  0  # atno 9263 bound_to 9225
   13.6137   11.2827   42.5586 H   0  0  0  0  0  0  0  0  0  0  0  0  # atno 9302 bound_to 9280
   16.1297   10.0297   40.9490 H   0  0  0  0  0  0  0  0  0  0  0  0  # atno 9325 bound_to 9311
   17.7398    7.6637   39.7035 H   0  0  0  0  0  0  0  0  0  0  0  0  # atno 9363 bound_to 9335
   21.4179    5.1295   38.5947 H   0  0  0  0  0  0  0  0  0  0  0  0  # atno 9369 bound_to 9341
   15.8494    3.1506   37.6343 H   0  0  0  0  0  0  0  0  0  0  0  0  # atno 9451 bound_to 9421
   15.2544    2.5735   39.1019 H   0  0  0  0  0  0  0  0  0  0  0  0  # atno 9511 bound_to 9469
   21.0870   -2.4889   40.6758 H   0  0  0  0  0  0  0  0  0  0  0  0  # atno 9519 bound_to 9480
   13.6677    2.8296   40.0168 H   0  0  0  0  0  0  0  0  0  0  0  0  # atno 9566 bound_to 9528
   12.5586   12.5731   46.5064 H   0  0  0  0  0  0  0  0  0  0  0  0  # atno 10029 bound_to 10008
   13.8059  -10.1071   36.7228 H   0  0  0  0  0  0  0  0  0  0  0  0  # atno 10728 bound_to 10707
   19.1115   -8.4329   41.6121 H   0  0  0  0  0  0  0  0  0  0  0  0  # atno 10774 bound_to 10756
   21.9211   -6.9248   42.0362 H   0  0  0  0  0  0  0  0  0  0  0  0  # atno 10816 bound_to 10800
   21.0755  -11.1865   37.4504 H   0  0  0  0  0  0  0  0  0  0  0  0  # atno 10915 bound_to 10907
   20.7794   -9.1671   37.2386 H   0  0  0  0  0  0  0  0  0  0  0  0  # atno 10960 bound_to 10936
   17.2384  -13.9648   35.1434 H   0  0  0  0  0  0  0  0  0  0  0  0  # atno 10968 bound_to 10947
   13.9368   -4.1976   37.1304 H   0  0  0  0  0  0  0  0  0  0  0  0  # atno 11104 bound_to 11082
   13.8866   -4.6912   33.4290 H   0  0  0  0  0  0  0  0  0  0  0  0  # atno 11164 bound_to 11142
   14.4350   -3.2333   30.1555 H   0  0  0  0  0  0  0  0  0  0  0  0  # atno 11206 bound_to 11196
   14.7758   -0.8986   27.5709 H   0  0  0  0  0  0  0  0  0  0  0  0  # atno 11253 bound_to 11229
   13.5098    1.4031   27.4125 H   0  0  0  0  0  0  0  0  0  0  0  0  # atno 11300 bound_to 11266
   11.5028    5.5444   30.6042 H   0  0  0  0  0  0  0  0  0  0  0  0  # atno 11396 bound_to 11358
    8.8235    3.6218   29.3595 H   0  0  0  0  0  0  0  0  0  0  0  0  # atno 11450 bound_to 11416
    9.6253    0.8573   31.0382 H   0  0  0  0  0  0  0  0  0  0  0  0  # atno 11504 bound_to 11466
   13.4642    7.5504   34.1649 H   0  0  0  0  0  0  0  0  0  0  0  0  # atno 11577 bound_to 11538
    8.7141  -10.6555   36.8592 H   0  0  0  0  0  0  0  0  0  0  0  0  # atno 12021 bound_to 11973
   11.1162  -13.4414   37.4316 H   0  0  0  0  0  0  0  0  0  0  0  0  # atno 12092 bound_to 12045
   14.5502  -18.5202   36.5053 H   0  0  0  0  0  0  0  0  0  0  0  0  # atno 12154 bound_to 12142
   27.2312   15.1852   33.8209 H   0  0  0  0  0  0  0  0  0  0  0  0  # atno 15096 bound_to 15054
   26.1851   16.1345   34.6881 H   0  0  0  0  0  0  0  0  0  0  0  0  # atno 15097 bound_to 15054
   26.6291   14.6464   35.2674 H   0  0  0  0  0  0  0  0  0  0  0  0  # atno 15098 bound_to 15054
   31.8539   12.2601   30.6381 H   0  0  0  0  0  0  0  0  0  0  0  0  # atno 15182 bound_to 15161
   31.1852   10.7672   30.9070 H   0  0  0  0  0  0  0  0  0  0  0  0  # atno 15183 bound_to 15161
   32.7435   11.0760   31.3810 H   0  0  0  0  0  0  0  0  0  0  0  0  # atno 15184 bound_to 15161
   27.0318   11.3365   26.9566 H   0  0  0  0  0  0  0  0  0  0  0  0  # atno 15326 bound_to 15310
    8.1896  -11.8169   26.1130 H   0  0  0  0  0  0  0  0  0  0  0  0  # atno 15542 bound_to 15533
    9.3165  -14.4532   28.0033 H   0  0  0  0  0  0  0  0  0  0  0  0  # atno 15588 bound_to 15579
   10.2727  -17.4367   29.3969 H   0  0  0  0  0  0  0  0  0  0  0  0  # atno 15633 bound_to 15624
   11.3772  -15.2089   27.0711 LP  0  0  0  0  0  0  0  0  0  0  0  0  # atno 16458 bound_to 15536
   11.1288  -14.5294   28.6448 LP  0  0  0  0  0  0  0  0  0  0  0  0  # atno 16459 bound_to 15536
   16.3226  -13.5035   33.8801 LP  0  0  0  0  0  0  0  0  0  0  0  0  # atno 16460 bound_to 10947
   15.9085  -13.0623   35.3968 LP  0  0  0  0  0  0  0  0  0  0  0  0  # atno 16461 bound_to 10947
   13.4527  -11.3993   37.6467 LP  0  0  0  0  0  0  0  0  0  0  0  0  # atno 16466 bound_to 10707
   14.8663  -11.3368   36.8314 LP  0  0  0  0  0  0  0  0  0  0  0  0  # atno 16467 bound_to 10707
   21.1739  -13.6630   36.5509 LP  0  0  0  0  0  0  0  0  0  0  0  0  # atno 16468 bound_to 10881
   21.6826  -12.2832   35.6358 LP  0  0  0  0  0  0  0  0  0  0  0  0  # atno 16469 bound_to 10881
   23.2888   -7.8130   35.1668 LP  0  0  0  0  0  0  0  0  0  0  0  0  # atno 16470 bound_to 10910
   22.6647   -8.9708   34.0399 LP  0  0  0  0  0  0  0  0  0  0  0  0  # atno 16471 bound_to 10910
   21.6847   -9.4584   35.7743 LP  0  0  0  0  0  0  0  0  0  0  0  0  # atno 16472 bound_to 10936
   15.1323   -6.8891   35.5682 LP  0  0  0  0  0  0  0  0  0  0  0  0  # atno 16473 bound_to 10997
   16.7881   -6.6743   35.1074 LP  0  0  0  0  0  0  0  0  0  0  0  0  # atno 16474 bound_to 10997
   12.6109  -12.0282   38.2456 LP  0  0  0  0  0  0  0  0  0  0  0  0  # atno 16475 bound_to 11976
   11.5025  -11.0297   37.3656 LP  0  0  0  0  0  0  0  0  0  0  0  0  # atno 16476 bound_to 11976
   11.7328  -15.9408   36.8965 LP  0  0  0  0  0  0  0  0  0  0  0  0  # atno 16477 bound_to 12048
   12.7712  -17.1777   37.5223 LP  0  0  0  0  0  0  0  0  0  0  0  0  # atno 16478 bound_to 12048
   18.4672   -9.0896   37.3456 LP  0  0  0  0  0  0  0  0  0  0  0  0  # atno 16480 bound_to 10939
   18.8332   -7.8075   38.4511 LP  0  0  0  0  0  0  0  0  0  0  0  0  # atno 16481 bound_to 10939
   12.1080   -7.5646   36.3812 LP  0  0  0  0  0  0  0  0  0  0  0  0  # atno 16483 bound_to 11039
   11.3394   -6.0479   36.0514 LP  0  0  0  0  0  0  0  0  0  0  0  0  # atno 16484 bound_to 11039
   10.3578  -14.3687   38.7027 LP  0  0  0  0  0  0  0  0  0  0  0  0  # atno 16485 bound_to 12045
    8.8026  -12.1474   27.7162 LP  0  0  0  0  0  0  0  0  0  0  0  0  # atno 16490 bound_to 15533
    7.7435  -15.1321   27.6305 LP  0  0  0  0  0  0  0  0  0  0  0  0  # atno 16491 bound_to 15579
    9.6200  -18.1722   26.9756 LP  0  0  0  0  0  0  0  0  0  0  0  0  # atno 16492 bound_to 15582
    8.0824  -17.3854   27.1042 LP  0  0  0  0  0  0  0  0  0  0  0  0  # atno 16493 bound_to 15582
    8.8568  -18.2990   29.9576 LP  0  0  0  0  0  0  0  0  0  0  0  0  # atno 16494 bound_to 15624
   22.3419  -11.0495   38.6517 LP  0  0  0  0  0  0  0  0  0  0  0  0  # atno 16495 bound_to 10907
   25.1063  -10.7215   36.0186 LP  0  0  0  0  0  0  0  0  0  0  0  0  # atno 16496 bound_to 6104
   25.7206  -10.0239   37.4801 LP  0  0  0  0  0  0  0  0  0  0  0  0  # atno 16497 bound_to 6104
   26.7786  -11.7252   37.0250 LP  0  0  0  0  0  0  0  0  0  0  0  0  # atno 16498 bound_to 6129
   29.6588   -8.5187   32.9195 LP  0  0  0  0  0  0  0  0  0  0  0  0  # atno 16499 bound_to 5910
   29.4195   -9.6722   34.1892 LP  0  0  0  0  0  0  0  0  0  0  0  0  # atno 16500 bound_to 5910
   29.3171  -10.9941   36.9407 LP  0  0  0  0  0  0  0  0  0  0  0  0  # atno 16501 bound_to 6101
   29.3009   -9.5938   37.4528 LP  0  0  0  0  0  0  0  0  0  0  0  0  # atno 16502 bound_to 5850
   27.9858   -8.9681   36.5152 LP  0  0  0  0  0  0  0  0  0  0  0  0  # atno 16503 bound_to 5850
   28.7192   -7.2803   37.3356 LP  0  0  0  0  0  0  0  0  0  0  0  0  # atno 16504 bound_to 5907
   30.1736  -14.1176   36.6120 LP  0  0  0  0  0  0  0  0  0  0  0  0  # atno 16505 bound_to 6051
   28.5981  -13.6228   36.0896 LP  0  0  0  0  0  0  0  0  0  0  0  0  # atno 16506 bound_to 6051
   33.1606  -11.6978   34.3053 LP  0  0  0  0  0  0  0  0  0  0  0  0  # atno 16507 bound_to 5982
   31.4790  -11.6727   33.8911 LP  0  0  0  0  0  0  0  0  0  0  0  0  # atno 16508 bound_to 5982
   30.4129   -8.0633   34.9233 LP  0  0  0  0  0  0  0  0  0  0  0  0  # atno 16509 bound_to 5979
   31.5111   -9.6647   36.9442 LP  0  0  0  0  0  0  0  0  0  0  0  0  # atno 16510 bound_to 6048
   12.1249   -3.8540   31.0724 LP  0  0  0  0  0  0  0  0  0  0  0  0  # atno 16511 bound_to 11145
   13.1255   -4.6231   29.8861 LP  0  0  0  0  0  0  0  0  0  0  0  0  # atno 16512 bound_to 11145
   14.7927   -1.5530   30.5190 LP  0  0  0  0  0  0  0  0  0  0  0  0  # atno 16513 bound_to 11196
   16.3757   -0.8696   28.8737 LP  0  0  0  0  0  0  0  0  0  0  0  0  # atno 16514 bound_to 11199
   15.5039    0.6263   28.8267 LP  0  0  0  0  0  0  0  0  0  0  0  0  # atno 16515 bound_to 11199
   13.5582   -1.0552   26.3192 LP  0  0  0  0  0  0  0  0  0  0  0  0  # atno 16516 bound_to 11229
   12.9106   -3.2512   33.5351 LP  0  0  0  0  0  0  0  0  0  0  0  0  # atno 16525 bound_to 11142
   15.3386   -2.3330   34.4196 LP  0  0  0  0  0  0  0  0  0  0  0  0  # atno 16530 bound_to 11085
   14.0365   -1.6532   35.3375 LP  0  0  0  0  0  0  0  0  0  0  0  0  # atno 16531 bound_to 11085
   13.5526   -5.7114   36.3400 LP  0  0  0  0  0  0  0  0  0  0  0  0  # atno 16533 bound_to 11082
   16.6121    2.8373   27.0057 LP  0  0  0  0  0  0  0  0  0  0  0  0  # atno 16538 bound_to 11232
   16.4395    2.7306   25.2856 LP  0  0  0  0  0  0  0  0  0  0  0  0  # atno 16539 bound_to 11232
   14.7172    1.9469   26.2597 LP  0  0  0  0  0  0  0  0  0  0  0  0  # atno 16542 bound_to 11266
   16.0296    2.7024   35.9582 LP  0  0  0  0  0  0  0  0  0  0  0  0  # atno 16548 bound_to 9421
   12.8388    1.9932   29.6052 LP  0  0  0  0  0  0  0  0  0  0  0  0  # atno 16549 bound_to 11269
   11.4743    2.9798   29.1993 LP  0  0  0  0  0  0  0  0  0  0  0  0  # atno 16550 bound_to 11269
   11.5390    3.2383   32.2821 LP  0  0  0  0  0  0  0  0  0  0  0  0  # atno 16552 bound_to 11318
   10.5614    4.6199   32.6505 LP  0  0  0  0  0  0  0  0  0  0  0  0  # atno 16553 bound_to 11318
   11.1091    1.7456   30.7606 LP  0  0  0  0  0  0  0  0  0  0  0  0  # atno 16554 bound_to 11466
   11.0689    4.5084   29.2773 LP  0  0  0  0  0  0  0  0  0  0  0  0  # atno 16555 bound_to 11358
   12.9084    8.2114   35.5439 LP  0  0  0  0  0  0  0  0  0  0  0  0  # atno 16556 bound_to 11538
   12.5008    8.8601   34.1018 LP  0  0  0  0  0  0  0  0  0  0  0  0  # atno 16557 bound_to 11538
   18.1729    9.2375   38.2951 LP  0  0  0  0  0  0  0  0  0  0  0  0  # atno 16558 bound_to 9314
   16.6248    8.4615   38.2586 LP  0  0  0  0  0  0  0  0  0  0  0  0  # atno 16559 bound_to 9314
   18.3506    6.2943   40.6001 LP  0  0  0  0  0  0  0  0  0  0  0  0  # atno 16560 bound_to 9335
   15.4435    4.4354   39.0382 LP  0  0  0  0  0  0  0  0  0  0  0  0  # atno 16561 bound_to 9338
   16.8978    4.5174   39.9753 LP  0  0  0  0  0  0  0  0  0  0  0  0  # atno 16562 bound_to 9338
   20.7223    6.1873   39.6175 LP  0  0  0  0  0  0  0  0  0  0  0  0  # atno 16563 bound_to 9341
   20.6636    6.4462   38.0062 LP  0  0  0  0  0  0  0  0  0  0  0  0  # atno 16564 bound_to 9341
   12.9804    3.0403   37.2309 LP  0  0  0  0  0  0  0  0  0  0  0  0  # atno 16565 bound_to 9380
   13.8877    2.8500   38.6939 LP  0  0  0  0  0  0  0  0  0  0  0  0  # atno 16566 bound_to 9380
   16.2907    1.1685   38.9769 LP  0  0  0  0  0  0  0  0  0  0  0  0  # atno 16567 bound_to 9469
   29.1226   -4.5185   38.0484 LP  0  0  0  0  0  0  0  0  0  0  0  0  # atno 16570 bound_to 5709
   29.9358   -3.8434   36.6762 LP  0  0  0  0  0  0  0  0  0  0  0  0  # atno 16571 bound_to 5709
   25.8427    0.7040   40.5576 LP  0  0  0  0  0  0  0  0  0  0  0  0  # atno 16574 bound_to 7822
   28.7866    4.6839   42.1560 LP  0  0  0  0  0  0  0  0  0  0  0  0  # atno 16575 bound_to 7825
   29.6811    3.2774   41.6850 LP  0  0  0  0  0  0  0  0  0  0  0  0  # atno 16576 bound_to 7825
   31.0318   -1.9207   40.7236 LP  0  0  0  0  0  0  0  0  0  0  0  0  # atno 16579 bound_to 5706
   30.5890   -2.6037   38.1144 LP  0  0  0  0  0  0  0  0  0  0  0  0  # atno 16580 bound_to 5761
   34.4363   -2.6463   35.7786 LP  0  0  0  0  0  0  0  0  0  0  0  0  # atno 16581 bound_to 5766
   35.0787   -1.5395   36.7930 LP  0  0  0  0  0  0  0  0  0  0  0  0  # atno 16582 bound_to 5766
   28.3609    1.0219   42.9080 LP  0  0  0  0  0  0  0  0  0  0  0  0  # atno 16583 bound_to 7781
   28.4161   -0.6694   42.5388 LP  0  0  0  0  0  0  0  0  0  0  0  0  # atno 16584 bound_to 7781
   27.2648    2.0180   43.0453 LP  0  0  0  0  0  0  0  0  0  0  0  0  # atno 16585 bound_to 7866
   14.0411   -0.5871   38.6882 LP  0  0  0  0  0  0  0  0  0  0  0  0  # atno 16593 bound_to 9424
   15.2171   -0.6777   39.9566 LP  0  0  0  0  0  0  0  0  0  0  0  0  # atno 16594 bound_to 9424
   19.9227   -3.2485   41.5217 LP  0  0  0  0  0  0  0  0  0  0  0  0  # atno 16595 bound_to 9480
   21.0716   -2.3876   42.2999 LP  0  0  0  0  0  0  0  0  0  0  0  0  # atno 16596 bound_to 9480
   20.0517    3.4987   43.5512 LP  0  0  0  0  0  0  0  0  0  0  0  0  # atno 16597 bound_to 7659
   19.7837    1.7884   43.4947 LP  0  0  0  0  0  0  0  0  0  0  0  0  # atno 16598 bound_to 7659
   25.3807    2.0503   43.3597 LP  0  0  0  0  0  0  0  0  0  0  0  0  # atno 16599 bound_to 7717
   24.8896    1.2549   44.8178 LP  0  0  0  0  0  0  0  0  0  0  0  0  # atno 16600 bound_to 7717
   22.9481    2.4529   44.7773 LP  0  0  0  0  0  0  0  0  0  0  0  0  # atno 16601 bound_to 7714
   17.8109   -6.0660   42.1848 LP  0  0  0  0  0  0  0  0  0  0  0  0  # atno 16602 bound_to 10532
   18.8360   -4.7342   41.7659 LP  0  0  0  0  0  0  0  0  0  0  0  0  # atno 16603 bound_to 10532
   17.6934   10.8081   40.9720 LP  0  0  0  0  0  0  0  0  0  0  0  0  # atno 16604 bound_to 9311
   26.7380   11.7704   25.4157 LP  0  0  0  0  0  0  0  0  0  0  0  0  # atno 16607 bound_to 15310
   28.0543   10.8743   25.7777 LP  0  0  0  0  0  0  0  0  0  0  0  0  # atno 16608 bound_to 15310
   17.3278    8.7237   45.1425 LP  0  0  0  0  0  0  0  0  0  0  0  0  # atno 16611 bound_to 7554
   18.5152    7.7048   44.3997 LP  0  0  0  0  0  0  0  0  0  0  0  0  # atno 16612 bound_to 7554
   21.7947    4.5662   43.7577 LP  0  0  0  0  0  0  0  0  0  0  0  0  # atno 16613 bound_to 7623
   22.8085    5.3324   44.9346 LP  0  0  0  0  0  0  0  0  0  0  0  0  # atno 16614 bound_to 7623
   13.5287   12.5560   41.3803 LP  0  0  0  0  0  0  0  0  0  0  0  0  # atno 16615 bound_to 9280
   15.6046    9.2319   43.2531 LP  0  0  0  0  0  0  0  0  0  0  0  0  # atno 16616 bound_to 9283
   14.7119    8.7643   41.8444 LP  0  0  0  0  0  0  0  0  0  0  0  0  # atno 16617 bound_to 9283
   14.8687   13.5826   40.1405 LP  0  0  0  0  0  0  0  0  0  0  0  0  # atno 16618 bound_to 9228
   13.7860   14.7610   40.8034 LP  0  0  0  0  0  0  0  0  0  0  0  0  # atno 16619 bound_to 9228
   19.8203    6.8703   47.4273 LP  0  0  0  0  0  0  0  0  0  0  0  0  # atno 16620 bound_to 7620
   11.3518   14.0244   43.1838 LP  0  0  0  0  0  0  0  0  0  0  0  0  # atno 16628 bound_to 9225
   14.6218    2.9163   41.4784 LP  0  0  0  0  0  0  0  0  0  0  0  0  # atno 16635 bound_to 9528
   23.0782   20.5919   37.6617 LP  0  0  0  0  0  0  0  0  0  0  0  0  # atno 16636 bound_to 3357
   24.2175   19.7323   36.6804 LP  0  0  0  0  0  0  0  0  0  0  0  0  # atno 16637 bound_to 3357
   22.2526   20.2574   39.9723 LP  0  0  0  0  0  0  0  0  0  0  0  0  # atno 16638 bound_to 3415
   21.6178   21.7626   40.5481 LP  0  0  0  0  0  0  0  0  0  0  0  0  # atno 16639 bound_to 3415
   24.0675   22.7921   36.5345 LP  0  0  0  0  0  0  0  0  0  0  0  0  # atno 16640 bound_to 3412
   25.2839   21.9871   39.4592 LP  0  0  0  0  0  0  0  0  0  0  0  0  # atno 16641 bound_to 3478
    9.4723   14.7819   43.2913 LP  0  0  0  0  0  0  0  0  0  0  0  0  # atno 16646 bound_to 9102
    8.0035   14.1880   43.9912 LP  0  0  0  0  0  0  0  0  0  0  0  0  # atno 16647 bound_to 9102
   10.5689   14.3291   45.9535 LP  0  0  0  0  0  0  0  0  0  0  0  0  # atno 16648 bound_to 9168
   14.8305   16.3313   47.9739 LP  0  0  0  0  0  0  0  0  0  0  0  0  # atno 16649 bound_to 9178
   14.9690   17.7989   47.2714 LP  0  0  0  0  0  0  0  0  0  0  0  0  # atno 16650 bound_to 9178
   11.0027   23.9698   36.5219 LP  0  0  0  0  0  0  0  0  0  0  0  0  # atno 16654 bound_to 6255
    9.8414   25.1153   36.5977 LP  0  0  0  0  0  0  0  0  0  0  0  0  # atno 16655 bound_to 6255
   12.5371   18.2948   48.6601 LP  0  0  0  0  0  0  0  0  0  0  0  0  # atno 16656 bound_to 9176
   11.7806   18.6481   47.2567 LP  0  0  0  0  0  0  0  0  0  0  0  0  # atno 16657 bound_to 9176

> <Gold.Score>
     Fitness  S(hb_ext) S(vdw_ext)  S(hb_int)    S(int)      intcor
     24.78       0.00      18.26       0.00      -0.32      -0.77

> <Gold.Goldscore.Fitness>
24.7841

> <Gold.Goldscore.Internal.Vdw>
-0.5115

> <Gold.Goldscore.Internal.Torsion>
-0.5745

> <Gold.Goldscore.External.Vdw>
18.2551

> <Gold.Goldscore.Internal.HBond>
0.0000

> <Gold.Goldscore.External.HBond>
0.0000

> <Gold.Goldscore.Internal.Correction>
-0.7693

> <Gold.Goldscore.Internal.Vdw.Weighted>
-0.5115

> <Gold.Goldscore.Internal.Torsion.Weighted>
-0.5745

> <Gold.Goldscore.External.Vdw.Weighted>
25.1008

> <Gold.Goldscore.Internal.HBond.Weighted>
0.0000

> <Gold.Goldscore.External.HBond.Weighted>
0.0000

> <Gold.Goldscore.Internal.Correction.Weighted>
-0.7693

> <Gold.Rescore>
     Score     S(PLP)   S(hbond)     S(cho)   S(metal)  DE(clash)   DE(tors)     intcor
     22.40     -22.97       0.00       0.00       0.00       0.00       0.29       ----

> <Gold.PLP.Fitness>
22.3975

> <Gold.PLP.PLP>
-22.9693

> <Gold.PLP.part.hbond>
-1.0000

> <Gold.PLP.part.metal>
0.0000

> <Gold.PLP.part.buried>
0.6683

> <Gold.PLP.part.nonpolar>
-23.6438

> <Gold.PLP.part.repulsive>
0.9957

> <Gold.PLP.ligand.clash>
0.0000

> <Gold.PLP.ligand.torsion>
0.2859

> <Gold.PLP.Chemscore.Hbond>
0.0000

> <Gold.PLP.Chemscore.CHOScore>
0.0000

> <Gold.PLP.Chemscore.Metal>
0.0000

> <Gold.PLP.Chemscore.Internal.Correction>
   9.000000E+99

