#       Name:                CT1002167954
#       Creating user name   hitesit
#       Creation time:       Sun Apr 16 20:20:04 2023


#       File generated by GOLD software.
#

@<TRIPOS>MOLECULE
CT1002167954|ligand_prepared|mol2|1|dock6
    29    30     1
SMALL
NO_CHARGES


@<TRIPOS>ATOM
      1 C1          18.9298  14.9835  33.0307 C.3            1 RES1               0.0000
      2 C2          18.3356  14.1193  34.1616 C.ar           1 RES1               0.0000
      3 C3          17.8246  15.1485  31.9918 C.2            1 RES1               0.0000
      4 C4          19.3734  16.2897  33.6801 C.2            1 RES1               0.0000
      5 C5          20.1611  14.3503  32.3417 C.3            1 RES1               0.0000
      6 C6          17.5587  14.6971  35.1613 C.ar           1 RES1               0.0000
      7 C7          18.5531  12.7452  34.2171 C.ar           1 RES1               0.0000
      8 N8          17.2088  16.3628  31.9119 N.am           1 RES1               0.0000
      9 O9          17.4717  14.2159  31.2806 O.2            1 RES1               0.0000
     10 N10         18.7217  17.4399  33.3192 N.am           1 RES1               0.0000
     11 O11         20.2702  16.3309  34.5134 O.2            1 RES1               0.0000
     12 C12         20.8840  15.2923  31.3919 C.3            1 RES1               0.0000
     13 C13         17.0163  13.9286  36.1779 C.ar           1 RES1               0.0000
     14 C14         18.0099  11.9785  35.2348 C.ar           1 RES1               0.0000
     15 C15         17.6391  17.5312  32.4875 C.2            1 RES1               0.0000
     16 C16         17.2411  12.5689  36.2151 C.ar           1 RES1               0.0000
     17 O17         17.0729  18.5951  32.2539 O.2            1 RES1               0.0000
     18 H18         20.8658  14.0180  33.1139 H              1 RES1               0.0000
     19 H19         19.8358  13.4651  31.7814 H              1 RES1               0.0000
     20 H20         17.3730  15.7659  35.1499 H              1 RES1               0.0000
     21 H21         19.1556  12.2594  33.4571 H              1 RES1               0.0000
     22 H22         16.3487  16.4060  31.3745 H              1 RES1               0.0000
     23 H23         19.0767  18.3085  33.7064 H              1 RES1               0.0000
     24 H24         21.7394  14.7984  30.9356 H              1 RES1               0.0000
     25 H25         20.2195  15.6228  30.5963 H              1 RES1               0.0000
     26 H26         21.2435  16.1725  31.9209 H              1 RES1               0.0000
     27 H27         16.4131  14.3982  36.9478 H              1 RES1               0.0000
     28 H28         18.1899  10.9089  35.2604 H              1 RES1               0.0000
     29 H29         16.8157  11.9671  37.0114 H              1 RES1               0.0000
@<TRIPOS>BOND
    1    1    2 1     
    2    1    3 1     
    3    1    4 1     
    4    1    5 1     
    5    2    6 ar    
    6    2    7 ar    
    7    3    8 1     
    8    3    9 2     
    9    4   10 1     
   10    4   11 2     
   11    5   12 1     
   12    5   18 1     
   13    5   19 1     
   14    6   13 ar    
   15    6   20 1     
   16    7   14 ar    
   17    7   21 1     
   18    8   15 1     
   19    8   22 1     
   20   10   15 1     
   21   10   23 1     
   22   12   24 1     
   23   12   25 1     
   24   12   26 1     
   25   13   16 ar    
   26   13   27 1     
   27   14   16 ar    
   28   14   28 1     
   29   15   17 2     
   30   16   29 1     
@<TRIPOS>SUBSTRUCTURE
      1 RES1           1
@<TRIPOS>SET
DONOR_HYDROGENS      STATIC     ATOMS    <user>   **** ""
2 22 23
ATOM$RED        STATIC     ATOMS    COLORGROUP SYSTEM
2 22 23
@<TRIPOS>COMMENT
> <Gold.Version>
2022.3.0

> <Gold.Id.Protein>
unknown|3mvj_clean|pdb

> <Gold.Protein.RotatedTorsions>
[ 10968 10947 10946 10944 ] final   38.17 input   60.01 | X-H torsion
[ 10728 10707 10706 10704 ] final  145.81 input   59.96 | X-H torsion
[ 10960 10936 10937 10938 ] final  -45.02 input   23.31 | X-H torsion
[ 12092 12045 12046 12047 ] final  130.39 input   63.71 | X-H torsion
[ 15542 15533 15534 15535 ] final  -59.51 input   83.29 | X-H torsion
[ 15588 15579 15580 15581 ] final  -19.73 input  107.67 | X-H torsion
[ 15633 15624 15625 15626 ] final  109.17 input   84.82 | X-H torsion
[ 10915 10907 10908 10909 ] final -133.38 input  -87.38 | X-H torsion
[ 6151 6129 6130 6131 ] final   30.35 input   27.76 | X-H torsion
[ 6109 6101 6102 6103 ] final   -4.70 input  -93.79 | X-H torsion
[ 5929 5907 5908 5909 ] final  -13.88 input  119.25 | X-H torsion
[ 6001 5979 5980 5981 ] final -159.86 input  112.51 | X-H torsion
[ 6064 6048 6049 6050 ] final   36.97 input  108.26 | X-H torsion
[ 11206 11196 11197 11198 ] final  -98.65 input   -0.63 | X-H torsion
[ 11253 11229 11230 11231 ] final   45.23 input  120.69 | X-H torsion
[ 11164 11142 11143 11144 ] final  -34.70 input   33.88 | X-H torsion
[ 11104 11082 11083 11084 ] final   39.72 input   45.00 | X-H torsion
[ 11300 11266 11267 11268 ] final -101.92 input   49.58 | X-H torsion
[ 9451 9421 9422 9423 ] final -168.88 input  116.39 | X-H torsion
[ 11504 11466 11467 11468 ] final -173.16 input  126.08 | X-H torsion
[ 11396 11358 11359 11360 ] final  -21.30 input   98.08 | X-H torsion
[ 11577 11538 11537 11535 ] final  114.82 input   60.01 | X-H torsion
[ 9363 9335 9336 9337 ] final -164.83 input   84.14 | X-H torsion
[ 9369 9341 9339 9336 ] final  132.93 input   60.02 | X-H torsion
[ 9511 9469 9470 9471 ] final  -34.50 input   75.21 | X-H torsion
[ 7840 7822 7823 7824 ] final  -61.27 input  121.36 | X-H torsion
[ 7742 7722 7721 7720 ] final  -73.48 input   60.01 | X-H torsion
[ 5728 5706 5707 5708 ] final   19.39 input  119.20 | X-H torsion
[ 5773 5761 5762 5763 ] final    5.33 input  120.20 | X-H torsion
[ 5777 5766 5765 5762 ] final  114.34 input   59.99 | X-H torsion
[ 7882 7866 7867 7868 ] final   55.16 input   81.17 | X-H torsion
[ 9519 9480 9479 9477 ] final -113.62 input   60.03 | X-H torsion
[ 7732 7714 7715 7716 ] final   70.25 input  -10.67 | X-H torsion
[ 15096 15054 15053 15052 ] final   27.04 input   60.01 | X-H torsion
[ 9325 9311 9312 9313 ] final  -29.07 input  -66.31 | X-H torsion
[ 15182 15161 15160 15159 ] final   24.26 input   59.99 | X-H torsion
[ 15326 15310 15309 15306 ] final   63.34 input   59.99 | X-H torsion
[ 9302 9280 9281 9282 ] final  110.86 input   22.77 | X-H torsion
[ 7636 7620 7621 7622 ] final  -58.92 input   34.37 | X-H torsion
[ 9263 9225 9226 9227 ] final   88.59 input   96.07 | X-H torsion
[ 9566 9528 9529 9530 ] final  -61.06 input   99.68 | X-H torsion
[ 3444 3412 3413 3414 ] final   85.72 input -120.58 | X-H torsion
[ 3506 3478 3479 3480 ] final   28.11 input   70.69 | X-H torsion
[ 9208 9168 9169 9170 ] final   50.58 input  115.65 | X-H torsion
[ 9216 9178 9175 9174 ] final   41.32 input   59.98 | X-H torsion
[ 6271 6255 6254 6251 ] final  -89.45 input   60.00 | X-H torsion
[ 9214 9176 9175 9174 ] final  -76.66 input   60.01 | X-H torsion
[ 12154 12142 12143 12144 ] final -172.94 input  108.55 | X-H torsion
[ 12021 11973 11974 11975 ] final  110.27 input   68.31 | X-H torsion
[ 11450 11416 11417 11418 ] final   -3.35 input  102.35 | X-H torsion
[ 5632 5608 5609 5610 ] final  145.61 input  119.09 | X-H torsion
[ 10774 10756 10757 10758 ] final  143.10 input  129.22 | X-H torsion
[ 10816 10800 10801 10802 ] final -104.65 input  128.85 | X-H torsion
[ 8641 8619 8620 8621 ] final   73.16 input   87.35 | X-H torsion
[ 3661 3632 3633 3634 ] final -162.92 input  116.97 | X-H torsion
[ 10029 10008 10007 10005 ] final -143.99 input   60.01 | X-H torsion
[ 16458 15536 15535 15534 ] final   11.86 input    0.00 | X-H torsion
[ 16468 10881 10880 10879 ] final   94.11 input    0.00 | X-H torsion
[ 16470 10910 10909 10908 ] final  122.25 input    0.00 | X-H torsion
[ 16473 10997 10996 10995 ] final  164.10 input    0.00 | X-H torsion
[ 16475 11976 11975 11974 ] final  102.27 input    0.00 | X-H torsion
[ 16477 12048 12047 12046 ] final   17.92 input    0.00 | X-H torsion
[ 16480 10939 10938 10937 ] final  155.71 input   -0.00 | X-H torsion
[ 16483 11039 11038 11037 ] final   17.96 input    0.00 | X-H torsion
[ 16492 15582 15581 15580 ] final -152.15 input    0.00 | X-H torsion
[ 16496 6104 6103 6102 ] final   10.96 input    0.00 | X-H torsion
[ 16499 5910 5909 5908 ] final  -91.71 input   -0.00 | X-H torsion
[ 16502 5850 5849 5848 ] final  -93.12 input    0.00 | X-H torsion
[ 16505 6051 6050 6049 ] final   62.97 input    0.00 | X-H torsion
[ 16507 5982 5981 5980 ] final   23.52 input    0.00 | X-H torsion
[ 16511 11145 11144 11143 ] final  124.63 input    0.00 | X-H torsion
[ 16514 11199 11198 11197 ] final  -10.36 input    0.00 | X-H torsion
[ 16530 11085 11084 11083 ] final  -87.69 input   -0.00 | X-H torsion
[ 16538 11232 11231 11230 ] final  -30.04 input    0.00 | X-H torsion
[ 16549 11269 11268 11267 ] final -120.06 input   -0.00 | X-H torsion
[ 16552 11318 11317 11316 ] final   27.58 input    0.00 | X-H torsion
[ 16558 9314 9313 9312 ] final  124.65 input    0.00 | X-H torsion
[ 16561 9338 9337 9336 ] final -172.17 input    0.00 | X-H torsion
[ 16565 9380 9379 9378 ] final -135.64 input    0.00 | X-H torsion
[ 16570 5709 5708 5707 ] final -128.62 input    0.00 | X-H torsion
[ 16575 7825 7824 7823 ] final   86.45 input    0.00 | X-H torsion
[ 16583 7781 7780 7779 ] final  152.55 input   -0.00 | X-H torsion
[ 16593 9424 9423 9422 ] final  -21.84 input   -0.00 | X-H torsion
[ 16597 7659 7658 7657 ] final  130.03 input   -0.00 | X-H torsion
[ 16599 7717 7716 7715 ] final   92.05 input    0.00 | X-H torsion
[ 16602 10532 10531 10530 ] final  -16.24 input    0.00 | X-H torsion
[ 16611 7554 7553 7552 ] final  -57.03 input    0.00 | X-H torsion
[ 16613 7623 7622 7621 ] final -110.45 input   -0.00 | X-H torsion
[ 16616 9283 9282 9281 ] final -142.75 input    0.00 | X-H torsion
[ 16618 9228 9227 9226 ] final  156.89 input   -0.00 | X-H torsion
[ 16636 3357 3356 3355 ] final -103.43 input   -0.00 | X-H torsion
[ 16638 3415 3414 3413 ] final   52.70 input   -0.00 | X-H torsion
[ 16646 9102 9101 9100 ] final -107.63 input    0.00 | X-H torsion

> <Gold.Protein.ActiveResidues>
 ARG45   SER53   PHE54   LEU82   LYS83   GLN84   GLU86   HIS87   GLU127  PHE129 
 SER130  HIS131  LEU132  ARG133  ARG134  ILE135  GLY136  ARG137  PHE138  SER139 
 HIS142  ARG165  ASP166  LEU167  LYS168  PRO169  GLU170  ASN171  ASP184  GLY186 
 PHE187  TRP196  TPO197  LEU198  CYS199  GLY200  THR201  PRO202  GLU203  TYR204 
 LEU205  ILE209  ILE210  TYR215  VAL226  LEU227  TYR229  GLU230  MET231  ALA233 
 GLY234  TYR235  PRO236  PRO237  PHE238  PHE239  ALA240  ASP241  GLN242  PRO243 
 ILE244  GLN245  ILE246  TYR247  LYS249  ARG256  PHE257  PRO258  SER259  HIS260 
 PRO313  PHE314  ILE315  LYS317  LYS319  SER325  ASN326  ASP328  ASP329  GLU331 
 GLU332  GLU333  GLU334 

> <Gold.Protein.RotatedAtoms>
   24.1825   22.1232   36.7515 H   0  0  0  0  0  0  0  0  0  0  0  0  # atno 3444 bound_to 3412
   25.0158   22.5552   40.0553 H   0  0  0  0  0  0  0  0  0  0  0  0  # atno 3506 bound_to 3478
   22.3046   19.7753   45.3665 H   0  0  0  0  0  0  0  0  0  0  0  0  # atno 3661 bound_to 3632
   35.9476   -0.4061   41.8552 H   0  0  0  0  0  0  0  0  0  0  0  0  # atno 5632 bound_to 5608
   31.0647   -2.3642   40.7278 H   0  0  0  0  0  0  0  0  0  0  0  0  # atno 5728 bound_to 5706
   31.0810   -3.2565   39.0882 H   0  0  0  0  0  0  0  0  0  0  0  0  # atno 5773 bound_to 5761
   34.3970   -1.1387   36.8870 H   0  0  0  0  0  0  0  0  0  0  0  0  # atno 5777 bound_to 5766
   29.7402   -7.3720   37.2805 H   0  0  0  0  0  0  0  0  0  0  0  0  # atno 5929 bound_to 5907
   31.3148   -7.0684   34.6812 H   0  0  0  0  0  0  0  0  0  0  0  0  # atno 6001 bound_to 5979
   31.0110   -9.7776   36.3030 H   0  0  0  0  0  0  0  0  0  0  0  0  # atno 6064 bound_to 6048
   29.3217  -10.9527   36.9454 H   0  0  0  0  0  0  0  0  0  0  0  0  # atno 6109 bound_to 6101
   27.5104  -13.2227   37.5481 H   0  0  0  0  0  0  0  0  0  0  0  0  # atno 6151 bound_to 6129
   10.8572   23.7009   35.9883 H   0  0  0  0  0  0  0  0  0  0  0  0  # atno 6271 bound_to 6255
   18.6241    6.2164   46.6950 H   0  0  0  0  0  0  0  0  0  0  0  0  # atno 7636 bound_to 7620
   22.6817    2.7002   44.5726 H   0  0  0  0  0  0  0  0  0  0  0  0  # atno 7732 bound_to 7714
   21.8314    6.3952   40.5972 H   0  0  0  0  0  0  0  0  0  0  0  0  # atno 7742 bound_to 7722
   22.5841    5.7906   41.9440 H   0  0  0  0  0  0  0  0  0  0  0  0  # atno 7743 bound_to 7722
   23.3432    6.9330   41.0131 H   0  0  0  0  0  0  0  0  0  0  0  0  # atno 7744 bound_to 7722
   26.7143    0.4705   41.8649 H   0  0  0  0  0  0  0  0  0  0  0  0  # atno 7840 bound_to 7822
   26.4870    2.1265   43.1867 H   0  0  0  0  0  0  0  0  0  0  0  0  # atno 7882 bound_to 7866
   22.6241   12.3108   46.9534 H   0  0  0  0  0  0  0  0  0  0  0  0  # atno 8641 bound_to 8619
   10.7468   14.4452   46.1253 H   0  0  0  0  0  0  0  0  0  0  0  0  # atno 9208 bound_to 9168
   13.3307   19.0324   47.4164 H   0  0  0  0  0  0  0  0  0  0  0  0  # atno 9214 bound_to 9176
   14.9797   17.4633   46.4849 H   0  0  0  0  0  0  0  0  0  0  0  0  # atno 9216 bound_to 9178
   11.5666   15.0309   41.7999 H   0  0  0  0  0  0  0  0  0  0  0  0  # atno 9263 bound_to 9225
   13.7993   12.3821   42.6619 H   0  0  0  0  0  0  0  0  0  0  0  0  # atno 9302 bound_to 9280
   17.1712   10.4971   40.1172 H   0  0  0  0  0  0  0  0  0  0  0  0  # atno 9325 bound_to 9311
   18.7835    7.4278   39.9782 H   0  0  0  0  0  0  0  0  0  0  0  0  # atno 9363 bound_to 9335
   21.2007    5.4026   39.4739 H   0  0  0  0  0  0  0  0  0  0  0  0  # atno 9369 bound_to 9341
   15.8607    2.7373   35.9373 H   0  0  0  0  0  0  0  0  0  0  0  0  # atno 9451 bound_to 9421
   14.8919    1.8824   39.0449 H   0  0  0  0  0  0  0  0  0  0  0  0  # atno 9511 bound_to 9469
   19.9315   -3.2313   41.6390 H   0  0  0  0  0  0  0  0  0  0  0  0  # atno 9519 bound_to 9480
   14.2275    2.4330   41.5193 H   0  0  0  0  0  0  0  0  0  0  0  0  # atno 9566 bound_to 9528
   13.4481   11.0775   46.5124 H   0  0  0  0  0  0  0  0  0  0  0  0  # atno 10029 bound_to 10008
   13.6399  -11.5662   37.6412 H   0  0  0  0  0  0  0  0  0  0  0  0  # atno 10728 bound_to 10707
   18.5262   -6.8072   41.2312 H   0  0  0  0  0  0  0  0  0  0  0  0  # atno 10774 bound_to 10756
   22.0641   -7.3375   41.0130 H   0  0  0  0  0  0  0  0  0  0  0  0  # atno 10816 bound_to 10800
   22.3841  -11.0554   38.6515 H   0  0  0  0  0  0  0  0  0  0  0  0  # atno 10915 bound_to 10907
   21.2701   -8.8215   37.2295 H   0  0  0  0  0  0  0  0  0  0  0  0  # atno 10960 bound_to 10936
   15.7686  -13.0764   34.4022 H   0  0  0  0  0  0  0  0  0  0  0  0  # atno 10968 bound_to 10947
   14.3309   -4.3012   36.7559 H   0  0  0  0  0  0  0  0  0  0  0  0  # atno 11104 bound_to 11082
   12.6846   -3.6753   33.0685 H   0  0  0  0  0  0  0  0  0  0  0  0  # atno 11164 bound_to 11142
   14.9269   -3.1175   29.9424 H   0  0  0  0  0  0  0  0  0  0  0  0  # atno 11206 bound_to 11196
   13.4818   -0.3889   26.9703 H   0  0  0  0  0  0  0  0  0  0  0  0  # atno 11253 bound_to 11229
   14.9987    1.8961   26.9192 H   0  0  0  0  0  0  0  0  0  0  0  0  # atno 11300 bound_to 11266
   11.3014    4.1890   30.1573 H   0  0  0  0  0  0  0  0  0  0  0  0  # atno 11396 bound_to 11358
    9.8884    3.1849   30.4870 H   0  0  0  0  0  0  0  0  0  0  0  0  # atno 11450 bound_to 11416
   11.0803    0.8608   30.5748 H   0  0  0  0  0  0  0  0  0  0  0  0  # atno 11504 bound_to 11466
   13.0854    8.0949   33.6817 H   0  0  0  0  0  0  0  0  0  0  0  0  # atno 11577 bound_to 11538
    9.1698  -10.5210   36.8083 H   0  0  0  0  0  0  0  0  0  0  0  0  # atno 12021 bound_to 11973
   10.3725  -13.9984   38.8739 H   0  0  0  0  0  0  0  0  0  0  0  0  # atno 12092 bound_to 12045
   14.4290  -18.4275   36.6571 H   0  0  0  0  0  0  0  0  0  0  0  0  # atno 12154 bound_to 12142
   26.9498   15.7533   33.7814 H   0  0  0  0  0  0  0  0  0  0  0  0  # atno 15096 bound_to 15054
   26.0769   15.7606   35.1904 H   0  0  0  0  0  0  0  0  0  0  0  0  # atno 15097 bound_to 15054
   27.0184   14.4522   34.8049 H   0  0  0  0  0  0  0  0  0  0  0  0  # atno 15098 bound_to 15054
   31.0779   11.5744   30.5865 H   0  0  0  0  0  0  0  0  0  0  0  0  # atno 15182 bound_to 15161
   32.0887   10.4967   31.3382 H   0  0  0  0  0  0  0  0  0  0  0  0  # atno 15183 bound_to 15161
   32.6155   12.0321   31.0012 H   0  0  0  0  0  0  0  0  0  0  0  0  # atno 15184 bound_to 15161
   26.4829   11.8073   26.1939 H   0  0  0  0  0  0  0  0  0  0  0  0  # atno 15326 bound_to 15310
    7.8678  -12.3929   27.3886 H   0  0  0  0  0  0  0  0  0  0  0  0  # atno 15542 bound_to 15533
    9.0089  -15.3347   27.2932 H   0  0  0  0  0  0  0  0  0  0  0  0  # atno 15588 bound_to 15579
   10.0938  -17.9020   30.3873 H   0  0  0  0  0  0  0  0  0  0  0  0  # atno 15633 bound_to 15624
   11.4766  -14.2349   27.3123 LP  0  0  0  0  0  0  0  0  0  0  0  0  # atno 16458 bound_to 15536
   11.0295  -15.5034   28.4036 LP  0  0  0  0  0  0  0  0  0  0  0  0  # atno 16459 bound_to 15536
   16.5967  -13.4782   35.7439 LP  0  0  0  0  0  0  0  0  0  0  0  0  # atno 16460 bound_to 10947
   17.1147  -13.9822   34.2795 LP  0  0  0  0  0  0  0  0  0  0  0  0  # atno 16461 bound_to 10947
   14.8904  -11.1248   36.6980 LP  0  0  0  0  0  0  0  0  0  0  0  0  # atno 16466 bound_to 10707
   13.5958  -10.1420   36.8553 LP  0  0  0  0  0  0  0  0  0  0  0  0  # atno 16467 bound_to 10707
   20.8869  -12.4521   35.6626 LP  0  0  0  0  0  0  0  0  0  0  0  0  # atno 16468 bound_to 10881
   21.9696  -13.4941   36.5241 LP  0  0  0  0  0  0  0  0  0  0  0  0  # atno 16469 bound_to 10881
   22.3433   -8.6364   34.0658 LP  0  0  0  0  0  0  0  0  0  0  0  0  # atno 16470 bound_to 10910
   23.6102   -8.1475   35.1409 LP  0  0  0  0  0  0  0  0  0  0  0  0  # atno 16471 bound_to 10910
   21.2032   -9.7975   35.7832 LP  0  0  0  0  0  0  0  0  0  0  0  0  # atno 16472 bound_to 10936
   15.2409   -7.1585   35.6388 LP  0  0  0  0  0  0  0  0  0  0  0  0  # atno 16473 bound_to 10997
   16.6795   -6.4048   35.0368 LP  0  0  0  0  0  0  0  0  0  0  0  0  # atno 16474 bound_to 10997
   11.8941  -11.3995   38.6463 LP  0  0  0  0  0  0  0  0  0  0  0  0  # atno 16475 bound_to 11976
   12.2193  -11.6584   36.9649 LP  0  0  0  0  0  0  0  0  0  0  0  0  # atno 16476 bound_to 11976
   11.5483  -16.0599   37.2825 LP  0  0  0  0  0  0  0  0  0  0  0  0  # atno 16477 bound_to 12048
   12.9557  -17.0586   37.1363 LP  0  0  0  0  0  0  0  0  0  0  0  0  # atno 16478 bound_to 12048
   18.3962   -7.7404   38.3274 LP  0  0  0  0  0  0  0  0  0  0  0  0  # atno 16480 bound_to 10939
   18.9042   -9.1566   37.4693 LP  0  0  0  0  0  0  0  0  0  0  0  0  # atno 16481 bound_to 10939
   11.7730   -7.3325   36.9024 LP  0  0  0  0  0  0  0  0  0  0  0  0  # atno 16483 bound_to 11039
   11.6744   -6.2801   35.5303 LP  0  0  0  0  0  0  0  0  0  0  0  0  # atno 16484 bound_to 11039
   11.0865  -13.8230   37.2896 LP  0  0  0  0  0  0  0  0  0  0  0  0  # atno 16485 bound_to 12045
    9.1168  -11.5850   26.4708 LP  0  0  0  0  0  0  0  0  0  0  0  0  # atno 16490 bound_to 15533
    8.0383  -14.2875   28.3109 LP  0  0  0  0  0  0  0  0  0  0  0  0  # atno 16491 bound_to 15579
    8.8079  -18.6237   27.2252 LP  0  0  0  0  0  0  0  0  0  0  0  0  # atno 16492 bound_to 15582
    8.8945  -16.9339   26.8547 LP  0  0  0  0  0  0  0  0  0  0  0  0  # atno 16493 bound_to 15582
    9.0300  -17.8485   28.9987 LP  0  0  0  0  0  0  0  0  0  0  0  0  # atno 16494 bound_to 15624
   21.0780  -11.1761   37.4917 LP  0  0  0  0  0  0  0  0  0  0  0  0  # atno 16495 bound_to 10907
   25.6086  -10.1572   35.9336 LP  0  0  0  0  0  0  0  0  0  0  0  0  # atno 16496 bound_to 6104
   25.2182  -10.5881   37.5652 LP  0  0  0  0  0  0  0  0  0  0  0  0  # atno 16497 bound_to 6104
   26.7634  -11.7362   37.0146 LP  0  0  0  0  0  0  0  0  0  0  0  0  # atno 16498 bound_to 6129
   29.3415   -9.6409   34.1973 LP  0  0  0  0  0  0  0  0  0  0  0  0  # atno 16499 bound_to 5910
   29.7368   -8.5499   32.9114 LP  0  0  0  0  0  0  0  0  0  0  0  0  # atno 16500 bound_to 5910
   29.8171  -11.2622   35.3020 LP  0  0  0  0  0  0  0  0  0  0  0  0  # atno 16501 bound_to 6101
   29.4913   -9.4454   36.9211 LP  0  0  0  0  0  0  0  0  0  0  0  0  # atno 16502 bound_to 5850
   27.7954   -9.1164   37.0469 LP  0  0  0  0  0  0  0  0  0  0  0  0  # atno 16503 bound_to 5850
   28.8142   -5.8974   37.1469 LP  0  0  0  0  0  0  0  0  0  0  0  0  # atno 16504 bound_to 5907
   29.4294  -13.9109   37.2148 LP  0  0  0  0  0  0  0  0  0  0  0  0  # atno 16505 bound_to 6051
   29.3423  -13.8296   35.4868 LP  0  0  0  0  0  0  0  0  0  0  0  0  # atno 16506 bound_to 6051
   32.8947  -11.2179   33.6498 LP  0  0  0  0  0  0  0  0  0  0  0  0  # atno 16507 bound_to 5982
   31.7449  -12.1526   34.5466 LP  0  0  0  0  0  0  0  0  0  0  0  0  # atno 16508 bound_to 5982
   30.7674   -8.1582   35.9373 LP  0  0  0  0  0  0  0  0  0  0  0  0  # atno 16509 bound_to 5979
   32.6663  -10.3340   36.2116 LP  0  0  0  0  0  0  0  0  0  0  0  0  # atno 16510 bound_to 6048
   12.1020   -3.5897   30.2440 LP  0  0  0  0  0  0  0  0  0  0  0  0  # atno 16511 bound_to 11145
   13.1484   -4.8873   30.7145 LP  0  0  0  0  0  0  0  0  0  0  0  0  # atno 16512 bound_to 11145
   14.3256   -1.6631   30.7213 LP  0  0  0  0  0  0  0  0  0  0  0  0  # atno 16513 bound_to 11196
   15.6089   -0.4363   29.5860 LP  0  0  0  0  0  0  0  0  0  0  0  0  # atno 16514 bound_to 11199
   16.2707    0.1930   28.1143 LP  0  0  0  0  0  0  0  0  0  0  0  0  # atno 16515 bound_to 11199
   14.7986   -1.5439   26.8949 LP  0  0  0  0  0  0  0  0  0  0  0  0  # atno 16516 bound_to 11229
   14.1043   -4.2600   33.8932 LP  0  0  0  0  0  0  0  0  0  0  0  0  # atno 16525 bound_to 11142
   14.0510   -1.4299   34.7125 LP  0  0  0  0  0  0  0  0  0  0  0  0  # atno 16530 bound_to 11085
   15.3241   -2.5563   35.0446 LP  0  0  0  0  0  0  0  0  0  0  0  0  # atno 16531 bound_to 11085
   13.1711   -5.6111   36.7027 LP  0  0  0  0  0  0  0  0  0  0  0  0  # atno 16533 bound_to 11082
   17.0448    2.0915   26.1812 LP  0  0  0  0  0  0  0  0  0  0  0  0  # atno 16538 bound_to 11232
   16.0068    3.4763   26.1101 LP  0  0  0  0  0  0  0  0  0  0  0  0  # atno 16539 bound_to 11232
   13.3039    1.4790   26.7279 LP  0  0  0  0  0  0  0  0  0  0  0  0  # atno 16542 bound_to 11266
   16.0186    3.1104   37.6338 LP  0  0  0  0  0  0  0  0  0  0  0  0  # atno 16548 bound_to 9421
   11.5623    3.0994   29.5478 LP  0  0  0  0  0  0  0  0  0  0  0  0  # atno 16549 bound_to 11269
   12.7509    1.8736   29.2567 LP  0  0  0  0  0  0  0  0  0  0  0  0  # atno 16550 bound_to 11269
   11.7308    4.2399   32.9022 LP  0  0  0  0  0  0  0  0  0  0  0  0  # atno 16552 bound_to 11318
   10.3695    3.6182   32.0303 LP  0  0  0  0  0  0  0  0  0  0  0  0  # atno 16553 bound_to 11318
    9.7054    1.7422   31.2077 LP  0  0  0  0  0  0  0  0  0  0  0  0  # atno 16554 bound_to 11466
   11.2717    5.8733   29.7274 LP  0  0  0  0  0  0  0  0  0  0  0  0  # atno 16555 bound_to 11358
   13.3690    7.6121   35.2094 LP  0  0  0  0  0  0  0  0  0  0  0  0  # atno 16556 bound_to 11538
   12.4216    8.9110   34.9230 LP  0  0  0  0  0  0  0  0  0  0  0  0  # atno 16557 bound_to 11538
   18.1571    8.6139   37.9312 LP  0  0  0  0  0  0  0  0  0  0  0  0  # atno 16558 bound_to 9314
   16.6405    9.0851   38.6225 LP  0  0  0  0  0  0  0  0  0  0  0  0  # atno 16559 bound_to 9314
   17.3301    6.5250   40.3315 LP  0  0  0  0  0  0  0  0  0  0  0  0  # atno 16560 bound_to 9335
   15.5850    4.1676   38.9484 LP  0  0  0  0  0  0  0  0  0  0  0  0  # atno 16561 bound_to 9338
   16.7563    4.7852   40.0650 LP  0  0  0  0  0  0  0  0  0  0  0  0  # atno 16562 bound_to 9338
   20.4494    6.7157   38.8736 LP  0  0  0  0  0  0  0  0  0  0  0  0  # atno 16563 bound_to 9341
   21.1552    5.6429   37.8648 LP  0  0  0  0  0  0  0  0  0  0  0  0  # atno 16564 bound_to 9341
   13.8944    2.4828   38.5319 LP  0  0  0  0  0  0  0  0  0  0  0  0  # atno 16565 bound_to 9380
   12.9737    3.4075   37.3928 LP  0  0  0  0  0  0  0  0  0  0  0  0  # atno 16566 bound_to 9380
   16.6416    1.8372   39.0321 LP  0  0  0  0  0  0  0  0  0  0  0  0  # atno 16567 bound_to 9469
   30.1214   -4.7608   37.6134 LP  0  0  0  0  0  0  0  0  0  0  0  0  # atno 16570 bound_to 5709
   28.9370   -3.6011   37.1112 LP  0  0  0  0  0  0  0  0  0  0  0  0  # atno 16571 bound_to 5709
   25.4475    1.1930   40.9045 LP  0  0  0  0  0  0  0  0  0  0  0  0  # atno 16574 bound_to 7822
   28.7742    4.6462   41.6110 LP  0  0  0  0  0  0  0  0  0  0  0  0  # atno 16575 bound_to 7825
   29.6935    3.3151   42.2299 LP  0  0  0  0  0  0  0  0  0  0  0  0  # atno 16576 bound_to 7825
   29.5370   -1.9715   41.4751 LP  0  0  0  0  0  0  0  0  0  0  0  0  # atno 16579 bound_to 5706
   31.3681   -1.7295   38.2855 LP  0  0  0  0  0  0  0  0  0  0  0  0  # atno 16580 bound_to 5761
   33.5170   -2.0959   35.9092 LP  0  0  0  0  0  0  0  0  0  0  0  0  # atno 16581 bound_to 5766
   35.1006   -2.4097   36.1545 LP  0  0  0  0  0  0  0  0  0  0  0  0  # atno 16582 bound_to 5766
   28.6834    0.5550   42.0026 LP  0  0  0  0  0  0  0  0  0  0  0  0  # atno 16583 bound_to 7781
   28.0935   -0.2025   43.4442 LP  0  0  0  0  0  0  0  0  0  0  0  0  # atno 16584 bound_to 7781
   27.3466    3.2977   42.2087 LP  0  0  0  0  0  0  0  0  0  0  0  0  # atno 16585 bound_to 7866
   14.2805   -0.7682   38.5413 LP  0  0  0  0  0  0  0  0  0  0  0  0  # atno 16593 bound_to 9424
   14.9777   -0.4966   40.1034 LP  0  0  0  0  0  0  0  0  0  0  0  0  # atno 16594 bound_to 9424
   21.1536   -2.3349   42.2315 LP  0  0  0  0  0  0  0  0  0  0  0  0  # atno 16595 bound_to 9480
   21.0043   -2.5536   40.6201 LP  0  0  0  0  0  0  0  0  0  0  0  0  # atno 16596 bound_to 9480
   20.5082    2.9291   42.9574 LP  0  0  0  0  0  0  0  0  0  0  0  0  # atno 16597 bound_to 7659
   19.3272    2.3581   44.0884 LP  0  0  0  0  0  0  0  0  0  0  0  0  # atno 16598 bound_to 7659
   25.0414    1.1216   44.7664 LP  0  0  0  0  0  0  0  0  0  0  0  0  # atno 16599 bound_to 7717
   25.2289    2.1836   43.4110 LP  0  0  0  0  0  0  0  0  0  0  0  0  # atno 16600 bound_to 7717
   21.7657    1.3417   45.1877 LP  0  0  0  0  0  0  0  0  0  0  0  0  # atno 16601 bound_to 7714
   17.5427   -5.6319   41.6807 LP  0  0  0  0  0  0  0  0  0  0  0  0  # atno 16602 bound_to 10532
   19.1041   -5.1683   42.2699 LP  0  0  0  0  0  0  0  0  0  0  0  0  # atno 16603 bound_to 10532
   16.6746   10.3510   41.7857 LP  0  0  0  0  0  0  0  0  0  0  0  0  # atno 16604 bound_to 9311
   27.6247   11.2427   25.1810 LP  0  0  0  0  0  0  0  0  0  0  0  0  # atno 16607 bound_to 15310
   27.7204   10.9279   26.7805 LP  0  0  0  0  0  0  0  0  0  0  0  0  # atno 16608 bound_to 15310
   17.1379    7.8500   44.8278 LP  0  0  0  0  0  0  0  0  0  0  0  0  # atno 16611 bound_to 7554
   18.7051    8.5785   44.7143 LP  0  0  0  0  0  0  0  0  0  0  0  0  # atno 16612 bound_to 7554
   21.8245    4.4396   43.8337 LP  0  0  0  0  0  0  0  0  0  0  0  0  # atno 16613 bound_to 7623
   22.7787    5.4590   44.8586 LP  0  0  0  0  0  0  0  0  0  0  0  0  # atno 16614 bound_to 7623
   13.3406   11.4416   41.2756 LP  0  0  0  0  0  0  0  0  0  0  0  0  # atno 16615 bound_to 9280
   15.9168    8.6851   42.8254 LP  0  0  0  0  0  0  0  0  0  0  0  0  # atno 16616 bound_to 9283
   14.3996    9.3111   42.2720 LP  0  0  0  0  0  0  0  0  0  0  0  0  # atno 16617 bound_to 9283
   15.0452   13.9597   40.9075 LP  0  0  0  0  0  0  0  0  0  0  0  0  # atno 16618 bound_to 9228
   13.6094   14.3838   40.0365 LP  0  0  0  0  0  0  0  0  0  0  0  0  # atno 16619 bound_to 9228
   19.6148    7.5797   47.1291 LP  0  0  0  0  0  0  0  0  0  0  0  0  # atno 16620 bound_to 7620
   11.6149   14.0441   43.2394 LP  0  0  0  0  0  0  0  0  0  0  0  0  # atno 16628 bound_to 9225
   14.0753    3.3035   40.0117 LP  0  0  0  0  0  0  0  0  0  0  0  0  # atno 16635 bound_to 9528
   22.9424   20.4687   36.7732 LP  0  0  0  0  0  0  0  0  0  0  0  0  # atno 16636 bound_to 3357
   24.3533   19.8555   37.5689 LP  0  0  0  0  0  0  0  0  0  0  0  0  # atno 16637 bound_to 3357
   21.7034   20.7726   39.4603 LP  0  0  0  0  0  0  0  0  0  0  0  0  # atno 16638 bound_to 3415
   22.1670   21.2475   41.0601 LP  0  0  0  0  0  0  0  0  0  0  0  0  # atno 16639 bound_to 3415
   25.0696   23.3647   37.6059 LP  0  0  0  0  0  0  0  0  0  0  0  0  # atno 16640 bound_to 3412
   23.9131   21.3994   39.3391 LP  0  0  0  0  0  0  0  0  0  0  0  0  # atno 16641 bound_to 3478
    9.1263   13.7124   43.6888 LP  0  0  0  0  0  0  0  0  0  0  0  0  # atno 16646 bound_to 9102
    8.3496   15.2576   43.5937 LP  0  0  0  0  0  0  0  0  0  0  0  0  # atno 16647 bound_to 9102
    9.8447   15.8294   45.5639 LP  0  0  0  0  0  0  0  0  0  0  0  0  # atno 16648 bound_to 9168
   14.8465   15.9354   47.0285 LP  0  0  0  0  0  0  0  0  0  0  0  0  # atno 16649 bound_to 9178
   14.8863   17.1804   48.0845 LP  0  0  0  0  0  0  0  0  0  0  0  0  # atno 16650 bound_to 9178
   10.3218   24.9154   36.9295 LP  0  0  0  0  0  0  0  0  0  0  0  0  # atno 16654 bound_to 6255
    9.5613   24.5697   35.5263 LP  0  0  0  0  0  0  0  0  0  0  0  0  # atno 16655 bound_to 6255
   12.5801   18.3055   48.6645 LP  0  0  0  0  0  0  0  0  0  0  0  0  # atno 16656 bound_to 9176
   11.7591   18.6281   47.2902 LP  0  0  0  0  0  0  0  0  0  0  0  0  # atno 16657 bound_to 9176

> <Gold.Score>
     Fitness  S(hb_ext) S(vdw_ext)  S(hb_int)    S(int)      intcor
     32.38       6.85      18.69       0.00      -0.17      -0.76

> <Gold.Goldscore.Fitness>
32.3803

> <Gold.Goldscore.Internal.Vdw>
-0.4230

> <Gold.Goldscore.Internal.Torsion>
-0.5100

> <Gold.Goldscore.External.Vdw>
18.6929

> <Gold.Goldscore.Internal.HBond>
0.0000

> <Gold.Goldscore.External.HBond>
6.8520

> <Gold.Goldscore.Internal.Correction>
-0.7585

> <Gold.Goldscore.Hbonds>
donor molecule, donor type, donor heavy atom, donor atom, acceptor molecule, acceptor atom, score
      P1  H  5975  6022       L1     9  1.00
      P1  H  5978  6026       L1     9  0.03
      P1  H  5795  5837       L1     9  0.33

> <Gold.Goldscore.Internal.Vdw.Weighted>
-0.4230

> <Gold.Goldscore.Internal.Torsion.Weighted>
-0.5100

> <Gold.Goldscore.External.Vdw.Weighted>
25.7028

> <Gold.Goldscore.Internal.HBond.Weighted>
0.0000

> <Gold.Goldscore.External.HBond.Weighted>
6.8520

> <Gold.Goldscore.Internal.Correction.Weighted>
-0.7585

> <Gold.Rescore>
     Score     S(PLP)   S(hbond)     S(cho)   S(metal)  DE(clash)   DE(tors)     intcor
     28.00     -22.35       1.94       0.00       0.00       0.00       0.09       ----

> <Gold.PLP.Fitness>
27.9961

> <Gold.PLP.PLP>
-22.3500

> <Gold.PLP.part.hbond>
-2.1482

> <Gold.PLP.part.metal>
0.0000

> <Gold.PLP.part.buried>
-5.3502

> <Gold.PLP.part.nonpolar>
-16.4504

> <Gold.PLP.part.repulsive>
0.0801

> <Gold.PLP.ligand.clash>
0.0000

> <Gold.PLP.ligand.torsion>
0.0907

> <Gold.PLP.Chemscore.Hbond>
1.9425

> <Gold.PLP.Chemscore.CHOScore>
0.0000

> <Gold.PLP.Chemscore.Metal>
0.0000

> <Gold.Chemscore.Hbonds>
donor molecule, donor type, donor heavy atom, donor atom, acceptor molecule, acceptor atom, score
      P1  H  5975  6022       L1     9  1.00
      P1  H  5795  5837       L1     9  0.72

> <Gold.PLP.Chemscore.Internal.Correction>
   9.000000E+99

