#       Name:                CT1002167954
#       Creating user name   hitesit
#       Creation time:       Sun Apr 16 20:19:51 2023


#       File generated by GOLD software.
#

@<TRIPOS>MOLECULE
CT1002167954|ligand_prepared|mol2|1|dock1
    29    30     1
SMALL
NO_CHARGES


@<TRIPOS>ATOM
      1 C1          18.3371  16.0157  32.8432 C.3            1 RES1               0.0000
      2 C2          17.2647  17.0892  32.5670 C.ar           1 RES1               0.0000
      3 C3          18.7756  16.2108  34.2916 C.2            1 RES1               0.0000
      4 C4          17.6742  14.6702  32.5697 C.2            1 RES1               0.0000
      5 C5          19.5827  16.1283  31.9335 C.3            1 RES1               0.0000
      6 C6          16.7204  17.8320  33.6104 C.ar           1 RES1               0.0000
      7 C7          16.8124  17.3495  31.2761 C.ar           1 RES1               0.0000
      8 N8          18.3470  15.2982  35.2099 N.am           1 RES1               0.0000
      9 O9          19.4543  17.1727  34.6297 O.2            1 RES1               0.0000
     10 N10         17.4939  13.8167  33.6264 N.am           1 RES1               0.0000
     11 O11         17.2913  14.3483  31.4516 O.2            1 RES1               0.0000
     12 C12         20.6380  15.0678  32.2049 C.3            1 RES1               0.0000
     13 C13         15.7609  18.8019  33.3718 C.ar           1 RES1               0.0000
     14 C14         15.8526  18.3198  31.0397 C.ar           1 RES1               0.0000
     15 C15         17.7724  14.0822  34.9395 C.2            1 RES1               0.0000
     16 C16         15.3267  19.0468  32.0865 C.ar           1 RES1               0.0000
     17 O17         17.5315  13.2842  35.8408 O.2            1 RES1               0.0000
     18 H18         19.2638  16.0495  30.8868 H              1 RES1               0.0000
     19 H19         20.0334  17.1187  32.0730 H              1 RES1               0.0000
     20 H20         17.0480  17.6517  34.6289 H              1 RES1               0.0000
     21 H21         17.2112  16.7891  30.4374 H              1 RES1               0.0000
     22 H22         18.4645  15.5423  36.1881 H              1 RES1               0.0000
     23 H23         17.1174  12.8982  33.4146 H              1 RES1               0.0000
     24 H24         21.4900  15.1923  31.5398 H              1 RES1               0.0000
     25 H25         20.9960  15.1333  33.2302 H              1 RES1               0.0000
     26 H26         20.2310  14.0705  32.0511 H              1 RES1               0.0000
     27 H27         15.3492  19.3704  34.1992 H              1 RES1               0.0000
     28 H28         15.5134  18.5087  30.0266 H              1 RES1               0.0000
     29 H29         14.5753  19.8069  31.8998 H              1 RES1               0.0000
@<TRIPOS>BOND
    1    1    2 1     
    2    1    3 1     
    3    1    4 1     
    4    1    5 1     
    5    2    6 ar    
    6    2    7 ar    
    7    3    8 1     
    8    3    9 2     
    9    4   10 1     
   10    4   11 2     
   11    5   12 1     
   12    5   18 1     
   13    5   19 1     
   14    6   13 ar    
   15    6   20 1     
   16    7   14 ar    
   17    7   21 1     
   18    8   15 1     
   19    8   22 1     
   20   10   15 1     
   21   10   23 1     
   22   12   24 1     
   23   12   25 1     
   24   12   26 1     
   25   13   16 ar    
   26   13   27 1     
   27   14   16 ar    
   28   14   28 1     
   29   15   17 2     
   30   16   29 1     
@<TRIPOS>SUBSTRUCTURE
      1 RES1           1
@<TRIPOS>SET
DONOR_HYDROGENS      STATIC     ATOMS    <user>   **** ""
2 22 23
ATOM$RED        STATIC     ATOMS    COLORGROUP SYSTEM
2 22 23
@<TRIPOS>COMMENT
> <Gold.Version>
2022.3.0

> <Gold.Id.Protein>
unknown|3mvj_clean|pdb

> <Gold.Protein.RotatedTorsions>
[ 10968 10947 10946 10944 ] final -135.67 input   60.01 | X-H torsion
[ 10728 10707 10706 10704 ] final   72.99 input   59.96 | X-H torsion
[ 10960 10936 10937 10938 ] final   41.38 input   23.31 | X-H torsion
[ 12092 12045 12046 12047 ] final  100.87 input   63.71 | X-H torsion
[ 15542 15533 15534 15535 ] final   22.22 input   83.29 | X-H torsion
[ 15588 15579 15580 15581 ] final   -7.00 input  107.67 | X-H torsion
[ 15633 15624 15625 15626 ] final -176.66 input   84.82 | X-H torsion
[ 10915 10907 10908 10909 ] final  118.01 input  -87.38 | X-H torsion
[ 6151 6129 6130 6131 ] final -110.71 input   27.76 | X-H torsion
[ 6109 6101 6102 6103 ] final   43.95 input  -93.79 | X-H torsion
[ 5929 5907 5908 5909 ] final  165.65 input  119.25 | X-H torsion
[ 6001 5979 5980 5981 ] final  -17.85 input  112.51 | X-H torsion
[ 6064 6048 6049 6050 ] final  136.41 input  108.26 | X-H torsion
[ 11206 11196 11197 11198 ] final -112.82 input   -0.63 | X-H torsion
[ 11253 11229 11230 11231 ] final  -33.95 input  120.69 | X-H torsion
[ 11164 11142 11143 11144 ] final  -22.03 input   33.88 | X-H torsion
[ 11104 11082 11083 11084 ] final   44.28 input   45.00 | X-H torsion
[ 11300 11266 11267 11268 ] final  102.10 input   49.58 | X-H torsion
[ 9451 9421 9422 9423 ] final   21.39 input  116.39 | X-H torsion
[ 11504 11466 11467 11468 ] final  -53.58 input  126.08 | X-H torsion
[ 11396 11358 11359 11360 ] final  -21.10 input   98.08 | X-H torsion
[ 11577 11538 11537 11535 ] final   85.70 input   60.01 | X-H torsion
[ 9363 9335 9336 9337 ] final -178.31 input   84.14 | X-H torsion
[ 9369 9341 9339 9336 ] final   73.11 input   60.02 | X-H torsion
[ 9511 9469 9470 9471 ] final -143.85 input   75.21 | X-H torsion
[ 7840 7822 7823 7824 ] final -149.67 input  121.36 | X-H torsion
[ 7742 7722 7721 7720 ] final  113.74 input   60.01 | X-H torsion
[ 5728 5706 5707 5708 ] final   26.66 input  119.20 | X-H torsion
[ 5773 5761 5762 5763 ] final  109.20 input  120.20 | X-H torsion
[ 5777 5766 5765 5762 ] final   31.93 input   59.99 | X-H torsion
[ 7882 7866 7867 7868 ] final  -69.34 input   81.17 | X-H torsion
[ 9519 9480 9479 9477 ] final  123.27 input   60.03 | X-H torsion
[ 7732 7714 7715 7716 ] final  -48.50 input  -10.67 | X-H torsion
[ 15096 15054 15053 15052 ] final  -41.10 input   60.01 | X-H torsion
[ 9325 9311 9312 9313 ] final  -84.50 input  -66.31 | X-H torsion
[ 15182 15161 15160 15159 ] final   81.18 input   59.99 | X-H torsion
[ 15326 15310 15309 15306 ] final  -38.62 input   59.99 | X-H torsion
[ 9302 9280 9281 9282 ] final   42.53 input   22.77 | X-H torsion
[ 7636 7620 7621 7622 ] final  -50.08 input   34.37 | X-H torsion
[ 9263 9225 9226 9227 ] final -142.90 input   96.07 | X-H torsion
[ 9566 9528 9529 9530 ] final  -14.55 input   99.68 | X-H torsion
[ 3444 3412 3413 3414 ] final   95.75 input -120.58 | X-H torsion
[ 3506 3478 3479 3480 ] final  -46.28 input   70.69 | X-H torsion
[ 9208 9168 9169 9170 ] final    8.50 input  115.65 | X-H torsion
[ 9216 9178 9175 9174 ] final  -62.67 input   59.98 | X-H torsion
[ 6271 6255 6254 6251 ] final -108.92 input   60.00 | X-H torsion
[ 9214 9176 9175 9174 ] final   38.77 input   60.01 | X-H torsion
[ 12154 12142 12143 12144 ] final  113.90 input  108.55 | X-H torsion
[ 12021 11973 11974 11975 ] final   51.22 input   68.31 | X-H torsion
[ 11450 11416 11417 11418 ] final  124.67 input  102.35 | X-H torsion
[ 5632 5608 5609 5610 ] final  101.97 input  119.09 | X-H torsion
[ 10774 10756 10757 10758 ] final -143.97 input  129.22 | X-H torsion
[ 10816 10800 10801 10802 ] final   53.90 input  128.85 | X-H torsion
[ 8641 8619 8620 8621 ] final   70.05 input   87.35 | X-H torsion
[ 3661 3632 3633 3634 ] final  -25.45 input  116.97 | X-H torsion
[ 10029 10008 10007 10005 ] final   47.36 input   60.01 | X-H torsion
[ 16458 15536 15535 15534 ] final  123.27 input    0.00 | X-H torsion
[ 16468 10881 10880 10879 ] final  169.79 input    0.00 | X-H torsion
[ 16470 10910 10909 10908 ] final  -90.33 input    0.00 | X-H torsion
[ 16473 10997 10996 10995 ] final  130.31 input    0.00 | X-H torsion
[ 16475 11976 11975 11974 ] final -164.96 input    0.00 | X-H torsion
[ 16477 12048 12047 12046 ] final   27.53 input    0.00 | X-H torsion
[ 16480 10939 10938 10937 ] final  -55.41 input   -0.00 | X-H torsion
[ 16483 11039 11038 11037 ] final   76.68 input    0.00 | X-H torsion
[ 16492 15582 15581 15580 ] final   21.86 input    0.00 | X-H torsion
[ 16496 6104 6103 6102 ] final   57.29 input    0.00 | X-H torsion
[ 16499 5910 5909 5908 ] final   35.29 input   -0.00 | X-H torsion
[ 16502 5850 5849 5848 ] final  147.71 input    0.00 | X-H torsion
[ 16505 6051 6050 6049 ] final  113.83 input    0.00 | X-H torsion
[ 16507 5982 5981 5980 ] final -112.62 input    0.00 | X-H torsion
[ 16511 11145 11144 11143 ] final   43.41 input    0.00 | X-H torsion
[ 16514 11199 11198 11197 ] final  155.89 input    0.00 | X-H torsion
[ 16530 11085 11084 11083 ] final   -1.56 input   -0.00 | X-H torsion
[ 16538 11232 11231 11230 ] final  145.96 input    0.00 | X-H torsion
[ 16549 11269 11268 11267 ] final   50.45 input   -0.00 | X-H torsion
[ 16552 11318 11317 11316 ] final  117.85 input    0.00 | X-H torsion
[ 16558 9314 9313 9312 ] final  113.61 input    0.00 | X-H torsion
[ 16561 9338 9337 9336 ] final  103.75 input    0.00 | X-H torsion
[ 16565 9380 9379 9378 ] final  -59.76 input    0.00 | X-H torsion
[ 16570 5709 5708 5707 ] final  -14.89 input    0.00 | X-H torsion
[ 16575 7825 7824 7823 ] final   56.78 input    0.00 | X-H torsion
[ 16583 7781 7780 7779 ] final -134.51 input   -0.00 | X-H torsion
[ 16593 9424 9423 9422 ] final    6.66 input   -0.00 | X-H torsion
[ 16597 7659 7658 7657 ] final  110.74 input   -0.00 | X-H torsion
[ 16599 7717 7716 7715 ] final  -75.16 input    0.00 | X-H torsion
[ 16602 10532 10531 10530 ] final  105.15 input    0.00 | X-H torsion
[ 16611 7554 7553 7552 ] final   -3.75 input    0.00 | X-H torsion
[ 16613 7623 7622 7621 ] final  143.86 input   -0.00 | X-H torsion
[ 16616 9283 9282 9281 ] final   38.17 input    0.00 | X-H torsion
[ 16618 9228 9227 9226 ] final  -59.98 input   -0.00 | X-H torsion
[ 16636 3357 3356 3355 ] final  149.21 input   -0.00 | X-H torsion
[ 16638 3415 3414 3413 ] final  -22.32 input   -0.00 | X-H torsion
[ 16646 9102 9101 9100 ] final  -19.66 input    0.00 | X-H torsion

> <Gold.Protein.ActiveResidues>
 ARG45   SER53   PHE54   LEU82   LYS83   GLN84   GLU86   HIS87   GLU127  PHE129 
 SER130  HIS131  LEU132  ARG133  ARG134  ILE135  GLY136  ARG137  PHE138  SER139 
 HIS142  ARG165  ASP166  LEU167  LYS168  PRO169  GLU170  ASN171  ASP184  GLY186 
 PHE187  TRP196  TPO197  LEU198  CYS199  GLY200  THR201  PRO202  GLU203  TYR204 
 LEU205  ILE209  ILE210  TYR215  VAL226  LEU227  TYR229  GLU230  MET231  ALA233 
 GLY234  TYR235  PRO236  PRO237  PHE238  PHE239  ALA240  ASP241  GLN242  PRO243 
 ILE244  GLN245  ILE246  TYR247  LYS249  ARG256  PHE257  PRO258  SER259  HIS260 
 PRO313  PHE314  ILE315  LYS317  LYS319  SER325  ASN326  ASP328  ASP329  GLU331 
 GLU332  GLU333  GLU334 

> <Gold.Protein.RotatedAtoms>
   24.1218   22.2410   36.6712 H   0  0  0  0  0  0  0  0  0  0  0  0  # atno 3444 bound_to 3412
   23.9652   22.4463   40.2592 H   0  0  0  0  0  0  0  0  0  0  0  0  # atno 3506 bound_to 3478
   23.6399   20.3655   46.1308 H   0  0  0  0  0  0  0  0  0  0  0  0  # atno 3661 bound_to 3632
   35.8729   -0.9413   41.4878 H   0  0  0  0  0  0  0  0  0  0  0  0  # atno 5632 bound_to 5608
   31.0794   -2.2541   40.7166 H   0  0  0  0  0  0  0  0  0  0  0  0  # atno 5728 bound_to 5706
   31.9098   -2.1325   39.1266 H   0  0  0  0  0  0  0  0  0  0  0  0  # atno 5773 bound_to 5761
   33.4463   -1.6041   36.2551 H   0  0  0  0  0  0  0  0  0  0  0  0  # atno 5777 bound_to 5766
   28.8111   -5.8791   37.1446 H   0  0  0  0  0  0  0  0  0  0  0  0  # atno 5929 bound_to 5907
   30.4653   -8.2885   35.4708 H   0  0  0  0  0  0  0  0  0  0  0  0  # atno 6001 bound_to 5979
   32.1265   -9.8270   37.0660 H   0  0  0  0  0  0  0  0  0  0  0  0  # atno 6064 bound_to 6048
   29.5088  -11.6382   36.8151 H   0  0  0  0  0  0  0  0  0  0  0  0  # atno 6109 bound_to 6101
   27.2269  -11.5954   37.3383 H   0  0  0  0  0  0  0  0  0  0  0  0  # atno 6151 bound_to 6129
   10.9676   23.8065   36.2655 H   0  0  0  0  0  0  0  0  0  0  0  0  # atno 6271 bound_to 6255
   18.7071    6.1447   46.7720 H   0  0  0  0  0  0  0  0  0  0  0  0  # atno 7636 bound_to 7620
   22.6482    1.3640   45.3154 H   0  0  0  0  0  0  0  0  0  0  0  0  # atno 7732 bound_to 7714
   23.3898    6.4345   41.6998 H   0  0  0  0  0  0  0  0  0  0  0  0  # atno 7742 bound_to 7722
   22.4786    6.9116   40.4005 H   0  0  0  0  0  0  0  0  0  0  0  0  # atno 7743 bound_to 7722
   21.8898    5.7737   41.4524 H   0  0  0  0  0  0  0  0  0  0  0  0  # atno 7744 bound_to 7722
   26.3339    0.3319   40.7043 H   0  0  0  0  0  0  0  0  0  0  0  0  # atno 7840 bound_to 7822
   27.7994    2.6941   42.5201 H   0  0  0  0  0  0  0  0  0  0  0  0  # atno 7882 bound_to 7866
   22.6214   12.3212   47.0001 H   0  0  0  0  0  0  0  0  0  0  0  0  # atno 8641 bound_to 8619
   10.2896   14.2711   45.7269 H   0  0  0  0  0  0  0  0  0  0  0  0  # atno 9208 bound_to 9168
   11.8019   18.6597   47.2370 H   0  0  0  0  0  0  0  0  0  0  0  0  # atno 9214 bound_to 9176
   14.8622   16.0232   46.7826 H   0  0  0  0  0  0  0  0  0  0  0  0  # atno 9216 bound_to 9178
   10.9279   14.1122   42.9253 H   0  0  0  0  0  0  0  0  0  0  0  0  # atno 9263 bound_to 9225
   13.6656   11.4230   42.6756 H   0  0  0  0  0  0  0  0  0  0  0  0  # atno 9302 bound_to 9280
   17.6819   10.7818   40.6941 H   0  0  0  0  0  0  0  0  0  0  0  0  # atno 9325 bound_to 9311
   18.8753    7.2734   40.0816 H   0  0  0  0  0  0  0  0  0  0  0  0  # atno 9363 bound_to 9335
   20.7186    6.1910   39.6086 H   0  0  0  0  0  0  0  0  0  0  0  0  # atno 9369 bound_to 9341
   16.1736    3.0908   37.6206 H   0  0  0  0  0  0  0  0  0  0  0  0  # atno 9451 bound_to 9421
   16.0534    1.0145   38.9832 H   0  0  0  0  0  0  0  0  0  0  0  0  # atno 9511 bound_to 9469
   21.1819   -2.3150   42.1936 H   0  0  0  0  0  0  0  0  0  0  0  0  # atno 9519 bound_to 9480
   13.7451    2.1630   41.0926 H   0  0  0  0  0  0  0  0  0  0  0  0  # atno 9566 bound_to 9528
   12.4108   12.5428   46.0112 H   0  0  0  0  0  0  0  0  0  0  0  0  # atno 10029 bound_to 10008
   14.6321  -11.6669   37.1508 H   0  0  0  0  0  0  0  0  0  0  0  0  # atno 10728 bound_to 10707
   18.2388   -7.6782   40.7152 H   0  0  0  0  0  0  0  0  0  0  0  0  # atno 10774 bound_to 10756
   21.0722   -8.2007   42.1217 H   0  0  0  0  0  0  0  0  0  0  0  0  # atno 10816 bound_to 10800
   21.7771  -11.9047   37.6501 H   0  0  0  0  0  0  0  0  0  0  0  0  # atno 10915 bound_to 10907
   20.4859   -9.6437   36.8235 H   0  0  0  0  0  0  0  0  0  0  0  0  # atno 10960 bound_to 10936
   17.1807  -13.9094   35.3004 H   0  0  0  0  0  0  0  0  0  0  0  0  # atno 10968 bound_to 10947
   14.2915   -4.2721   36.8071 H   0  0  0  0  0  0  0  0  0  0  0  0  # atno 11104 bound_to 11082
   12.7011   -3.8396   32.9686 H   0  0  0  0  0  0  0  0  0  0  0  0  # atno 11164 bound_to 11142
   14.7347   -3.2023   30.0143 H   0  0  0  0  0  0  0  0  0  0  0  0  # atno 11206 bound_to 11196
   14.3815   -0.5114   27.6608 H   0  0  0  0  0  0  0  0  0  0  0  0  # atno 11253 bound_to 11229
   13.3393    1.6316   26.3910 H   0  0  0  0  0  0  0  0  0  0  0  0  # atno 11300 bound_to 11266
   11.3006    4.1883   30.1544 H   0  0  0  0  0  0  0  0  0  0  0  0  # atno 11396 bound_to 11358
   10.0270    3.2140   28.9090 H   0  0  0  0  0  0  0  0  0  0  0  0  # atno 11450 bound_to 11416
    9.6141    0.8797   31.0474 H   0  0  0  0  0  0  0  0  0  0  0  0  # atno 11504 bound_to 11466
   13.3335    7.7465   33.8780 H   0  0  0  0  0  0  0  0  0  0  0  0  # atno 11577 bound_to 11538
    9.8688  -10.4716   37.3439 H   0  0  0  0  0  0  0  0  0  0  0  0  # atno 12021 bound_to 11973
   10.3535  -14.4097   38.6936 H   0  0  0  0  0  0  0  0  0  0  0  0  # atno 12092 bound_to 12045
   15.3607  -18.7882   36.3220 H   0  0  0  0  0  0  0  0  0  0  0  0  # atno 12154 bound_to 12142
   27.2862   14.7815   34.0842 H   0  0  0  0  0  0  0  0  0  0  0  0  # atno 15096 bound_to 15054
   26.4193   16.1826   34.2658 H   0  0  0  0  0  0  0  0  0  0  0  0  # atno 15097 bound_to 15054
   26.3400   15.0019   35.4262 H   0  0  0  0  0  0  0  0  0  0  0  0  # atno 15098 bound_to 15054
   31.2086   10.7380   30.9257 H   0  0  0  0  0  0  0  0  0  0  0  0  # atno 15182 bound_to 15161
   32.7596   11.1138   31.3744 H   0  0  0  0  0  0  0  0  0  0  0  0  # atno 15183 bound_to 15161
   31.8137   12.2511   30.6259 H   0  0  0  0  0  0  0  0  0  0  0  0  # atno 15184 bound_to 15161
   27.3838   11.4028   25.1252 H   0  0  0  0  0  0  0  0  0  0  0  0  # atno 15326 bound_to 15310
    8.9449  -12.0875   27.6815 H   0  0  0  0  0  0  0  0  0  0  0  0  # atno 15542 bound_to 15533
    8.8340  -15.4181   27.2502 H   0  0  0  0  0  0  0  0  0  0  0  0  # atno 15588 bound_to 15579
   10.2918  -17.4436   29.4384 H   0  0  0  0  0  0  0  0  0  0  0  0  # atno 15633 bound_to 15624
   11.1201  -14.5655   28.6580 LP  0  0  0  0  0  0  0  0  0  0  0  0  # atno 16458 bound_to 15536
   11.3859  -15.1728   27.0579 LP  0  0  0  0  0  0  0  0  0  0  0  0  # atno 16459 bound_to 15536
   16.4699  -13.6019   33.8694 LP  0  0  0  0  0  0  0  0  0  0  0  0  # atno 16460 bound_to 10947
   15.8193  -13.0197   35.2494 LP  0  0  0  0  0  0  0  0  0  0  0  0  # atno 16461 bound_to 10947
   14.2696  -10.2103   36.5223 LP  0  0  0  0  0  0  0  0  0  0  0  0  # atno 16466 bound_to 10707
   13.2174  -10.9550   37.5248 LP  0  0  0  0  0  0  0  0  0  0  0  0  # atno 16467 bound_to 10707
   21.9445  -12.3782   35.7333 LP  0  0  0  0  0  0  0  0  0  0  0  0  # atno 16468 bound_to 10881
   20.9120  -13.5680   36.4534 LP  0  0  0  0  0  0  0  0  0  0  0  0  # atno 16469 bound_to 10881
   23.2705   -7.8008   35.1639 LP  0  0  0  0  0  0  0  0  0  0  0  0  # atno 16470 bound_to 10910
   22.6829   -8.9831   34.0428 LP  0  0  0  0  0  0  0  0  0  0  0  0  # atno 16471 bound_to 10910
   21.9726   -8.9908   36.1816 LP  0  0  0  0  0  0  0  0  0  0  0  0  # atno 16472 bound_to 10936
   15.6101   -7.4988   35.6741 LP  0  0  0  0  0  0  0  0  0  0  0  0  # atno 16473 bound_to 10997
   16.3103   -6.0645   35.0014 LP  0  0  0  0  0  0  0  0  0  0  0  0  # atno 16474 bound_to 10997
   12.6911  -12.0944   37.9723 LP  0  0  0  0  0  0  0  0  0  0  0  0  # atno 16475 bound_to 11976
   11.4223  -10.9634   37.6389 LP  0  0  0  0  0  0  0  0  0  0  0  0  # atno 16476 bound_to 11976
   11.5891  -16.0046   37.1547 LP  0  0  0  0  0  0  0  0  0  0  0  0  # atno 16477 bound_to 12048
   12.9149  -17.1139   37.2641 LP  0  0  0  0  0  0  0  0  0  0  0  0  # atno 16478 bound_to 12048
   18.4619   -9.0875   37.3450 LP  0  0  0  0  0  0  0  0  0  0  0  0  # atno 16480 bound_to 10939
   18.8385   -7.8095   38.4517 LP  0  0  0  0  0  0  0  0  0  0  0  0  # atno 16481 bound_to 10939
   11.3263   -6.6126   36.9611 LP  0  0  0  0  0  0  0  0  0  0  0  0  # atno 16483 bound_to 11039
   12.1210   -7.0000   35.4716 LP  0  0  0  0  0  0  0  0  0  0  0  0  # atno 16484 bound_to 11039
   11.1050  -13.4201   37.4662 LP  0  0  0  0  0  0  0  0  0  0  0  0  # atno 16485 bound_to 12045
    8.0653  -11.8832   26.1849 LP  0  0  0  0  0  0  0  0  0  0  0  0  # atno 16490 bound_to 15533
    8.2058  -14.2076   28.3521 LP  0  0  0  0  0  0  0  0  0  0  0  0  # atno 16491 bound_to 15579
    8.8056  -16.9306   26.8710 LP  0  0  0  0  0  0  0  0  0  0  0  0  # atno 16492 bound_to 15582
    8.8968  -18.6269   27.2089 LP  0  0  0  0  0  0  0  0  0  0  0  0  # atno 16493 bound_to 15582
    8.8382  -18.2923   29.9173 LP  0  0  0  0  0  0  0  0  0  0  0  0  # atno 16494 bound_to 15624
   21.6643  -10.3559   38.4589 LP  0  0  0  0  0  0  0  0  0  0  0  0  # atno 16495 bound_to 10907
   25.1565  -10.6653   35.9758 LP  0  0  0  0  0  0  0  0  0  0  0  0  # atno 16496 bound_to 6104
   25.6704  -10.0801   37.5229 LP  0  0  0  0  0  0  0  0  0  0  0  0  # atno 16497 bound_to 6104
   27.0408  -13.3285   37.2198 LP  0  0  0  0  0  0  0  0  0  0  0  0  # atno 16498 bound_to 6129
   29.0261   -8.4894   33.2087 LP  0  0  0  0  0  0  0  0  0  0  0  0  # atno 16499 bound_to 5910
   30.0523   -9.7014   33.9000 LP  0  0  0  0  0  0  0  0  0  0  0  0  # atno 16500 bound_to 5910
   29.6321  -10.5841   35.4309 LP  0  0  0  0  0  0  0  0  0  0  0  0  # atno 16501 bound_to 6101
   28.2269   -8.9452   36.3029 LP  0  0  0  0  0  0  0  0  0  0  0  0  # atno 16502 bound_to 5850
   29.0598   -9.6166   37.6650 LP  0  0  0  0  0  0  0  0  0  0  0  0  # atno 16503 bound_to 5850
   29.7251   -7.3611   37.2802 LP  0  0  0  0  0  0  0  0  0  0  0  0  # atno 16504 bound_to 5907
   28.7714  -13.7024   36.9376 LP  0  0  0  0  0  0  0  0  0  0  0  0  # atno 16505 bound_to 6051
   30.0003  -14.0381   35.7640 LP  0  0  0  0  0  0  0  0  0  0  0  0  # atno 16506 bound_to 6051
   31.4646  -11.8186   34.0687 LP  0  0  0  0  0  0  0  0  0  0  0  0  # atno 16507 bound_to 5982
   33.1750  -11.5519   34.1277 LP  0  0  0  0  0  0  0  0  0  0  0  0  # atno 16508 bound_to 5982
   31.5886   -6.9789   35.1741 LP  0  0  0  0  0  0  0  0  0  0  0  0  # atno 16509 bound_to 5979
   31.5811  -10.2859   35.4692 LP  0  0  0  0  0  0  0  0  0  0  0  0  # atno 16510 bound_to 6048
   12.2711   -4.0678   31.2509 LP  0  0  0  0  0  0  0  0  0  0  0  0  # atno 16511 bound_to 11145
   12.9793   -4.4093   29.7076 LP  0  0  0  0  0  0  0  0  0  0  0  0  # atno 16512 bound_to 11145
   14.5082   -1.5825   30.6531 LP  0  0  0  0  0  0  0  0  0  0  0  0  # atno 16513 bound_to 11196
   16.3774    0.0154   28.1155 LP  0  0  0  0  0  0  0  0  0  0  0  0  # atno 16514 bound_to 11199
   15.5022   -0.2587   29.5848 LP  0  0  0  0  0  0  0  0  0  0  0  0  # atno 16515 bound_to 11199
   13.9362   -1.4264   26.2330 LP  0  0  0  0  0  0  0  0  0  0  0  0  # atno 16516 bound_to 11229
   14.0879   -4.0969   33.9923 LP  0  0  0  0  0  0  0  0  0  0  0  0  # atno 16525 bound_to 11142
   14.3606   -2.0366   35.6793 LP  0  0  0  0  0  0  0  0  0  0  0  0  # atno 16530 bound_to 11085
   15.0144   -1.9496   34.0778 LP  0  0  0  0  0  0  0  0  0  0  0  0  # atno 16531 bound_to 11085
   13.2093   -5.6393   36.6532 LP  0  0  0  0  0  0  0  0  0  0  0  0  # atno 16533 bound_to 11082
   16.0039    3.4684   26.0502 LP  0  0  0  0  0  0  0  0  0  0  0  0  # atno 16538 bound_to 11232
   17.0477    2.0994   26.2410 LP  0  0  0  0  0  0  0  0  0  0  0  0  # atno 16539 bound_to 11232
   14.8790    1.7300   27.2293 LP  0  0  0  0  0  0  0  0  0  0  0  0  # atno 16542 bound_to 11266
   15.7096    2.7614   35.9718 LP  0  0  0  0  0  0  0  0  0  0  0  0  # atno 16548 bound_to 9421
   12.6868    1.8585   29.1294 LP  0  0  0  0  0  0  0  0  0  0  0  0  # atno 16549 bound_to 11269
   11.6264    3.1146   29.6750 LP  0  0  0  0  0  0  0  0  0  0  0  0  # atno 16550 bound_to 11269
   10.5918    4.6349   32.6706 LP  0  0  0  0  0  0  0  0  0  0  0  0  # atno 16552 bound_to 11318
   11.5085    3.2233   32.2620 LP  0  0  0  0  0  0  0  0  0  0  0  0  # atno 16553 bound_to 11318
   11.1199    1.7240   30.7517 LP  0  0  0  0  0  0  0  0  0  0  0  0  # atno 16554 bound_to 11466
   11.2725    5.8740   29.7303 LP  0  0  0  0  0  0  0  0  0  0  0  0  # atno 16555 bound_to 11358
   13.1300    7.9163   35.4833 LP  0  0  0  0  0  0  0  0  0  0  0  0  # atno 16556 bound_to 11538
   12.4108    8.9577   34.4514 LP  0  0  0  0  0  0  0  0  0  0  0  0  # atno 16557 bound_to 11538
   18.2137    8.7551   37.9992 LP  0  0  0  0  0  0  0  0  0  0  0  0  # atno 16558 bound_to 9314
   16.5840    8.9439   38.5545 LP  0  0  0  0  0  0  0  0  0  0  0  0  # atno 16559 bound_to 9314
   17.2403    6.6760   40.2304 LP  0  0  0  0  0  0  0  0  0  0  0  0  # atno 16560 bound_to 9335
   15.6096    5.1302   39.5950 LP  0  0  0  0  0  0  0  0  0  0  0  0  # atno 16561 bound_to 9338
   16.7317    3.8226   39.4184 LP  0  0  0  0  0  0  0  0  0  0  0  0  # atno 16562 bound_to 9338
   20.6671    6.4409   38.0012 LP  0  0  0  0  0  0  0  0  0  0  0  0  # atno 16563 bound_to 9341
   21.4229    5.1238   38.6016 LP  0  0  0  0  0  0  0  0  0  0  0  0  # atno 16564 bound_to 9341
   13.6384    3.5154   38.5813 LP  0  0  0  0  0  0  0  0  0  0  0  0  # atno 16565 bound_to 9380
   13.2297    2.3749   37.3435 LP  0  0  0  0  0  0  0  0  0  0  0  0  # atno 16566 bound_to 9380
   15.5175    2.6772   39.0917 LP  0  0  0  0  0  0  0  0  0  0  0  0  # atno 16567 bound_to 9469
   28.8199   -4.1697   37.8590 LP  0  0  0  0  0  0  0  0  0  0  0  0  # atno 16570 bound_to 5709
   30.2386   -4.1922   36.8656 LP  0  0  0  0  0  0  0  0  0  0  0  0  # atno 16571 bound_to 5709
   25.8206    1.3289   42.0428 LP  0  0  0  0  0  0  0  0  0  0  0  0  # atno 16574 bound_to 7822
   28.8998    4.4182   41.2519 LP  0  0  0  0  0  0  0  0  0  0  0  0  # atno 16575 bound_to 7825
   29.5679    3.5431   42.5891 LP  0  0  0  0  0  0  0  0  0  0  0  0  # atno 16576 bound_to 7825
   29.5225   -2.0798   41.4862 LP  0  0  0  0  0  0  0  0  0  0  0  0  # atno 16579 bound_to 5706
   30.5633   -2.8211   38.2482 LP  0  0  0  0  0  0  0  0  0  0  0  0  # atno 16580 bound_to 5761
   34.6322   -2.6390   35.8431 LP  0  0  0  0  0  0  0  0  0  0  0  0  # atno 16581 bound_to 5766
   34.9435   -1.3976   36.8574 LP  0  0  0  0  0  0  0  0  0  0  0  0  # atno 16582 bound_to 5766
   28.3785    1.0309   42.8631 LP  0  0  0  0  0  0  0  0  0  0  0  0  # atno 16583 bound_to 7781
   28.3984   -0.6784   42.5837 LP  0  0  0  0  0  0  0  0  0  0  0  0  # atno 16584 bound_to 7781
   26.0807    2.7501   42.8517 LP  0  0  0  0  0  0  0  0  0  0  0  0  # atno 16585 bound_to 7866
   14.6571   -0.9672   38.5242 LP  0  0  0  0  0  0  0  0  0  0  0  0  # atno 16593 bound_to 9424
   14.6010   -0.2976   40.1206 LP  0  0  0  0  0  0  0  0  0  0  0  0  # atno 16594 bound_to 9424
   20.9655   -2.5820   40.6029 LP  0  0  0  0  0  0  0  0  0  0  0  0  # atno 16595 bound_to 9480
   19.9332   -3.2292   41.6902 LP  0  0  0  0  0  0  0  0  0  0  0  0  # atno 16596 bound_to 9480
   20.4360    3.1804   43.0833 LP  0  0  0  0  0  0  0  0  0  0  0  0  # atno 16597 bound_to 7659
   19.3994    2.1068   43.9625 LP  0  0  0  0  0  0  0  0  0  0  0  0  # atno 16598 bound_to 7659
   25.0833    2.2797   43.4937 LP  0  0  0  0  0  0  0  0  0  0  0  0  # atno 16599 bound_to 7717
   25.1869    1.0255   44.6838 LP  0  0  0  0  0  0  0  0  0  0  0  0  # atno 16600 bound_to 7717
   21.7982    2.6373   44.4675 LP  0  0  0  0  0  0  0  0  0  0  0  0  # atno 16601 bound_to 7714
   18.7296   -4.6978   41.6724 LP  0  0  0  0  0  0  0  0  0  0  0  0  # atno 16602 bound_to 10532
   17.9172   -6.1025   42.2782 LP  0  0  0  0  0  0  0  0  0  0  0  0  # atno 16603 bound_to 10532
   16.1751   10.0725   41.2214 LP  0  0  0  0  0  0  0  0  0  0  0  0  # atno 16604 bound_to 9311
   27.9033   10.8458   26.5635 LP  0  0  0  0  0  0  0  0  0  0  0  0  # atno 16607 bound_to 15310
   26.5346   11.7320   26.4741 LP  0  0  0  0  0  0  0  0  0  0  0  0  # atno 16608 bound_to 15310
   17.2084    8.5700   45.1100 LP  0  0  0  0  0  0  0  0  0  0  0  0  # atno 16611 bound_to 7554
   18.6346    7.8585   44.4321 LP  0  0  0  0  0  0  0  0  0  0  0  0  # atno 16612 bound_to 7554
   22.6365    4.4267   44.9501 LP  0  0  0  0  0  0  0  0  0  0  0  0  # atno 16613 bound_to 7623
   21.9668    5.4719   43.7422 LP  0  0  0  0  0  0  0  0  0  0  0  0  # atno 16614 bound_to 7623
   13.4762   12.4137   41.2616 LP  0  0  0  0  0  0  0  0  0  0  0  0  # atno 16615 bound_to 9280
   14.4001    9.3024   42.2612 LP  0  0  0  0  0  0  0  0  0  0  0  0  # atno 16616 bound_to 9283
   15.9163    8.6938   42.8363 LP  0  0  0  0  0  0  0  0  0  0  0  0  # atno 16617 bound_to 9283
   13.8825   14.0073   39.7473 LP  0  0  0  0  0  0  0  0  0  0  0  0  # atno 16618 bound_to 9228
   14.7722   14.3363   41.1966 LP  0  0  0  0  0  0  0  0  0  0  0  0  # atno 16619 bound_to 9228
   19.5318    7.6514   47.0520 LP  0  0  0  0  0  0  0  0  0  0  0  0  # atno 16620 bound_to 7620
   12.2421   14.9463   42.1344 LP  0  0  0  0  0  0  0  0  0  0  0  0  # atno 16628 bound_to 9225
   14.5462    3.5670   40.4283 LP  0  0  0  0  0  0  0  0  0  0  0  0  # atno 16635 bound_to 9528
   23.5897   20.3823   38.0066 LP  0  0  0  0  0  0  0  0  0  0  0  0  # atno 16636 bound_to 3357
   23.7060   19.9419   36.3355 LP  0  0  0  0  0  0  0  0  0  0  0  0  # atno 16637 bound_to 3357
   21.4206   21.6468   39.9780 LP  0  0  0  0  0  0  0  0  0  0  0  0  # atno 16638 bound_to 3415
   22.4499   20.3733   40.5424 LP  0  0  0  0  0  0  0  0  0  0  0  0  # atno 16639 bound_to 3415
   25.1287   23.2501   37.6840 LP  0  0  0  0  0  0  0  0  0  0  0  0  # atno 16640 bound_to 3412
   24.9293   21.5048   39.1418 LP  0  0  0  0  0  0  0  0  0  0  0  0  # atno 16641 bound_to 3478
    8.0370   14.1201   43.9956 LP  0  0  0  0  0  0  0  0  0  0  0  0  # atno 16646 bound_to 9102
    9.4388   14.8499   43.2868 LP  0  0  0  0  0  0  0  0  0  0  0  0  # atno 16647 bound_to 9102
   10.2953   16.0009   45.9564 LP  0  0  0  0  0  0  0  0  0  0  0  0  # atno 16648 bound_to 9168
   14.8654   16.9243   48.1375 LP  0  0  0  0  0  0  0  0  0  0  0  0  # atno 16649 bound_to 9178
   14.9858   17.6422   46.6757 LP  0  0  0  0  0  0  0  0  0  0  0  0  # atno 16650 bound_to 9178
   10.0671   25.0536   36.7962 LP  0  0  0  0  0  0  0  0  0  0  0  0  # atno 16654 bound_to 6255
    9.7047   24.3252   35.3803 LP  0  0  0  0  0  0  0  0  0  0  0  0  # atno 16655 bound_to 6255
   13.3704   19.0210   47.4793 LP  0  0  0  0  0  0  0  0  0  0  0  0  # atno 16656 bound_to 9176
   12.5074   18.2878   48.6559 LP  0  0  0  0  0  0  0  0  0  0  0  0  # atno 16657 bound_to 9176

> <Gold.Score>
     Fitness  S(hb_ext) S(vdw_ext)  S(hb_int)    S(int)      intcor
     36.86       6.59      23.55       0.00      -2.10      -0.80

> <Gold.Goldscore.Fitness>
36.8609

> <Gold.Goldscore.Internal.Vdw>
-2.5360

> <Gold.Goldscore.Internal.Torsion>
-0.3665

> <Gold.Goldscore.External.Vdw>
23.5451

> <Gold.Goldscore.Internal.HBond>
0.0000

> <Gold.Goldscore.External.HBond>
6.5873

> <Gold.Goldscore.Internal.Correction>
-0.8016

> <Gold.Goldscore.Hbonds>
donor molecule, donor type, donor heavy atom, donor atom, acceptor molecule, acceptor atom, score
      P1  H  5975  6022       L1    11  0.86
      P1  H  5978  6026       L1    11  0.01
      P1  H  5795  5837       L1    11  0.67

> <Gold.Goldscore.Internal.Vdw.Weighted>
-2.5360

> <Gold.Goldscore.Internal.Torsion.Weighted>
-0.3665

> <Gold.Goldscore.External.Vdw.Weighted>
32.3746

> <Gold.Goldscore.Internal.HBond.Weighted>
0.0000

> <Gold.Goldscore.External.HBond.Weighted>
6.5873

> <Gold.Goldscore.Internal.Correction.Weighted>
-0.8016

> <Gold.Rescore>
     Score     S(PLP)   S(hbond)     S(cho)   S(metal)  DE(clash)   DE(tors)     intcor
     31.74     -31.23       0.86       0.00       0.00       2.06       0.00       ----

> <Gold.PLP.Fitness>
31.7409

> <Gold.PLP.PLP>
-31.2277

> <Gold.PLP.part.hbond>
-0.6039

> <Gold.PLP.part.metal>
0.0000

> <Gold.PLP.part.buried>
-1.8533

> <Gold.PLP.part.nonpolar>
-31.6753

> <Gold.PLP.part.repulsive>
0.1275

> <Gold.PLP.ligand.clash>
2.0619

> <Gold.PLP.ligand.torsion>
0.0043

> <Gold.PLP.Chemscore.Hbond>
0.8613

> <Gold.PLP.Chemscore.CHOScore>
0.0000

> <Gold.PLP.Chemscore.Metal>
0.0000

> <Gold.Chemscore.Hbonds>
donor molecule, donor type, donor heavy atom, donor atom, acceptor molecule, acceptor atom, score
      P1  H  5975  6022       L1    11  0.98
      P1  H  5795  5837       L1    11  0.47

> <Gold.PLP.Chemscore.Internal.Correction>
   9.000000E+99

