#       Name:                CT1002167954
#       Creating user name   hitesit
#       Creation time:       Sun Apr 16 20:20:13 2023


#       File generated by GOLD software.
#

@<TRIPOS>MOLECULE
CT1002167954|ligand_prepared|mol2|1|dock9
    29    30     1
SMALL
NO_CHARGES


@<TRIPOS>ATOM
      1 C1          11.6260  -9.2638  32.3291 C.3            1 RES1               0.0000
      2 C2          10.6329  -8.3915  33.1239 C.ar           1 RES1               0.0000
      3 C3          11.0127 -10.6593  32.2628 C.2            1 RES1               0.0000
      4 C4          11.7915  -8.5918  30.9705 C.2            1 RES1               0.0000
      5 C5          13.0238  -9.3720  32.9819 C.3            1 RES1               0.0000
      6 C6          10.9236  -7.0588  33.3996 C.ar           1 RES1               0.0000
      7 C7           9.4231  -8.9039  33.5848 C.ar           1 RES1               0.0000
      8 N8          10.4849 -11.0616  31.0714 N.am           1 RES1               0.0000
      9 O9          10.9574 -11.3806  33.2512 O.2            1 RES1               0.0000
     10 N10         11.3394  -9.2614  29.8637 N.am           1 RES1               0.0000
     11 O11         12.2941  -7.4813  30.8502 O.2            1 RES1               0.0000
     12 C12         13.9925 -10.2571  32.2135 C.3            1 RES1               0.0000
     13 C13         10.0358  -6.2660  34.1078 C.ar           1 RES1               0.0000
     14 C14          8.5368  -8.1094  34.2931 C.ar           1 RES1               0.0000
     15 C15         10.6658 -10.4524  29.8558 C.2            1 RES1               0.0000
     16 C16          8.8418  -6.7906  34.5547 C.ar           1 RES1               0.0000
     17 O17         10.2425 -10.9655  28.8240 O.2            1 RES1               0.0000
     18 H18         13.4538  -8.3662  33.0643 H              1 RES1               0.0000
     19 H19         12.9094  -9.7720  33.9970 H              1 RES1               0.0000
     20 H20         11.8595  -6.6292  33.0581 H              1 RES1               0.0000
     21 H21          9.1627  -9.9390  33.3917 H              1 RES1               0.0000
     22 H22          9.9017 -11.8923  31.0856 H              1 RES1               0.0000
     23 H23         11.5220  -8.8322  28.9621 H              1 RES1               0.0000
     24 H24         14.9574 -10.2986  32.7144 H              1 RES1               0.0000
     25 H25         13.6079 -11.2718  32.1342 H              1 RES1               0.0000
     26 H26         14.1492  -9.8745  31.2071 H              1 RES1               0.0000
     27 H27         10.2811  -5.2291  34.3122 H              1 RES1               0.0000
     28 H28          7.5984  -8.5266  34.6434 H              1 RES1               0.0000
     29 H29          8.1463  -6.1692  35.1091 H              1 RES1               0.0000
@<TRIPOS>BOND
    1    1    2 1     
    2    1    3 1     
    3    1    4 1     
    4    1    5 1     
    5    2    6 ar    
    6    2    7 ar    
    7    3    8 1     
    8    3    9 2     
    9    4   10 1     
   10    4   11 2     
   11    5   12 1     
   12    5   18 1     
   13    5   19 1     
   14    6   13 ar    
   15    6   20 1     
   16    7   14 ar    
   17    7   21 1     
   18    8   15 1     
   19    8   22 1     
   20   10   15 1     
   21   10   23 1     
   22   12   24 1     
   23   12   25 1     
   24   12   26 1     
   25   13   16 ar    
   26   13   27 1     
   27   14   16 ar    
   28   14   28 1     
   29   15   17 2     
   30   16   29 1     
@<TRIPOS>SUBSTRUCTURE
      1 RES1           1
@<TRIPOS>SET
DONOR_HYDROGENS      STATIC     ATOMS    <user>   **** ""
2 22 23
ATOM$RED        STATIC     ATOMS    COLORGROUP SYSTEM
2 22 23
@<TRIPOS>COMMENT
> <Gold.Version>
2022.3.0

> <Gold.Id.Protein>
unknown|3mvj_clean|pdb

> <Gold.Protein.RotatedTorsions>
[ 10968 10947 10946 10944 ] final  -62.86 input   60.01 | X-H torsion
[ 10728 10707 10706 10704 ] final  -65.67 input   59.96 | X-H torsion
[ 10960 10936 10937 10938 ] final  157.52 input   23.31 | X-H torsion
[ 12092 12045 12046 12047 ] final   13.73 input   63.71 | X-H torsion
[ 15542 15533 15534 15535 ] final -102.87 input   83.29 | X-H torsion
[ 15588 15579 15580 15581 ] final  -67.37 input  107.67 | X-H torsion
[ 15633 15624 15625 15626 ] final  177.29 input   84.82 | X-H torsion
[ 10915 10907 10908 10909 ] final -175.43 input  -87.38 | X-H torsion
[ 6151 6129 6130 6131 ] final  -85.58 input   27.76 | X-H torsion
[ 6109 6101 6102 6103 ] final  -45.41 input  -93.79 | X-H torsion
[ 5929 5907 5908 5909 ] final  120.14 input  119.25 | X-H torsion
[ 6001 5979 5980 5981 ] final -110.50 input  112.51 | X-H torsion
[ 6064 6048 6049 6050 ] final  152.41 input  108.26 | X-H torsion
[ 11206 11196 11197 11198 ] final   59.11 input   -0.63 | X-H torsion
[ 11253 11229 11230 11231 ] final -145.84 input  120.69 | X-H torsion
[ 11164 11142 11143 11144 ] final  -84.75 input   33.88 | X-H torsion
[ 11104 11082 11083 11084 ] final   72.45 input   45.00 | X-H torsion
[ 11300 11266 11267 11268 ] final   10.89 input   49.58 | X-H torsion
[ 9451 9421 9422 9423 ] final   20.00 input  116.39 | X-H torsion
[ 11504 11466 11467 11468 ] final   14.05 input  126.08 | X-H torsion
[ 11396 11358 11359 11360 ] final   38.10 input   98.08 | X-H torsion
[ 11577 11538 11537 11535 ] final  -46.49 input   60.01 | X-H torsion
[ 9363 9335 9336 9337 ] final  -88.29 input   84.14 | X-H torsion
[ 9369 9341 9339 9336 ] final  -85.69 input   60.02 | X-H torsion
[ 9511 9469 9470 9471 ] final -135.21 input   75.21 | X-H torsion
[ 7840 7822 7823 7824 ] final   55.66 input  121.36 | X-H torsion
[ 7742 7722 7721 7720 ] final  134.93 input   60.01 | X-H torsion
[ 5728 5706 5707 5708 ] final -170.12 input  119.20 | X-H torsion
[ 5773 5761 5762 5763 ] final   69.92 input  120.20 | X-H torsion
[ 5777 5766 5765 5762 ] final  106.71 input   59.99 | X-H torsion
[ 7882 7866 7867 7868 ] final -173.11 input   81.17 | X-H torsion
[ 9519 9480 9479 9477 ] final  -25.48 input   60.03 | X-H torsion
[ 7732 7714 7715 7716 ] final   21.72 input  -10.67 | X-H torsion
[ 15096 15054 15053 15052 ] final -124.14 input   60.01 | X-H torsion
[ 9325 9311 9312 9313 ] final -150.68 input  -66.31 | X-H torsion
[ 15182 15161 15160 15159 ] final  -80.63 input   59.99 | X-H torsion
[ 15326 15310 15309 15306 ] final  -94.77 input   59.99 | X-H torsion
[ 9302 9280 9281 9282 ] final -129.07 input   22.77 | X-H torsion
[ 7636 7620 7621 7622 ] final  152.49 input   34.37 | X-H torsion
[ 9263 9225 9226 9227 ] final   60.85 input   96.07 | X-H torsion
[ 9566 9528 9529 9530 ] final -131.14 input   99.68 | X-H torsion
[ 3444 3412 3413 3414 ] final    1.57 input -120.58 | X-H torsion
[ 3506 3478 3479 3480 ] final  -53.28 input   70.69 | X-H torsion
[ 9208 9168 9169 9170 ] final  -50.80 input  115.65 | X-H torsion
[ 9216 9178 9175 9174 ] final  -27.53 input   59.98 | X-H torsion
[ 6271 6255 6254 6251 ] final -114.54 input   60.00 | X-H torsion
[ 9214 9176 9175 9174 ] final   89.50 input   60.01 | X-H torsion
[ 12154 12142 12143 12144 ] final    7.95 input  108.55 | X-H torsion
[ 12021 11973 11974 11975 ] final  109.14 input   68.31 | X-H torsion
[ 11450 11416 11417 11418 ] final  100.44 input  102.35 | X-H torsion
[ 5632 5608 5609 5610 ] final -138.63 input  119.09 | X-H torsion
[ 10774 10756 10757 10758 ] final -143.97 input  129.22 | X-H torsion
[ 10816 10800 10801 10802 ] final -158.39 input  128.85 | X-H torsion
[ 8641 8619 8620 8621 ] final -178.69 input   87.35 | X-H torsion
[ 3661 3632 3633 3634 ] final  133.48 input  116.97 | X-H torsion
[ 10029 10008 10007 10005 ] final  128.67 input   60.01 | X-H torsion
[ 16458 15536 15535 15534 ] final  -43.97 input    0.00 | X-H torsion
[ 16468 10881 10880 10879 ] final   95.47 input    0.00 | X-H torsion
[ 16470 10910 10909 10908 ] final   51.76 input    0.00 | X-H torsion
[ 16473 10997 10996 10995 ] final -145.44 input    0.00 | X-H torsion
[ 16475 11976 11975 11974 ] final  -49.46 input    0.00 | X-H torsion
[ 16477 12048 12047 12046 ] final -168.93 input    0.00 | X-H torsion
[ 16480 10939 10938 10937 ] final  179.51 input   -0.00 | X-H torsion
[ 16483 11039 11038 11037 ] final   -4.58 input    0.00 | X-H torsion
[ 16492 15582 15581 15580 ] final   41.59 input    0.00 | X-H torsion
[ 16496 6104 6103 6102 ] final  -13.15 input    0.00 | X-H torsion
[ 16499 5910 5909 5908 ] final -131.20 input   -0.00 | X-H torsion
[ 16502 5850 5849 5848 ] final  133.21 input    0.00 | X-H torsion
[ 16505 6051 6050 6049 ] final   43.07 input    0.00 | X-H torsion
[ 16507 5982 5981 5980 ] final  130.16 input    0.00 | X-H torsion
[ 16511 11145 11144 11143 ] final -173.60 input    0.00 | X-H torsion
[ 16514 11199 11198 11197 ] final -113.17 input    0.00 | X-H torsion
[ 16530 11085 11084 11083 ] final -159.72 input   -0.00 | X-H torsion
[ 16538 11232 11231 11230 ] final  -50.13 input    0.00 | X-H torsion
[ 16549 11269 11268 11267 ] final -121.48 input   -0.00 | X-H torsion
[ 16552 11318 11317 11316 ] final  -93.63 input    0.00 | X-H torsion
[ 16558 9314 9313 9312 ] final   20.54 input    0.00 | X-H torsion
[ 16561 9338 9337 9336 ] final  -23.23 input    0.00 | X-H torsion
[ 16565 9380 9379 9378 ] final -105.00 input    0.00 | X-H torsion
[ 16570 5709 5708 5707 ] final   39.78 input    0.00 | X-H torsion
[ 16575 7825 7824 7823 ] final -155.60 input    0.00 | X-H torsion
[ 16583 7781 7780 7779 ] final -138.53 input   -0.00 | X-H torsion
[ 16593 9424 9423 9422 ] final   51.30 input   -0.00 | X-H torsion
[ 16597 7659 7658 7657 ] final   94.83 input   -0.00 | X-H torsion
[ 16599 7717 7716 7715 ] final  -68.97 input    0.00 | X-H torsion
[ 16602 10532 10531 10530 ] final   97.61 input    0.00 | X-H torsion
[ 16611 7554 7553 7552 ] final  -65.52 input    0.00 | X-H torsion
[ 16613 7623 7622 7621 ] final   72.00 input   -0.00 | X-H torsion
[ 16616 9283 9282 9281 ] final -151.62 input    0.00 | X-H torsion
[ 16618 9228 9227 9226 ] final  -75.73 input   -0.00 | X-H torsion
[ 16636 3357 3356 3355 ] final  -96.94 input   -0.00 | X-H torsion
[ 16638 3415 3414 3413 ] final -146.11 input   -0.00 | X-H torsion
[ 16646 9102 9101 9100 ] final  -22.27 input    0.00 | X-H torsion

> <Gold.Protein.ActiveResidues>
 ARG45   SER53   PHE54   LEU82   LYS83   GLN84   GLU86   HIS87   GLU127  PHE129 
 SER130  HIS131  LEU132  ARG133  ARG134  ILE135  GLY136  ARG137  PHE138  SER139 
 HIS142  ARG165  ASP166  LEU167  LYS168  PRO169  GLU170  ASN171  ASP184  GLY186 
 PHE187  TRP196  TPO197  LEU198  CYS199  GLY200  THR201  PRO202  GLU203  TYR204 
 LEU205  ILE209  ILE210  TYR215  VAL226  LEU227  TYR229  GLU230  MET231  ALA233 
 GLY234  TYR235  PRO236  PRO237  PHE238  PHE239  ALA240  ASP241  GLN242  PRO243 
 ILE244  GLN245  ILE246  TYR247  LYS249  ARG256  PHE257  PRO258  SER259  HIS260 
 PRO313  PHE314  ILE315  LYS317  LYS319  SER325  ASN326  ASP328  ASP329  GLU331 
 GLU332  GLU333  GLU334 

> <Gold.Protein.RotatedAtoms>
   24.9679   22.0710   37.6417 H   0  0  0  0  0  0  0  0  0  0  0  0  # atno 3444 bound_to 3412
   23.8814   22.3840   40.2290 H   0  0  0  0  0  0  0  0  0  0  0  0  # atno 3506 bound_to 3478
   22.8868   19.8681   44.6449 H   0  0  0  0  0  0  0  0  0  0  0  0  # atno 3661 bound_to 3632
   35.7930   -0.4520   42.9224 H   0  0  0  0  0  0  0  0  0  0  0  0  # atno 5632 bound_to 5608
   29.5642   -1.8293   41.4616 H   0  0  0  0  0  0  0  0  0  0  0  0  # atno 5728 bound_to 5706
   31.7643   -2.6598   39.3640 H   0  0  0  0  0  0  0  0  0  0  0  0  # atno 5773 bound_to 5761
   34.2761   -1.1214   36.8634 H   0  0  0  0  0  0  0  0  0  0  0  0  # atno 5777 bound_to 5766
   29.4837   -5.7805   37.0874 H   0  0  0  0  0  0  0  0  0  0  0  0  # atno 5929 bound_to 5907
   30.7702   -7.5305   34.4755 H   0  0  0  0  0  0  0  0  0  0  0  0  # atno 6001 bound_to 5979
   32.3370   -9.9275   36.9854 H   0  0  0  0  0  0  0  0  0  0  0  0  # atno 6064 bound_to 6048
   29.2966  -10.4398   36.6160 H   0  0  0  0  0  0  0  0  0  0  0  0  # atno 6109 bound_to 6101
   27.5235  -11.7256   37.5449 H   0  0  0  0  0  0  0  0  0  0  0  0  # atno 6151 bound_to 6129
   10.9845   23.8502   36.3444 H   0  0  0  0  0  0  0  0  0  0  0  0  # atno 6271 bound_to 6255
   19.2635    7.7543   46.8667 H   0  0  0  0  0  0  0  0  0  0  0  0  # atno 7636 bound_to 7620
   23.0835    2.2018   44.9240 H   0  0  0  0  0  0  0  0  0  0  0  0  # atno 7732 bound_to 7714
   23.4581    6.6677   41.4455 H   0  0  0  0  0  0  0  0  0  0  0  0  # atno 7742 bound_to 7722
   22.1729    6.7374   40.4018 H   0  0  0  0  0  0  0  0  0  0  0  0  # atno 7743 bound_to 7722
   22.1270    5.7145   41.7054 H   0  0  0  0  0  0  0  0  0  0  0  0  # atno 7744 bound_to 7722
   25.5699    1.4404   41.7752 H   0  0  0  0  0  0  0  0  0  0  0  0  # atno 7840 bound_to 7822
   26.6556    3.4720   42.2878 H   0  0  0  0  0  0  0  0  0  0  0  0  # atno 7882 bound_to 7866
   22.6954   13.2887   45.9103 H   0  0  0  0  0  0  0  0  0  0  0  0  # atno 8641 bound_to 8619
    9.7031   14.7619   45.3130 H   0  0  0  0  0  0  0  0  0  0  0  0  # atno 9208 bound_to 9168
   11.6965   18.3323   47.9621 H   0  0  0  0  0  0  0  0  0  0  0  0  # atno 9214 bound_to 9176
   14.9093   16.4129   46.3759 H   0  0  0  0  0  0  0  0  0  0  0  0  # atno 9216 bound_to 9178
   11.9726   15.0407   41.9157 H   0  0  0  0  0  0  0  0  0  0  0  0  # atno 9263 bound_to 9225
   13.3990   12.3069   41.2246 H   0  0  0  0  0  0  0  0  0  0  0  0  # atno 9302 bound_to 9280
   17.4302   10.7099   41.6221 H   0  0  0  0  0  0  0  0  0  0  0  0  # atno 9325 bound_to 9311
   17.7523    7.6684   39.7024 H   0  0  0  0  0  0  0  0  0  0  0  0  # atno 9363 bound_to 9335
   20.9795    5.9378   37.8039 H   0  0  0  0  0  0  0  0  0  0  0  0  # atno 9369 bound_to 9341
   16.1534    3.0954   37.6251 H   0  0  0  0  0  0  0  0  0  0  0  0  # atno 9451 bound_to 9421
   15.9231    0.9833   38.9800 H   0  0  0  0  0  0  0  0  0  0  0  0  # atno 9511 bound_to 9469
   20.5835   -2.8489   40.5784 H   0  0  0  0  0  0  0  0  0  0  0  0  # atno 9519 bound_to 9480
   14.7680    3.2533   41.2628 H   0  0  0  0  0  0  0  0  0  0  0  0  # atno 9566 bound_to 9528
   12.9742   12.1659   47.0260 H   0  0  0  0  0  0  0  0  0  0  0  0  # atno 10029 bound_to 10008
   13.9970  -10.1211   36.6253 H   0  0  0  0  0  0  0  0  0  0  0  0  # atno 10728 bound_to 10707
   18.2388   -7.6783   40.7152 H   0  0  0  0  0  0  0  0  0  0  0  0  # atno 10774 bound_to 10756
   22.0661   -6.9173   41.6833 H   0  0  0  0  0  0  0  0  0  0  0  0  # atno 10816 bound_to 10800
   22.3987  -11.6173   38.3475 H   0  0  0  0  0  0  0  0  0  0  0  0  # atno 10915 bound_to 10907
   21.4943   -9.6310   35.7185 H   0  0  0  0  0  0  0  0  0  0  0  0  # atno 10960 bound_to 10936
   16.3397  -13.3090   35.7088 H   0  0  0  0  0  0  0  0  0  0  0  0  # atno 10968 bound_to 10947
   13.9815   -4.1944   37.0989 H   0  0  0  0  0  0  0  0  0  0  0  0  # atno 11104 bound_to 11082
   12.9399   -3.2331   33.6037 H   0  0  0  0  0  0  0  0  0  0  0  0  # atno 11164 bound_to 11142
   14.5937   -1.5019   30.5754 H   0  0  0  0  0  0  0  0  0  0  0  0  # atno 11206 bound_to 11196
   14.7643   -1.6024   26.7320 H   0  0  0  0  0  0  0  0  0  0  0  0  # atno 11253 bound_to 11229
   13.7476    1.4136   27.5916 H   0  0  0  0  0  0  0  0  0  0  0  0  # atno 11300 bound_to 11266
   11.1210    4.4187   29.3503 H   0  0  0  0  0  0  0  0  0  0  0  0  # atno 11396 bound_to 11358
   10.2800    3.1111   29.1586 H   0  0  0  0  0  0  0  0  0  0  0  0  # atno 11450 bound_to 11416
    9.7551    1.8422   31.2429 H   0  0  0  0  0  0  0  0  0  0  0  0  # atno 11504 bound_to 11466
   13.0106    8.0701   35.5271 H   0  0  0  0  0  0  0  0  0  0  0  0  # atno 11577 bound_to 11538
    9.1868  -10.5173   36.8112 H   0  0  0  0  0  0  0  0  0  0  0  0  # atno 12021 bound_to 11973
   10.7763  -14.6371   37.5762 H   0  0  0  0  0  0  0  0  0  0  0  0  # atno 12092 bound_to 12045
   15.9584  -18.4118   37.5443 H   0  0  0  0  0  0  0  0  0  0  0  0  # atno 12154 bound_to 12142
   26.7098   14.5801   35.1960 H   0  0  0  0  0  0  0  0  0  0  0  0  # atno 15096 bound_to 15054
   27.1921   15.2994   33.7827 H   0  0  0  0  0  0  0  0  0  0  0  0  # atno 15097 bound_to 15054
   26.1439   16.0856   34.7978 H   0  0  0  0  0  0  0  0  0  0  0  0  # atno 15098 bound_to 15054
   32.4400   12.1710   30.8878 H   0  0  0  0  0  0  0  0  0  0  0  0  # atno 15182 bound_to 15161
   31.0276   11.3360   30.6507 H   0  0  0  0  0  0  0  0  0  0  0  0  # atno 15183 bound_to 15161
   32.3152   10.5962   31.3878 H   0  0  0  0  0  0  0  0  0  0  0  0  # atno 15184 bound_to 15161
   27.9867   10.9468   25.5782 H   0  0  0  0  0  0  0  0  0  0  0  0  # atno 15326 bound_to 15310
    7.6692  -12.2527   26.7820 H   0  0  0  0  0  0  0  0  0  0  0  0  # atno 15542 bound_to 15533
    9.3937  -14.8413   27.6555 H   0  0  0  0  0  0  0  0  0  0  0  0  # atno 15588 bound_to 15579
   10.3245  -17.4612   29.5245 H   0  0  0  0  0  0  0  0  0  0  0  0  # atno 15633 bound_to 15624
   11.4241  -14.9885   27.0174 LP  0  0  0  0  0  0  0  0  0  0  0  0  # atno 16458 bound_to 15536
   11.0819  -14.7498   28.6985 LP  0  0  0  0  0  0  0  0  0  0  0  0  # atno 16459 bound_to 15536
   17.2375  -14.0322   34.5606 LP  0  0  0  0  0  0  0  0  0  0  0  0  # atno 16460 bound_to 10947
   15.8986  -13.1940   34.1469 LP  0  0  0  0  0  0  0  0  0  0  0  0  # atno 16461 bound_to 10947
   13.3283  -11.2248   37.6165 LP  0  0  0  0  0  0  0  0  0  0  0  0  # atno 16466 bound_to 10707
   14.7983  -11.4973   36.9598 LP  0  0  0  0  0  0  0  0  0  0  0  0  # atno 16467 bound_to 10707
   20.9029  -12.4409   35.6566 LP  0  0  0  0  0  0  0  0  0  0  0  0  # atno 16468 bound_to 10881
   21.9535  -13.5053   36.5302 LP  0  0  0  0  0  0  0  0  0  0  0  0  # atno 16469 bound_to 10881
   23.1851   -9.1477   34.2354 LP  0  0  0  0  0  0  0  0  0  0  0  0  # atno 16470 bound_to 10910
   22.7683   -7.6361   34.9713 LP  0  0  0  0  0  0  0  0  0  0  0  0  # atno 16471 bound_to 10910
   20.9833   -9.0033   37.2657 LP  0  0  0  0  0  0  0  0  0  0  0  0  # atno 16472 bound_to 10936
   15.1587   -6.4615   35.4099 LP  0  0  0  0  0  0  0  0  0  0  0  0  # atno 16473 bound_to 10997
   16.7616   -7.1019   35.2656 LP  0  0  0  0  0  0  0  0  0  0  0  0  # atno 16474 bound_to 10997
   11.9029  -11.3778   36.9668 LP  0  0  0  0  0  0  0  0  0  0  0  0  # atno 16475 bound_to 11976
   12.2105  -11.6801   38.6443 LP  0  0  0  0  0  0  0  0  0  0  0  0  # atno 16476 bound_to 11976
   12.9728  -17.0107   37.0463 LP  0  0  0  0  0  0  0  0  0  0  0  0  # atno 16477 bound_to 12048
   11.5312  -16.1078   37.3725 LP  0  0  0  0  0  0  0  0  0  0  0  0  # atno 16478 bound_to 12048
   18.1010   -7.8262   38.1456 LP  0  0  0  0  0  0  0  0  0  0  0  0  # atno 16480 bound_to 10939
   19.1994   -9.0708   37.6511 LP  0  0  0  0  0  0  0  0  0  0  0  0  # atno 16481 bound_to 10939
   11.9589   -7.5017   36.6758 LP  0  0  0  0  0  0  0  0  0  0  0  0  # atno 16483 bound_to 11039
   11.4885   -6.1109   35.7569 LP  0  0  0  0  0  0  0  0  0  0  0  0  # atno 16484 bound_to 11039
   10.6908  -13.1972   38.5610 LP  0  0  0  0  0  0  0  0  0  0  0  0  # atno 16485 bound_to 12045
    9.3107  -11.7219   27.0631 LP  0  0  0  0  0  0  0  0  0  0  0  0  # atno 16490 bound_to 15533
    7.6696  -14.7603   27.9638 LP  0  0  0  0  0  0  0  0  0  0  0  0  # atno 16491 bound_to 15579
    9.0951  -16.9760   26.8252 LP  0  0  0  0  0  0  0  0  0  0  0  0  # atno 16492 bound_to 15582
    8.6073  -18.5815   27.2547 LP  0  0  0  0  0  0  0  0  0  0  0  0  # atno 16493 bound_to 15582
    8.8066  -18.2753   29.8340 LP  0  0  0  0  0  0  0  0  0  0  0  0  # atno 16494 bound_to 15624
   21.0639  -10.6334   37.7853 LP  0  0  0  0  0  0  0  0  0  0  0  0  # atno 16495 bound_to 10907
   25.8128   -9.9268   36.1235 LP  0  0  0  0  0  0  0  0  0  0  0  0  # atno 16496 bound_to 6104
   25.0141  -10.8185   37.3753 LP  0  0  0  0  0  0  0  0  0  0  0  0  # atno 16497 bound_to 6104
   26.7507  -13.2011   37.0177 LP  0  0  0  0  0  0  0  0  0  0  0  0  # atno 16498 bound_to 6129
   29.8898   -9.7376   34.0177 LP  0  0  0  0  0  0  0  0  0  0  0  0  # atno 16499 bound_to 5910
   29.1885   -8.4533   33.0910 LP  0  0  0  0  0  0  0  0  0  0  0  0  # atno 16500 bound_to 5910
   29.8420  -11.7694   35.6277 LP  0  0  0  0  0  0  0  0  0  0  0  0  # atno 16501 bound_to 6101
   28.0551   -8.9557   36.4379 LP  0  0  0  0  0  0  0  0  0  0  0  0  # atno 16502 bound_to 5850
   29.2316   -9.6061   37.5301 LP  0  0  0  0  0  0  0  0  0  0  0  0  # atno 16503 bound_to 5850
   29.0657   -7.4578   37.3363 LP  0  0  0  0  0  0  0  0  0  0  0  0  # atno 16504 bound_to 5907
   29.7084  -13.9934   37.1450 LP  0  0  0  0  0  0  0  0  0  0  0  0  # atno 16505 bound_to 6051
   29.0633  -13.7471   35.5566 LP  0  0  0  0  0  0  0  0  0  0  0  0  # atno 16506 bound_to 6051
   32.7644  -12.1007   34.7144 LP  0  0  0  0  0  0  0  0  0  0  0  0  # atno 16507 bound_to 5982
   31.8751  -11.2698   33.4820 LP  0  0  0  0  0  0  0  0  0  0  0  0  # atno 16508 bound_to 5982
   31.2939   -7.7116   36.1362 LP  0  0  0  0  0  0  0  0  0  0  0  0  # atno 16509 bound_to 5979
   31.3763  -10.1882   35.5477 LP  0  0  0  0  0  0  0  0  0  0  0  0  # atno 16510 bound_to 6048
   12.6223   -3.9956   29.6480 LP  0  0  0  0  0  0  0  0  0  0  0  0  # atno 16511 bound_to 11145
   12.6281   -4.4815   31.3105 LP  0  0  0  0  0  0  0  0  0  0  0  0  # atno 16512 bound_to 11145
   14.6420   -3.1971   30.1203 LP  0  0  0  0  0  0  0  0  0  0  0  0  # atno 16513 bound_to 11196
   15.5365    0.6404   28.7687 LP  0  0  0  0  0  0  0  0  0  0  0  0  # atno 16514 bound_to 11199
   16.3432   -0.8837   28.9316 LP  0  0  0  0  0  0  0  0  0  0  0  0  # atno 16515 bound_to 11199
   13.5692   -0.3806   27.1233 LP  0  0  0  0  0  0  0  0  0  0  0  0  # atno 16516 bound_to 11229
   13.8508   -4.6992   33.3616 LP  0  0  0  0  0  0  0  0  0  0  0  0  # atno 16525 bound_to 11142
   14.7618   -1.7416   34.0532 LP  0  0  0  0  0  0  0  0  0  0  0  0  # atno 16530 bound_to 11085
   14.6133   -2.2446   35.7039 LP  0  0  0  0  0  0  0  0  0  0  0  0  # atno 16531 bound_to 11085
   13.5094   -5.7145   36.3706 LP  0  0  0  0  0  0  0  0  0  0  0  0  # atno 16533 bound_to 11082
   17.0337    2.1642   26.4742 LP  0  0  0  0  0  0  0  0  0  0  0  0  # atno 16538 bound_to 11232
   16.0178    3.4036   25.8171 LP  0  0  0  0  0  0  0  0  0  0  0  0  # atno 16539 bound_to 11232
   14.4915    1.9369   26.0897 LP  0  0  0  0  0  0  0  0  0  0  0  0  # atno 16542 bound_to 11266
   15.7296    2.7569   35.9673 LP  0  0  0  0  0  0  0  0  0  0  0  0  # atno 16548 bound_to 9421
   11.5709    3.1027   29.5672 LP  0  0  0  0  0  0  0  0  0  0  0  0  # atno 16549 bound_to 11269
   12.7423    1.8703   29.2373 LP  0  0  0  0  0  0  0  0  0  0  0  0  # atno 16550 bound_to 11269
   11.0868    3.1631   32.0639 LP  0  0  0  0  0  0  0  0  0  0  0  0  # atno 16552 bound_to 11318
   11.0136    4.6951   32.8687 LP  0  0  0  0  0  0  0  0  0  0  0  0  # atno 16553 bound_to 11318
   10.9839    0.7955   30.5632 LP  0  0  0  0  0  0  0  0  0  0  0  0  # atno 16554 bound_to 11466
   11.4533    5.6420   30.5400 LP  0  0  0  0  0  0  0  0  0  0  0  0  # atno 16555 bound_to 11358
   12.4486    8.9199   34.2585 LP  0  0  0  0  0  0  0  0  0  0  0  0  # atno 16556 bound_to 11538
   13.4174    7.6281   34.0150 LP  0  0  0  0  0  0  0  0  0  0  0  0  # atno 16557 bound_to 11538
   17.5715    9.6000   38.6730 LP  0  0  0  0  0  0  0  0  0  0  0  0  # atno 16558 bound_to 9314
   17.2262    8.0990   37.8807 LP  0  0  0  0  0  0  0  0  0  0  0  0  # atno 16559 bound_to 9314
   18.3384    6.2897   40.6012 LP  0  0  0  0  0  0  0  0  0  0  0  0  # atno 16560 bound_to 9335
   16.9319    4.3854   39.9094 LP  0  0  0  0  0  0  0  0  0  0  0  0  # atno 16561 bound_to 9338
   15.4093    4.5674   39.1041 LP  0  0  0  0  0  0  0  0  0  0  0  0  # atno 16562 bound_to 9338
   21.3342    5.2100   39.2158 LP  0  0  0  0  0  0  0  0  0  0  0  0  # atno 16563 bound_to 9341
   20.4932    6.6097   39.2042 LP  0  0  0  0  0  0  0  0  0  0  0  0  # atno 16564 bound_to 9341
   13.8785    2.9063   38.7047 LP  0  0  0  0  0  0  0  0  0  0  0  0  # atno 16565 bound_to 9380
   12.9896    2.9840   37.2201 LP  0  0  0  0  0  0  0  0  0  0  0  0  # atno 16566 bound_to 9380
   15.6436    2.7073   39.0949 LP  0  0  0  0  0  0  0  0  0  0  0  0  # atno 16567 bound_to 9469
   28.8456   -3.6617   37.2476 LP  0  0  0  0  0  0  0  0  0  0  0  0  # atno 16570 bound_to 5709
   30.2128   -4.7002   37.4770 LP  0  0  0  0  0  0  0  0  0  0  0  0  # atno 16571 bound_to 5709
   26.5699    0.2418   40.9926 LP  0  0  0  0  0  0  0  0  0  0  0  0  # atno 16574 bound_to 7822
   29.3327    3.9198   42.7787 LP  0  0  0  0  0  0  0  0  0  0  0  0  # atno 16575 bound_to 7825
   29.1350    4.0415   41.0623 LP  0  0  0  0  0  0  0  0  0  0  0  0  # atno 16576 bound_to 7825
   31.0128   -2.4976   40.7534 LP  0  0  0  0  0  0  0  0  0  0  0  0  # atno 16579 bound_to 5706
   30.7046   -2.3090   38.0177 LP  0  0  0  0  0  0  0  0  0  0  0  0  # atno 16580 bound_to 5761
   33.5781   -2.1919   35.8564 LP  0  0  0  0  0  0  0  0  0  0  0  0  # atno 16581 bound_to 5766
   35.1614   -2.3311   36.2311 LP  0  0  0  0  0  0  0  0  0  0  0  0  # atno 16582 bound_to 5766
   28.4004    1.0382   42.8070 LP  0  0  0  0  0  0  0  0  0  0  0  0  # atno 16583 bound_to 7781
   28.3766   -0.6856   42.6399 LP  0  0  0  0  0  0  0  0  0  0  0  0  # atno 16584 bound_to 7781
   27.1840    1.9999   43.0757 LP  0  0  0  0  0  0  0  0  0  0  0  0  # atno 16585 bound_to 7866
   15.1987   -1.1039   38.8716 LP  0  0  0  0  0  0  0  0  0  0  0  0  # atno 16593 bound_to 9424
   14.0595   -0.1608   39.7732 LP  0  0  0  0  0  0  0  0  0  0  0  0  # atno 16594 bound_to 9424
   20.0886   -3.0906   42.1097 LP  0  0  0  0  0  0  0  0  0  0  0  0  # atno 16595 bound_to 9480
   21.4127   -2.1830   41.8101 LP  0  0  0  0  0  0  0  0  0  0  0  0  # atno 16596 bound_to 9480
   20.3321    3.3433   43.2250 LP  0  0  0  0  0  0  0  0  0  0  0  0  # atno 16597 bound_to 7659
   19.5033    1.9439   43.8208 LP  0  0  0  0  0  0  0  0  0  0  0  0  # atno 16598 bound_to 7659
   25.0134    2.3152   43.5446 LP  0  0  0  0  0  0  0  0  0  0  0  0  # atno 16599 bound_to 7717
   25.2569    0.9900   44.6329 LP  0  0  0  0  0  0  0  0  0  0  0  0  # atno 16600 bound_to 7717
   21.3762    1.8249   44.8470 LP  0  0  0  0  0  0  0  0  0  0  0  0  # atno 16601 bound_to 7714
   18.6386   -4.6833   41.6055 LP  0  0  0  0  0  0  0  0  0  0  0  0  # atno 16602 bound_to 10532
   18.0082   -6.1170   42.3451 LP  0  0  0  0  0  0  0  0  0  0  0  0  # atno 16603 bound_to 10532
   16.4213   10.1428   40.3137 LP  0  0  0  0  0  0  0  0  0  0  0  0  # atno 16604 bound_to 9311
   27.2168   11.2161   26.9866 LP  0  0  0  0  0  0  0  0  0  0  0  0  # atno 16607 bound_to 15310
   26.6140   11.8210   25.5948 LP  0  0  0  0  0  0  0  0  0  0  0  0  # atno 16608 bound_to 15310
   17.1915    7.7483   44.7710 LP  0  0  0  0  0  0  0  0  0  0  0  0  # atno 16611 bound_to 7554
   18.6515    8.6802   44.7711 LP  0  0  0  0  0  0  0  0  0  0  0  0  # atno 16612 bound_to 7554
   22.7874    5.4292   44.8787 LP  0  0  0  0  0  0  0  0  0  0  0  0  # atno 16613 bound_to 7623
   21.8158    4.4693   43.8136 LP  0  0  0  0  0  0  0  0  0  0  0  0  # atno 16614 bound_to 7623
   13.7464   11.5179   42.7324 LP  0  0  0  0  0  0  0  0  0  0  0  0  # atno 16615 bound_to 9280
   15.9115    8.6056   42.7177 LP  0  0  0  0  0  0  0  0  0  0  0  0  # atno 16616 bound_to 9283
   14.4049    9.3905   42.3797 LP  0  0  0  0  0  0  0  0  0  0  0  0  # atno 16617 bound_to 9283
   14.0630   13.8580   39.7093 LP  0  0  0  0  0  0  0  0  0  0  0  0  # atno 16618 bound_to 9228
   14.5917   14.4856   41.2346 LP  0  0  0  0  0  0  0  0  0  0  0  0  # atno 16619 bound_to 9228
   18.9750    6.0405   46.9572 LP  0  0  0  0  0  0  0  0  0  0  0  0  # atno 16620 bound_to 7620
   11.2162   14.0346   43.1257 LP  0  0  0  0  0  0  0  0  0  0  0  0  # atno 16628 bound_to 9225
   13.5476    2.5027   40.2621 LP  0  0  0  0  0  0  0  0  0  0  0  0  # atno 16635 bound_to 9528
   22.9787   20.4298   36.6909 LP  0  0  0  0  0  0  0  0  0  0  0  0  # atno 16636 bound_to 3357
   24.3170   19.8944   37.6512 LP  0  0  0  0  0  0  0  0  0  0  0  0  # atno 16637 bound_to 3357
   22.3064   21.0018   41.0426 LP  0  0  0  0  0  0  0  0  0  0  0  0  # atno 16638 bound_to 3415
   21.5640   21.0183   39.4778 LP  0  0  0  0  0  0  0  0  0  0  0  0  # atno 16639 bound_to 3415
   24.3059   23.4154   36.7403 LP  0  0  0  0  0  0  0  0  0  0  0  0  # atno 16640 bound_to 3412
   25.0103   21.5650   39.1710 LP  0  0  0  0  0  0  0  0  0  0  0  0  # atno 16641 bound_to 3478
    8.0566   14.0858   43.9968 LP  0  0  0  0  0  0  0  0  0  0  0  0  # atno 16646 bound_to 9102
    9.4193   14.8841   43.2856 LP  0  0  0  0  0  0  0  0  0  0  0  0  # atno 16647 bound_to 9102
   10.8732   15.5173   46.3643 LP  0  0  0  0  0  0  0  0  0  0  0  0  # atno 16648 bound_to 9168
   14.8322   16.3726   48.0007 LP  0  0  0  0  0  0  0  0  0  0  0  0  # atno 16649 bound_to 9178
   14.9715   17.8013   47.2222 LP  0  0  0  0  0  0  0  0  0  0  0  0  # atno 16650 bound_to 9178
    9.9962   25.0799   36.7430 LP  0  0  0  0  0  0  0  0  0  0  0  0  # atno 16654 bound_to 6255
    9.7586   24.2548   35.3540 LP  0  0  0  0  0  0  0  0  0  0  0  0  # atno 16655 bound_to 6255
   12.7544   19.0545   46.9579 LP  0  0  0  0  0  0  0  0  0  0  0  0  # atno 16656 bound_to 9176
   13.2296   18.5838   48.4476 LP  0  0  0  0  0  0  0  0  0  0  0  0  # atno 16657 bound_to 9176

> <Gold.Score>
     Fitness  S(hb_ext) S(vdw_ext)  S(hb_int)    S(int)      intcor
     31.78       0.00      25.06       0.00      -2.67      -0.76

> <Gold.Goldscore.Fitness>
31.7837

> <Gold.Goldscore.Internal.Vdw>
-3.0555

> <Gold.Goldscore.Internal.Torsion>
-0.3705

> <Gold.Goldscore.External.Vdw>
25.0554

> <Gold.Goldscore.Internal.HBond>
0.0000

> <Gold.Goldscore.External.HBond>
0.0000

> <Gold.Goldscore.Internal.Correction>
-0.7585

> <Gold.Goldscore.Internal.Vdw.Weighted>
-3.0555

> <Gold.Goldscore.Internal.Torsion.Weighted>
-0.3705

> <Gold.Goldscore.External.Vdw.Weighted>
34.4511

> <Gold.Goldscore.Internal.HBond.Weighted>
0.0000

> <Gold.Goldscore.External.HBond.Weighted>
0.0000

> <Gold.Goldscore.Internal.Correction.Weighted>
-0.7585

> <Gold.Rescore>
     Score     S(PLP)   S(hbond)     S(cho)   S(metal)  DE(clash)   DE(tors)     intcor
     28.35     -30.24       0.00       0.00       0.00       0.00       0.95       ----

> <Gold.PLP.Fitness>
28.3475

> <Gold.PLP.PLP>
-30.2431

> <Gold.PLP.part.hbond>
-2.1322

> <Gold.PLP.part.metal>
0.0000

> <Gold.PLP.part.buried>
-1.5845

> <Gold.PLP.part.nonpolar>
-29.9779

> <Gold.PLP.part.repulsive>
0.4023

> <Gold.PLP.ligand.clash>
0.0000

> <Gold.PLP.ligand.torsion>
0.9478

> <Gold.PLP.Chemscore.Hbond>
0.0000

> <Gold.PLP.Chemscore.CHOScore>
0.0000

> <Gold.PLP.Chemscore.Metal>
0.0000

> <Gold.PLP.Chemscore.Internal.Correction>
   9.000000E+99

