#       Name:                CT1002167954
#       Creating user name   hitesit
#       Creation time:       Sun Apr 16 20:20:16 2023


#       File generated by GOLD software.
#

@<TRIPOS>MOLECULE
CT1002167954|ligand_prepared|mol2|1|dock10
    29    30     1
SMALL
NO_CHARGES


@<TRIPOS>ATOM
      1 C1          11.6431  -8.8175  32.5493 C.3            1 RES1               0.0000
      2 C2          10.4338  -8.2964  33.3523 C.ar           1 RES1               0.0000
      3 C3          12.8748  -8.5548  33.4108 C.2            1 RES1               0.0000
      4 C4          11.3738 -10.2943  32.2827 C.2            1 RES1               0.0000
      5 C5          11.8380  -8.1137  31.1861 C.3            1 RES1               0.0000
      6 C6           9.9830  -6.9902  33.1869 C.ar           1 RES1               0.0000
      7 C7           9.7583  -9.1094  34.2586 C.ar           1 RES1               0.0000
      8 N8          13.4587  -9.6254  34.0214 N.am           1 RES1               0.0000
      9 O9          13.3035  -7.4206  33.5838 O.2            1 RES1               0.0000
     10 N10         12.2046 -11.2142  32.8670 N.am           1 RES1               0.0000
     11 O11         10.4396 -10.6703  31.5854 O.2            1 RES1               0.0000
     12 C12         12.7783  -8.8500  30.2449 C.3            1 RES1               0.0000
     13 C13          8.8946  -6.5148  33.8994 C.ar           1 RES1               0.0000
     14 C14          8.6702  -8.6320  34.9703 C.ar           1 RES1               0.0000
     15 C15         13.2162 -10.9477  33.7490 C.2            1 RES1               0.0000
     16 C16          8.2372  -7.3354  34.7911 C.ar           1 RES1               0.0000
     17 O17         13.8847 -11.8329  34.2751 O.2            1 RES1               0.0000
     18 H18         10.8605  -8.0103  30.6991 H              1 RES1               0.0000
     19 H19         12.2330  -7.1056  31.3625 H              1 RES1               0.0000
     20 H20         10.4892  -6.3291  32.4914 H              1 RES1               0.0000
     21 H21         10.0819 -10.1326  34.4165 H              1 RES1               0.0000
     22 H22         14.1386  -9.4241  34.7477 H              1 RES1               0.0000
     23 H23         12.0552 -12.1877  32.6216 H              1 RES1               0.0000
     24 H24         12.8798  -8.3137  29.3037 H              1 RES1               0.0000
     25 H25         13.7675  -8.9485  30.6871 H              1 RES1               0.0000
     26 H26         12.4031  -9.8479  30.0277 H              1 RES1               0.0000
     27 H27          8.5587  -5.4932  33.7558 H              1 RES1               0.0000
     28 H28          8.1562  -9.2811  35.6715 H              1 RES1               0.0000
     29 H29          7.3844  -6.9628  35.3489 H              1 RES1               0.0000
@<TRIPOS>BOND
    1    1    2 1     
    2    1    3 1     
    3    1    4 1     
    4    1    5 1     
    5    2    6 ar    
    6    2    7 ar    
    7    3    8 1     
    8    3    9 2     
    9    4   10 1     
   10    4   11 2     
   11    5   12 1     
   12    5   18 1     
   13    5   19 1     
   14    6   13 ar    
   15    6   20 1     
   16    7   14 ar    
   17    7   21 1     
   18    8   15 1     
   19    8   22 1     
   20   10   15 1     
   21   10   23 1     
   22   12   24 1     
   23   12   25 1     
   24   12   26 1     
   25   13   16 ar    
   26   13   27 1     
   27   14   16 ar    
   28   14   28 1     
   29   15   17 2     
   30   16   29 1     
@<TRIPOS>SUBSTRUCTURE
      1 RES1           1
@<TRIPOS>SET
DONOR_HYDROGENS      STATIC     ATOMS    <user>   **** ""
2 22 23
ATOM$RED        STATIC     ATOMS    COLORGROUP SYSTEM
2 22 23
@<TRIPOS>COMMENT
> <Gold.Version>
2022.3.0

> <Gold.Id.Protein>
unknown|3mvj_clean|pdb

> <Gold.Protein.RotatedTorsions>
[ 10968 10947 10946 10944 ] final   99.07 input   60.01 | X-H torsion
[ 10728 10707 10706 10704 ] final  -23.89 input   59.96 | X-H torsion
[ 10960 10936 10937 10938 ] final  -81.76 input   23.31 | X-H torsion
[ 12092 12045 12046 12047 ] final  -18.90 input   63.71 | X-H torsion
[ 15542 15533 15534 15535 ] final -127.33 input   83.29 | X-H torsion
[ 15588 15579 15580 15581 ] final   91.19 input  107.67 | X-H torsion
[ 15633 15624 15625 15626 ] final  123.13 input   84.82 | X-H torsion
[ 10915 10907 10908 10909 ] final  -39.32 input  -87.38 | X-H torsion
[ 6151 6129 6130 6131 ] final   98.29 input   27.76 | X-H torsion
[ 6109 6101 6102 6103 ] final   48.42 input  -93.79 | X-H torsion
[ 5929 5907 5908 5909 ] final  -52.13 input  119.25 | X-H torsion
[ 6001 5979 5980 5981 ] final  -79.91 input  112.51 | X-H torsion
[ 6064 6048 6049 6050 ] final   54.22 input  108.26 | X-H torsion
[ 11206 11196 11197 11198 ] final  158.68 input   -0.63 | X-H torsion
[ 11253 11229 11230 11231 ] final  -74.43 input  120.69 | X-H torsion
[ 11164 11142 11143 11144 ] final   66.69 input   33.88 | X-H torsion
[ 11104 11082 11083 11084 ] final -110.79 input   45.00 | X-H torsion
[ 11300 11266 11267 11268 ] final   -5.00 input   49.58 | X-H torsion
[ 9451 9421 9422 9423 ] final  109.31 input  116.39 | X-H torsion
[ 11504 11466 11467 11468 ] final -107.12 input  126.08 | X-H torsion
[ 11396 11358 11359 11360 ] final   22.32 input   98.08 | X-H torsion
[ 11577 11538 11537 11535 ] final  -76.22 input   60.01 | X-H torsion
[ 9363 9335 9336 9337 ] final  144.72 input   84.14 | X-H torsion
[ 9369 9341 9339 9336 ] final   84.05 input   60.02 | X-H torsion
[ 9511 9469 9470 9471 ] final   41.51 input   75.21 | X-H torsion
[ 7840 7822 7823 7824 ] final  -76.73 input  121.36 | X-H torsion
[ 7742 7722 7721 7720 ] final  154.30 input   60.01 | X-H torsion
[ 5728 5706 5707 5708 ] final   33.48 input  119.20 | X-H torsion
[ 5773 5761 5762 5763 ] final  -10.16 input  120.20 | X-H torsion
[ 5777 5766 5765 5762 ] final -125.48 input   59.99 | X-H torsion
[ 7882 7866 7867 7868 ] final -167.53 input   81.17 | X-H torsion
[ 9519 9480 9479 9477 ] final   86.93 input   60.03 | X-H torsion
[ 7732 7714 7715 7716 ] final -117.39 input  -10.67 | X-H torsion
[ 15096 15054 15053 15052 ] final -124.04 input   60.01 | X-H torsion
[ 9325 9311 9312 9313 ] final   -5.75 input  -66.31 | X-H torsion
[ 15182 15161 15160 15159 ] final   86.81 input   59.99 | X-H torsion
[ 15326 15310 15309 15306 ] final   12.23 input   59.99 | X-H torsion
[ 9302 9280 9281 9282 ] final -172.63 input   22.77 | X-H torsion
[ 7636 7620 7621 7622 ] final  -69.62 input   34.37 | X-H torsion
[ 9263 9225 9226 9227 ] final   31.49 input   96.07 | X-H torsion
[ 9566 9528 9529 9530 ] final  -88.69 input   99.68 | X-H torsion
[ 3444 3412 3413 3414 ] final   89.02 input -120.58 | X-H torsion
[ 3506 3478 3479 3480 ] final -129.11 input   70.69 | X-H torsion
[ 9208 9168 9169 9170 ] final -151.57 input  115.65 | X-H torsion
[ 9216 9178 9175 9174 ] final -107.42 input   59.98 | X-H torsion
[ 6271 6255 6254 6251 ] final -114.41 input   60.00 | X-H torsion
[ 9214 9176 9175 9174 ] final  -17.37 input   60.01 | X-H torsion
[ 12154 12142 12143 12144 ] final  -67.16 input  108.55 | X-H torsion
[ 12021 11973 11974 11975 ] final   83.81 input   68.31 | X-H torsion
[ 11450 11416 11417 11418 ] final  168.53 input  102.35 | X-H torsion
[ 5632 5608 5609 5610 ] final  175.31 input  119.09 | X-H torsion
[ 10774 10756 10757 10758 ] final  -79.99 input  129.22 | X-H torsion
[ 10816 10800 10801 10802 ] final -155.03 input  128.85 | X-H torsion
[ 8641 8619 8620 8621 ] final  -74.35 input   87.35 | X-H torsion
[ 3661 3632 3633 3634 ] final  161.99 input  116.97 | X-H torsion
[ 10029 10008 10007 10005 ] final  -51.13 input   60.01 | X-H torsion
[ 16458 15536 15535 15534 ] final  -21.08 input    0.00 | X-H torsion
[ 16468 10881 10880 10879 ] final  171.61 input    0.00 | X-H torsion
[ 16470 10910 10909 10908 ] final  -33.75 input    0.00 | X-H torsion
[ 16473 10997 10996 10995 ] final  126.56 input    0.00 | X-H torsion
[ 16475 11976 11975 11974 ] final  -83.02 input    0.00 | X-H torsion
[ 16477 12048 12047 12046 ] final  171.80 input    0.00 | X-H torsion
[ 16480 10939 10938 10937 ] final  126.25 input   -0.00 | X-H torsion
[ 16483 11039 11038 11037 ] final  -12.82 input    0.00 | X-H torsion
[ 16492 15582 15581 15580 ] final   75.67 input    0.00 | X-H torsion
[ 16496 6104 6103 6102 ] final  155.30 input    0.00 | X-H torsion
[ 16499 5910 5909 5908 ] final  -55.05 input   -0.00 | X-H torsion
[ 16502 5850 5849 5848 ] final  -91.06 input    0.00 | X-H torsion
[ 16505 6051 6050 6049 ] final  172.66 input    0.00 | X-H torsion
[ 16507 5982 5981 5980 ] final  -18.65 input    0.00 | X-H torsion
[ 16511 11145 11144 11143 ] final  126.26 input    0.00 | X-H torsion
[ 16514 11199 11198 11197 ] final -109.99 input    0.00 | X-H torsion
[ 16530 11085 11084 11083 ] final  -97.27 input   -0.00 | X-H torsion
[ 16538 11232 11231 11230 ] final  119.30 input    0.00 | X-H torsion
[ 16549 11269 11268 11267 ] final -169.02 input   -0.00 | X-H torsion
[ 16552 11318 11317 11316 ] final -121.03 input    0.00 | X-H torsion
[ 16558 9314 9313 9312 ] final  170.11 input    0.00 | X-H torsion
[ 16561 9338 9337 9336 ] final  -52.07 input    0.00 | X-H torsion
[ 16565 9380 9379 9378 ] final   56.71 input    0.00 | X-H torsion
[ 16570 5709 5708 5707 ] final   21.01 input    0.00 | X-H torsion
[ 16575 7825 7824 7823 ] final -126.69 input    0.00 | X-H torsion
[ 16583 7781 7780 7779 ] final  -70.48 input   -0.00 | X-H torsion
[ 16593 9424 9423 9422 ] final   38.47 input   -0.00 | X-H torsion
[ 16597 7659 7658 7657 ] final   53.26 input   -0.00 | X-H torsion
[ 16599 7717 7716 7715 ] final  164.17 input    0.00 | X-H torsion
[ 16602 10532 10531 10530 ] final -128.07 input    0.00 | X-H torsion
[ 16611 7554 7553 7552 ] final   64.43 input    0.00 | X-H torsion
[ 16613 7623 7622 7621 ] final  -84.64 input   -0.00 | X-H torsion
[ 16616 9283 9282 9281 ] final   98.14 input    0.00 | X-H torsion
[ 16618 9228 9227 9226 ] final  -52.19 input   -0.00 | X-H torsion
[ 16636 3357 3356 3355 ] final  -53.82 input   -0.00 | X-H torsion
[ 16638 3415 3414 3413 ] final -114.16 input   -0.00 | X-H torsion
[ 16646 9102 9101 9100 ] final  -64.95 input    0.00 | X-H torsion

> <Gold.Protein.ActiveResidues>
 ARG45   SER53   PHE54   LEU82   LYS83   GLN84   GLU86   HIS87   GLU127  PHE129 
 SER130  HIS131  LEU132  ARG133  ARG134  ILE135  GLY136  ARG137  PHE138  SER139 
 HIS142  ARG165  ASP166  LEU167  LYS168  PRO169  GLU170  ASN171  ASP184  GLY186 
 PHE187  TRP196  TPO197  LEU198  CYS199  GLY200  THR201  PRO202  GLU203  TYR204 
 LEU205  ILE209  ILE210  TYR215  VAL226  LEU227  TYR229  GLU230  MET231  ALA233 
 GLY234  TYR235  PRO236  PRO237  PHE238  PHE239  ALA240  ASP241  GLN242  PRO243 
 ILE244  GLN245  ILE246  TYR247  LYS249  ARG256  PHE257  PRO258  SER259  HIS260 
 PRO313  PHE314  ILE315  LYS317  LYS319  SER325  ASN326  ASP328  ASP329  GLU331 
 GLU332  GLU333  GLU334 

> <Gold.Protein.RotatedAtoms>
   24.1609   22.1600   36.7235 H   0  0  0  0  0  0  0  0  0  0  0  0  # atno 3444 bound_to 3412
   23.6843   21.5441   39.5569 H   0  0  0  0  0  0  0  0  0  0  0  0  # atno 3506 bound_to 3478
   22.5345   19.7814   44.8856 H   0  0  0  0  0  0  0  0  0  0  0  0  # atno 3661 bound_to 3632
   35.9263   -0.2521   42.2780 H   0  0  0  0  0  0  0  0  0  0  0  0  # atno 5632 bound_to 5608
   31.0817   -2.1496   40.7118 H   0  0  0  0  0  0  0  0  0  0  0  0  # atno 5728 bound_to 5706
   30.9100   -3.2748   38.9221 H   0  0  0  0  0  0  0  0  0  0  0  0  # atno 5773 bound_to 5761
   35.0929   -2.4086   36.1557 H   0  0  0  0  0  0  0  0  0  0  0  0  # atno 5777 bound_to 5766
   29.1783   -7.4958   37.3337 H   0  0  0  0  0  0  0  0  0  0  0  0  # atno 5929 bound_to 5907
   30.5070   -7.8776   34.6513 H   0  0  0  0  0  0  0  0  0  0  0  0  # atno 6001 bound_to 5979
   31.0910   -9.7048   36.5459 H   0  0  0  0  0  0  0  0  0  0  0  0  # atno 6064 bound_to 6048
   29.5308  -11.6890   36.7750 H   0  0  0  0  0  0  0  0  0  0  0  0  # atno 6109 bound_to 6101
   26.7001  -13.1835   36.9863 H   0  0  0  0  0  0  0  0  0  0  0  0  # atno 6151 bound_to 6129
   10.9842   23.8492   36.3427 H   0  0  0  0  0  0  0  0  0  0  0  0  # atno 6271 bound_to 6255
   18.5393    6.3246   46.6091 H   0  0  0  0  0  0  0  0  0  0  0  0  # atno 7636 bound_to 7620
   21.6591    1.3661   45.1366 H   0  0  0  0  0  0  0  0  0  0  0  0  # atno 7732 bound_to 7714
   23.4172    6.8468   41.1811 H   0  0  0  0  0  0  0  0  0  0  0  0  # atno 7742 bound_to 7722
   21.9412    6.5342   40.4958 H   0  0  0  0  0  0  0  0  0  0  0  0  # atno 7743 bound_to 7722
   22.3993    5.7383   41.8759 H   0  0  0  0  0  0  0  0  0  0  0  0  # atno 7744 bound_to 7722
   26.7555    0.3522   41.6637 H   0  0  0  0  0  0  0  0  0  0  0  0  # atno 7840 bound_to 7822
   26.7377    3.4826   42.2620 H   0  0  0  0  0  0  0  0  0  0  0  0  # atno 7882 bound_to 7866
   22.6301   14.0009   47.1096 H   0  0  0  0  0  0  0  0  0  0  0  0  # atno 8641 bound_to 8619
   10.0578   15.9862   45.7700 H   0  0  0  0  0  0  0  0  0  0  0  0  # atno 9208 bound_to 9168
   12.5481   19.0067   46.9210 H   0  0  0  0  0  0  0  0  0  0  0  0  # atno 9214 bound_to 9176
   14.8254   15.9763   47.4926 H   0  0  0  0  0  0  0  0  0  0  0  0  # atno 9216 bound_to 9178
   12.3051   14.9245   42.1903 H   0  0  0  0  0  0  0  0  0  0  0  0  # atno 9263 bound_to 9225
   13.5807   12.7240   41.6743 H   0  0  0  0  0  0  0  0  0  0  0  0  # atno 9302 bound_to 9280
   16.8532   10.3382   40.0842 H   0  0  0  0  0  0  0  0  0  0  0  0  # atno 9325 bound_to 9311
   18.8874    6.7924   40.3685 H   0  0  0  0  0  0  0  0  0  0  0  0  # atno 9363 bound_to 9335
   20.8047    6.0427   39.6582 H   0  0  0  0  0  0  0  0  0  0  0  0  # atno 9369 bound_to 9341
   16.7823    2.7432   36.6239 H   0  0  0  0  0  0  0  0  0  0  0  0  # atno 9451 bound_to 9421
   15.5888    2.7244   39.1160 H   0  0  0  0  0  0  0  0  0  0  0  0  # atno 9511 bound_to 9469
   21.4377   -2.1713   41.6887 H   0  0  0  0  0  0  0  0  0  0  0  0  # atno 9519 bound_to 9480
   14.5108    2.7441   41.5535 H   0  0  0  0  0  0  0  0  0  0  0  0  # atno 9566 bound_to 9528
   12.8670   11.3874   45.3258 H   0  0  0  0  0  0  0  0  0  0  0  0  # atno 10029 bound_to 10008
   14.5700  -10.4347   36.4869 H   0  0  0  0  0  0  0  0  0  0  0  0  # atno 10728 bound_to 10707
   18.6574   -8.4406   41.0666 H   0  0  0  0  0  0  0  0  0  0  0  0  # atno 10774 bound_to 10756
   22.0791   -6.9272   41.6347 H   0  0  0  0  0  0  0  0  0  0  0  0  # atno 10816 bound_to 10800
   21.4064  -10.3012   38.2344 H   0  0  0  0  0  0  0  0  0  0  0  0  # atno 10915 bound_to 10907
   21.7145   -8.7033   36.9179 H   0  0  0  0  0  0  0  0  0  0  0  0  # atno 10960 bound_to 10936
   16.4000  -13.5515   33.8769 H   0  0  0  0  0  0  0  0  0  0  0  0  # atno 10968 bound_to 10947
   13.4519   -5.7300   36.3763 H   0  0  0  0  0  0  0  0  0  0  0  0  # atno 11104 bound_to 11082
   13.5274   -4.7340   33.0798 H   0  0  0  0  0  0  0  0  0  0  0  0  # atno 11164 bound_to 11142
   13.8098   -2.6296   30.6430 H   0  0  0  0  0  0  0  0  0  0  0  0  # atno 11206 bound_to 11196
   14.8066   -0.9460   27.5437 H   0  0  0  0  0  0  0  0  0  0  0  0  # atno 11253 bound_to 11229
   13.9788    1.4472   27.6776 H   0  0  0  0  0  0  0  0  0  0  0  0  # atno 11300 bound_to 11266
   11.1563    4.2747   29.5363 H   0  0  0  0  0  0  0  0  0  0  0  0  # atno 11396 bound_to 11358
    9.4154    3.4374   28.8126 H   0  0  0  0  0  0  0  0  0  0  0  0  # atno 11450 bound_to 11416
   10.2188    0.4458   30.7461 H   0  0  0  0  0  0  0  0  0  0  0  0  # atno 11504 bound_to 11466
   12.7282    8.4551   35.4746 H   0  0  0  0  0  0  0  0  0  0  0  0  # atno 11577 bound_to 11538
    9.5453  -10.4597   36.9599 H   0  0  0  0  0  0  0  0  0  0  0  0  # atno 12021 bound_to 11973
   10.9760  -14.2721   37.3068 H   0  0  0  0  0  0  0  0  0  0  0  0  # atno 12092 bound_to 12045
   15.0047  -18.0434   37.8856 H   0  0  0  0  0  0  0  0  0  0  0  0  # atno 12154 bound_to 12142
   26.7108   14.5794   35.1950 H   0  0  0  0  0  0  0  0  0  0  0  0  # atno 15096 bound_to 15054
   27.1915   15.3009   33.7823 H   0  0  0  0  0  0  0  0  0  0  0  0  # atno 15097 bound_to 15054
   26.1435   16.0849   34.7991 H   0  0  0  0  0  0  0  0  0  0  0  0  # atno 15098 bound_to 15054
   31.2656   10.6765   30.9683 H   0  0  0  0  0  0  0  0  0  0  0  0  # atno 15182 bound_to 15161
   32.7899   11.2008   31.3555 H   0  0  0  0  0  0  0  0  0  0  0  0  # atno 15183 bound_to 15161
   31.7264   12.2255   30.6022 H   0  0  0  0  0  0  0  0  0  0  0  0  # atno 15184 bound_to 15161
   26.7344   11.7686   25.4272 H   0  0  0  0  0  0  0  0  0  0  0  0  # atno 15326 bound_to 15310
    7.7610  -12.1005   26.4522 H   0  0  0  0  0  0  0  0  0  0  0  0  # atno 15542 bound_to 15533
    7.6493  -15.0330   27.7789 H   0  0  0  0  0  0  0  0  0  0  0  0  # atno 15588 bound_to 15579
   10.2254  -17.7898   30.2576 H   0  0  0  0  0  0  0  0  0  0  0  0  # atno 15633 bound_to 15624
   11.4706  -14.6494   27.0490 LP  0  0  0  0  0  0  0  0  0  0  0  0  # atno 16458 bound_to 15536
   11.0354  -15.0889   28.6669 LP  0  0  0  0  0  0  0  0  0  0  0  0  # atno 16459 bound_to 15536
   15.8599  -13.0383   35.3234 LP  0  0  0  0  0  0  0  0  0  0  0  0  # atno 16460 bound_to 10947
   17.2155  -13.9438   35.2291 LP  0  0  0  0  0  0  0  0  0  0  0  0  # atno 16461 bound_to 10947
   13.2007  -10.6228   37.3458 LP  0  0  0  0  0  0  0  0  0  0  0  0  # atno 16466 bound_to 10707
   14.3490  -11.7835   37.3699 LP  0  0  0  0  0  0  0  0  0  0  0  0  # atno 16467 bound_to 10707
   21.9661  -12.3908   35.7447 LP  0  0  0  0  0  0  0  0  0  0  0  0  # atno 16468 bound_to 10881
   20.8904  -13.5554   36.4421 LP  0  0  0  0  0  0  0  0  0  0  0  0  # atno 16469 bound_to 10881
   23.7367   -8.4596   35.0131 LP  0  0  0  0  0  0  0  0  0  0  0  0  # atno 16470 bound_to 10910
   22.2168   -8.3243   34.1936 LP  0  0  0  0  0  0  0  0  0  0  0  0  # atno 16471 bound_to 10910
   20.7672   -9.9134   36.0890 LP  0  0  0  0  0  0  0  0  0  0  0  0  # atno 16472 bound_to 10936
   15.6612   -7.5231   35.6709 LP  0  0  0  0  0  0  0  0  0  0  0  0  # atno 16473 bound_to 10997
   16.2591   -6.0403   35.0047 LP  0  0  0  0  0  0  0  0  0  0  0  0  # atno 16474 bound_to 10997
   12.2765  -11.7094   36.9876 LP  0  0  0  0  0  0  0  0  0  0  0  0  # atno 16475 bound_to 11976
   11.8370  -11.3484   38.6236 LP  0  0  0  0  0  0  0  0  0  0  0  0  # atno 16476 bound_to 11976
   12.9656  -16.8436   36.8095 LP  0  0  0  0  0  0  0  0  0  0  0  0  # atno 16477 bound_to 12048
   11.5384  -16.2749   37.6093 LP  0  0  0  0  0  0  0  0  0  0  0  0  # atno 16478 bound_to 12048
   18.8150   -7.8007   38.4490 LP  0  0  0  0  0  0  0  0  0  0  0  0  # atno 16480 bound_to 10939
   18.4853   -9.0963   37.3477 LP  0  0  0  0  0  0  0  0  0  0  0  0  # atno 16481 bound_to 10939
   12.0192   -7.5379   36.5732 LP  0  0  0  0  0  0  0  0  0  0  0  0  # atno 16483 bound_to 11039
   11.4281   -6.0746   35.8595 LP  0  0  0  0  0  0  0  0  0  0  0  0  # atno 16484 bound_to 11039
   10.4952  -13.5549   38.8250 LP  0  0  0  0  0  0  0  0  0  0  0  0  # atno 16485 bound_to 12045
    9.2211  -11.8705   27.3850 LP  0  0  0  0  0  0  0  0  0  0  0  0  # atno 16490 bound_to 15533
    9.3409  -14.5766   27.8455 LP  0  0  0  0  0  0  0  0  0  0  0  0  # atno 16491 bound_to 15579
    9.5103  -17.2676   26.8071 LP  0  0  0  0  0  0  0  0  0  0  0  0  # atno 16492 bound_to 15582
    8.1921  -18.2900   27.2728 LP  0  0  0  0  0  0  0  0  0  0  0  0  # atno 16493 bound_to 15582
    8.9025  -17.9571   29.1242 LP  0  0  0  0  0  0  0  0  0  0  0  0  # atno 16494 bound_to 15624
   22.0222  -11.9046   37.8945 LP  0  0  0  0  0  0  0  0  0  0  0  0  # atno 16495 bound_to 10907
   24.9392  -10.9034   37.2428 LP  0  0  0  0  0  0  0  0  0  0  0  0  # atno 16496 bound_to 6104
   25.8877   -9.8420   36.2560 LP  0  0  0  0  0  0  0  0  0  0  0  0  # atno 16497 bound_to 6104
   27.5563  -11.7746   37.5643 LP  0  0  0  0  0  0  0  0  0  0  0  0  # atno 16498 bound_to 6129
   28.9080   -9.3254   34.1010 LP  0  0  0  0  0  0  0  0  0  0  0  0  # atno 16499 bound_to 5910
   30.1703   -8.8655   33.0077 LP  0  0  0  0  0  0  0  0  0  0  0  0  # atno 16500 bound_to 5910
   29.6103  -10.5339   35.4705 LP  0  0  0  0  0  0  0  0  0  0  0  0  # atno 16501 bound_to 6101
   29.4909   -9.4558   36.9504 LP  0  0  0  0  0  0  0  0  0  0  0  0  # atno 16502 bound_to 5850
   27.7958   -9.1060   37.0176 LP  0  0  0  0  0  0  0  0  0  0  0  0  # atno 16503 bound_to 5850
   29.3651   -5.7760   37.0947 LP  0  0  0  0  0  0  0  0  0  0  0  0  # atno 16504 bound_to 5907
   28.5920  -13.6216   36.1101 LP  0  0  0  0  0  0  0  0  0  0  0  0  # atno 16505 bound_to 6051
   30.1797  -14.1188   36.5915 LP  0  0  0  0  0  0  0  0  0  0  0  0  # atno 16506 bound_to 6051
   32.3189  -11.1416   33.4241 LP  0  0  0  0  0  0  0  0  0  0  0  0  # atno 16507 bound_to 5982
   32.3207  -12.2289   34.7723 LP  0  0  0  0  0  0  0  0  0  0  0  0  # atno 16508 bound_to 5982
   31.5483   -7.3761   35.9662 LP  0  0  0  0  0  0  0  0  0  0  0  0  # atno 16509 bound_to 5979
   32.5884  -10.4048   35.9752 LP  0  0  0  0  0  0  0  0  0  0  0  0  # atno 16510 bound_to 6048
   12.1101   -3.5921   30.2209 LP  0  0  0  0  0  0  0  0  0  0  0  0  # atno 16511 bound_to 11145
   13.1403   -4.8850   30.7377 LP  0  0  0  0  0  0  0  0  0  0  0  0  # atno 16512 bound_to 11145
   15.3863   -2.1263   30.0561 LP  0  0  0  0  0  0  0  0  0  0  0  0  # atno 16513 bound_to 11196
   15.5132    0.6309   28.8097 LP  0  0  0  0  0  0  0  0  0  0  0  0  # atno 16514 bound_to 11199
   16.3665   -0.8742   28.8907 LP  0  0  0  0  0  0  0  0  0  0  0  0  # atno 16515 bound_to 11199
   13.5286   -1.0098   26.3452 LP  0  0  0  0  0  0  0  0  0  0  0  0  # atno 16516 bound_to 11229
   13.2674   -3.2087   33.8820 LP  0  0  0  0  0  0  0  0  0  0  0  0  # atno 16525 bound_to 11142
   14.1072   -1.4242   34.5793 LP  0  0  0  0  0  0  0  0  0  0  0  0  # atno 16530 bound_to 11085
   15.2679   -2.5621   35.1777 LP  0  0  0  0  0  0  0  0  0  0  0  0  # atno 16531 bound_to 11085
   14.0222   -4.2276   37.0702 LP  0  0  0  0  0  0  0  0  0  0  0  0  # atno 16533 bound_to 11082
   16.0489    3.3341   25.6768 LP  0  0  0  0  0  0  0  0  0  0  0  0  # atno 16538 bound_to 11232
   17.0027    2.2337   26.6145 LP  0  0  0  0  0  0  0  0  0  0  0  0  # atno 16539 bound_to 11232
   14.2720    1.9050   26.0081 LP  0  0  0  0  0  0  0  0  0  0  0  0  # atno 16542 bound_to 11266
   15.1085    3.1046   36.9559 LP  0  0  0  0  0  0  0  0  0  0  0  0  # atno 16548 bound_to 9421
   12.0223    2.9967   30.0890 LP  0  0  0  0  0  0  0  0  0  0  0  0  # atno 16549 bound_to 11269
   12.2909    1.9764   28.7154 LP  0  0  0  0  0  0  0  0  0  0  0  0  # atno 16550 bound_to 11269
   10.7062    3.2953   31.9866 LP  0  0  0  0  0  0  0  0  0  0  0  0  # atno 16552 bound_to 11318
   11.3942    4.5628   32.9459 LP  0  0  0  0  0  0  0  0  0  0  0  0  # atno 16553 bound_to 11318
   10.5366    2.1425   31.0425 LP  0  0  0  0  0  0  0  0  0  0  0  0  # atno 16554 bound_to 11466
   11.4178    5.7871   30.3528 LP  0  0  0  0  0  0  0  0  0  0  0  0  # atno 16555 bound_to 11358
   12.6317    8.6992   33.8688 LP  0  0  0  0  0  0  0  0  0  0  0  0  # atno 16556 bound_to 11538
   13.5188    7.4611   34.4576 LP  0  0  0  0  0  0  0  0  0  0  0  0  # atno 16557 bound_to 11538
   17.6679    8.1749   37.8052 LP  0  0  0  0  0  0  0  0  0  0  0  0  # atno 16558 bound_to 9314
   17.1298    9.5242   38.7485 LP  0  0  0  0  0  0  0  0  0  0  0  0  # atno 16559 bound_to 9314
   17.2285    7.1463   39.9499 LP  0  0  0  0  0  0  0  0  0  0  0  0  # atno 16560 bound_to 9335
   16.8998    4.0349   39.6599 LP  0  0  0  0  0  0  0  0  0  0  0  0  # atno 16561 bound_to 9338
   15.4415    4.9178   39.3536 LP  0  0  0  0  0  0  0  0  0  0  0  0  # atno 16562 bound_to 9338
   20.5948    6.5487   38.1255 LP  0  0  0  0  0  0  0  0  0  0  0  0  # atno 16563 bound_to 9341
   21.4085    5.1654   38.4274 LP  0  0  0  0  0  0  0  0  0  0  0  0  # atno 16564 bound_to 9341
   12.9641    3.2461   37.3001 LP  0  0  0  0  0  0  0  0  0  0  0  0  # atno 16565 bound_to 9380
   13.9040    2.6442   38.6246 LP  0  0  0  0  0  0  0  0  0  0  0  0  # atno 16566 bound_to 9380
   15.9671    1.0224   38.9633 LP  0  0  0  0  0  0  0  0  0  0  0  0  # atno 16567 bound_to 9469
   28.7581   -3.8034   37.4758 LP  0  0  0  0  0  0  0  0  0  0  0  0  # atno 16570 bound_to 5709
   30.3003   -4.5585   37.2488 LP  0  0  0  0  0  0  0  0  0  0  0  0  # atno 16571 bound_to 5709
   25.4071    1.3090   41.1019 LP  0  0  0  0  0  0  0  0  0  0  0  0  # atno 16574 bound_to 7822
   29.5465    3.5788   42.6210 LP  0  0  0  0  0  0  0  0  0  0  0  0  # atno 16575 bound_to 7825
   28.9212    4.3825   41.2199 LP  0  0  0  0  0  0  0  0  0  0  0  0  # atno 16576 bound_to 7825
   29.5202   -2.1825   41.4909 LP  0  0  0  0  0  0  0  0  0  0  0  0  # atno 16579 bound_to 5706
   31.5342   -1.7118   38.4468 LP  0  0  0  0  0  0  0  0  0  0  0  0  # atno 16580 bound_to 5761
   34.4008   -1.1324   36.8901 LP  0  0  0  0  0  0  0  0  0  0  0  0  # atno 16581 bound_to 5766
   33.5157   -2.0935   35.9105 LP  0  0  0  0  0  0  0  0  0  0  0  0  # atno 16582 bound_to 5766
   28.1040    0.4301   43.5010 LP  0  0  0  0  0  0  0  0  0  0  0  0  # atno 16583 bound_to 7781
   28.6730   -0.0776   41.9458 LP  0  0  0  0  0  0  0  0  0  0  0  0  # atno 16584 bound_to 7781
   27.1048    1.9896   43.1005 LP  0  0  0  0  0  0  0  0  0  0  0  0  # atno 16585 bound_to 7866
   15.0653   -1.0919   38.7320 LP  0  0  0  0  0  0  0  0  0  0  0  0  # atno 16593 bound_to 9424
   14.1929   -0.1728   39.9128 LP  0  0  0  0  0  0  0  0  0  0  0  0  # atno 16594 bound_to 9424
   20.4840   -2.9197   40.6030 LP  0  0  0  0  0  0  0  0  0  0  0  0  # atno 16595 bound_to 9480
   20.1570   -3.0362   42.1986 LP  0  0  0  0  0  0  0  0  0  0  0  0  # atno 16596 bound_to 9480
   19.9376    3.4966   43.6709 LP  0  0  0  0  0  0  0  0  0  0  0  0  # atno 16597 bound_to 7659
   19.8978    1.7905   43.3749 LP  0  0  0  0  0  0  0  0  0  0  0  0  # atno 16598 bound_to 7659
   25.7218    1.0200   44.0139 LP  0  0  0  0  0  0  0  0  0  0  0  0  # atno 16599 bound_to 7717
   24.5485    2.2852   44.1636 LP  0  0  0  0  0  0  0  0  0  0  0  0  # atno 16600 bound_to 7717
   22.7572    2.6353   44.6408 LP  0  0  0  0  0  0  0  0  0  0  0  0  # atno 16601 bound_to 7714
   18.6141   -5.9465   42.5811 LP  0  0  0  0  0  0  0  0  0  0  0  0  # atno 16602 bound_to 10532
   18.0327   -4.8538   41.3695 LP  0  0  0  0  0  0  0  0  0  0  0  0  # atno 16603 bound_to 10532
   16.9857   10.5064   41.8179 LP  0  0  0  0  0  0  0  0  0  0  0  0  # atno 16604 bound_to 9311
   28.0525   10.8769   25.7683 LP  0  0  0  0  0  0  0  0  0  0  0  0  # atno 16607 bound_to 15310
   27.0393   11.3325   26.9652 LP  0  0  0  0  0  0  0  0  0  0  0  0  # atno 16608 bound_to 15310
   18.0702    9.0148   45.0661 LP  0  0  0  0  0  0  0  0  0  0  0  0  # atno 16611 bound_to 7554
   17.7728    7.4137   44.4760 LP  0  0  0  0  0  0  0  0  0  0  0  0  # atno 16612 bound_to 7554
   21.7790    4.7890   43.6744 LP  0  0  0  0  0  0  0  0  0  0  0  0  # atno 16613 bound_to 7623
   22.8242    5.1096   45.0179 LP  0  0  0  0  0  0  0  0  0  0  0  0  # atno 16614 bound_to 7623
   13.5622   11.0950   42.2766 LP  0  0  0  0  0  0  0  0  0  0  0  0  # atno 16615 bound_to 9280
   14.8104    8.6791   41.8226 LP  0  0  0  0  0  0  0  0  0  0  0  0  # atno 16616 bound_to 9283
   15.5060    9.3171   43.2749 LP  0  0  0  0  0  0  0  0  0  0  0  0  # atno 16617 bound_to 9283
   13.8048   14.0864   39.7866 LP  0  0  0  0  0  0  0  0  0  0  0  0  # atno 16618 bound_to 9228
   14.8498   14.2571   41.1573 LP  0  0  0  0  0  0  0  0  0  0  0  0  # atno 16619 bound_to 9228
   19.6997    7.4713   47.2150 LP  0  0  0  0  0  0  0  0  0  0  0  0  # atno 16620 bound_to 7620
   10.8898   14.1486   42.8561 LP  0  0  0  0  0  0  0  0  0  0  0  0  # atno 16628 bound_to 9225
   13.7987    2.9998   39.9783 LP  0  0  0  0  0  0  0  0  0  0  0  0  # atno 16635 bound_to 9528
   23.4052   20.1120   36.3412 LP  0  0  0  0  0  0  0  0  0  0  0  0  # atno 16636 bound_to 3357
   23.8905   20.2122   38.0009 LP  0  0  0  0  0  0  0  0  0  0  0  0  # atno 16637 bound_to 3357
   22.0539   21.4056   41.0214 LP  0  0  0  0  0  0  0  0  0  0  0  0  # atno 16638 bound_to 3415
   21.8166   20.6144   39.4990 LP  0  0  0  0  0  0  0  0  0  0  0  0  # atno 16639 bound_to 3415
   25.0906   23.3289   37.6331 LP  0  0  0  0  0  0  0  0  0  0  0  0  # atno 16640 bound_to 3412
   25.2010   22.3774   39.8211 LP  0  0  0  0  0  0  0  0  0  0  0  0  # atno 16641 bound_to 3478
    8.5387   13.6880   43.9154 LP  0  0  0  0  0  0  0  0  0  0  0  0  # atno 16646 bound_to 9102
    8.9372   15.2819   43.3670 LP  0  0  0  0  0  0  0  0  0  0  0  0  # atno 16647 bound_to 9102
   10.5237   14.3108   45.9140 LP  0  0  0  0  0  0  0  0  0  0  0  0  # atno 16648 bound_to 9168
   14.9264   17.5664   47.8229 LP  0  0  0  0  0  0  0  0  0  0  0  0  # atno 16649 bound_to 9178
   14.9619   17.0472   46.2751 LP  0  0  0  0  0  0  0  0  0  0  0  0  # atno 16650 bound_to 9178
    9.9978   25.0794   36.7442 LP  0  0  0  0  0  0  0  0  0  0  0  0  # atno 16654 bound_to 6255
    9.7573   24.2564   35.3545 LP  0  0  0  0  0  0  0  0  0  0  0  0  # atno 16655 bound_to 6255
   13.3516   18.6804   48.2984 LP  0  0  0  0  0  0  0  0  0  0  0  0  # atno 16656 bound_to 9176
   11.7752   18.2791   48.1549 LP  0  0  0  0  0  0  0  0  0  0  0  0  # atno 16657 bound_to 9176

> <Gold.Score>
     Fitness  S(hb_ext) S(vdw_ext)  S(hb_int)    S(int)      intcor
     33.61       0.99      24.20       0.00      -0.65      -0.76

> <Gold.Goldscore.Fitness>
33.6129

> <Gold.Goldscore.Internal.Vdw>
-0.6988

> <Gold.Goldscore.Internal.Torsion>
-0.7139

> <Gold.Goldscore.External.Vdw>
24.2015

> <Gold.Goldscore.Internal.HBond>
0.0000

> <Gold.Goldscore.External.HBond>
0.9900

> <Gold.Goldscore.Internal.Correction>
-0.7585

> <Gold.Goldscore.Hbonds>
donor molecule, donor type, donor heavy atom, donor atom, acceptor molecule, acceptor atom, score
      P1  H 11142 11164       L1     9  0.50

> <Gold.Goldscore.Internal.Vdw.Weighted>
-0.6988

> <Gold.Goldscore.Internal.Torsion.Weighted>
-0.7139

> <Gold.Goldscore.External.Vdw.Weighted>
33.2770

> <Gold.Goldscore.Internal.HBond.Weighted>
0.0000

> <Gold.Goldscore.External.HBond.Weighted>
0.9900

> <Gold.Goldscore.Internal.Correction.Weighted>
-0.7585

> <Gold.Rescore>
     Score     S(PLP)   S(hbond)     S(cho)   S(metal)  DE(clash)   DE(tors)     intcor
     27.20     -29.69       0.00       0.00       0.00       0.00       1.24       ----

> <Gold.PLP.Fitness>
27.1981

> <Gold.PLP.PLP>
-29.6863

> <Gold.PLP.part.hbond>
-2.0239

> <Gold.PLP.part.metal>
0.0000

> <Gold.PLP.part.buried>
0.8437

> <Gold.PLP.part.nonpolar>
-33.7678

> <Gold.PLP.part.repulsive>
3.1881

> <Gold.PLP.ligand.clash>
0.0000

> <Gold.PLP.ligand.torsion>
1.2441

> <Gold.PLP.Chemscore.Hbond>
0.0000

> <Gold.PLP.Chemscore.CHOScore>
0.0000

> <Gold.PLP.Chemscore.Metal>
0.0000

> <Gold.PLP.Chemscore.Internal.Correction>
   9.000000E+99

