#       Name:                CT1002167954
#       Creating user name   hitesit
#       Creation time:       Sun Apr 16 20:19:59 2023


#       File generated by GOLD software.
#

@<TRIPOS>MOLECULE
CT1002167954|ligand_prepared|mol2|1|dock4
    29    30     1
SMALL
NO_CHARGES


@<TRIPOS>ATOM
      1 C1          19.9574  10.2686  36.3402 C.3            1 RES1               0.0000
      2 C2          18.5592  10.8480  36.6372 C.ar           1 RES1               0.0000
      3 C3          20.9123  10.9228  37.3345 C.2            1 RES1               0.0000
      4 C4          19.8350   8.7570  36.4975 C.2            1 RES1               0.0000
      5 C5          20.4635  10.5605  34.9084 C.3            1 RES1               0.0000
      6 C6          17.4792  10.5514  35.8111 C.ar           1 RES1               0.0000
      7 C7          18.3337  11.6769  37.7329 C.ar           1 RES1               0.0000
      8 N8          21.3687  10.1591  38.3682 N.am           1 RES1               0.0000
      9 O9          21.2287  12.1019  37.2355 O.2            1 RES1               0.0000
     10 N10         20.5294   8.1592  37.5164 N.am           1 RES1               0.0000
     11 O11         19.1303   8.0805  35.7586 O.2            1 RES1               0.0000
     12 C12         21.8729  10.0559  34.6414 C.3            1 RES1               0.0000
     13 C13         16.2188  11.0625  36.0726 C.ar           1 RES1               0.0000
     14 C14         17.0724  12.1871  37.9925 C.ar           1 RES1               0.0000
     15 C15         21.2664   8.7956  38.4777 C.2            1 RES1               0.0000
     16 C16         16.0144  11.8802  37.1635 C.ar           1 RES1               0.0000
     17 O17         21.8176   8.1935  39.3946 O.2            1 RES1               0.0000
     18 H18         19.7790  10.0931  34.1898 H              1 RES1               0.0000
     19 H19         20.4385  11.6441  34.7391 H              1 RES1               0.0000
     20 H20         17.6214   9.9117  34.9465 H              1 RES1               0.0000
     21 H21         19.1515  11.9327  38.3981 H              1 RES1               0.0000
     22 H22         21.8286  10.6470  39.1302 H              1 RES1               0.0000
     23 H23         20.4938   7.1458  37.5624 H              1 RES1               0.0000
     24 H24         22.1787  10.2865  33.6231 H              1 RES1               0.0000
     25 H25         22.5839  10.5195  35.3221 H              1 RES1               0.0000
     26 H26         21.9284   8.9776  34.7760 H              1 RES1               0.0000
     27 H27         15.3897  10.8191  35.4164 H              1 RES1               0.0000
     28 H28         16.9163  12.8308  38.8519 H              1 RES1               0.0000
     29 H29         15.0268  12.2801  37.3684 H              1 RES1               0.0000
@<TRIPOS>BOND
    1    1    2 1     
    2    1    3 1     
    3    1    4 1     
    4    1    5 1     
    5    2    6 ar    
    6    2    7 ar    
    7    3    8 1     
    8    3    9 2     
    9    4   10 1     
   10    4   11 2     
   11    5   12 1     
   12    5   18 1     
   13    5   19 1     
   14    6   13 ar    
   15    6   20 1     
   16    7   14 ar    
   17    7   21 1     
   18    8   15 1     
   19    8   22 1     
   20   10   15 1     
   21   10   23 1     
   22   12   24 1     
   23   12   25 1     
   24   12   26 1     
   25   13   16 ar    
   26   13   27 1     
   27   14   16 ar    
   28   14   28 1     
   29   15   17 2     
   30   16   29 1     
@<TRIPOS>SUBSTRUCTURE
      1 RES1           1
@<TRIPOS>SET
DONOR_HYDROGENS      STATIC     ATOMS    <user>   **** ""
2 22 23
ATOM$RED        STATIC     ATOMS    COLORGROUP SYSTEM
2 22 23
@<TRIPOS>COMMENT
> <Gold.Version>
2022.3.0

> <Gold.Id.Protein>
unknown|3mvj_clean|pdb

> <Gold.Protein.RotatedTorsions>
[ 10968 10947 10946 10944 ] final   85.42 input   60.01 | X-H torsion
[ 10728 10707 10706 10704 ] final  -84.91 input   59.96 | X-H torsion
[ 10960 10936 10937 10938 ] final -115.85 input   23.31 | X-H torsion
[ 12092 12045 12046 12047 ] final  162.21 input   63.71 | X-H torsion
[ 15542 15533 15534 15535 ] final   65.79 input   83.29 | X-H torsion
[ 15588 15579 15580 15581 ] final -124.55 input  107.67 | X-H torsion
[ 15633 15624 15625 15626 ] final   86.34 input   84.82 | X-H torsion
[ 10915 10907 10908 10909 ] final -170.52 input  -87.38 | X-H torsion
[ 6151 6129 6130 6131 ] final  111.85 input   27.76 | X-H torsion
[ 6109 6101 6102 6103 ] final   90.72 input  -93.79 | X-H torsion
[ 5929 5907 5908 5909 ] final  -60.37 input  119.25 | X-H torsion
[ 6001 5979 5980 5981 ] final -135.06 input  112.51 | X-H torsion
[ 6064 6048 6049 6050 ] final  -81.38 input  108.26 | X-H torsion
[ 11206 11196 11197 11198 ] final -146.83 input   -0.63 | X-H torsion
[ 11253 11229 11230 11231 ] final  -12.81 input  120.69 | X-H torsion
[ 11164 11142 11143 11144 ] final  -85.27 input   33.88 | X-H torsion
[ 11104 11082 11083 11084 ] final -113.66 input   45.00 | X-H torsion
[ 11300 11266 11267 11268 ] final   23.26 input   49.58 | X-H torsion
[ 9451 9421 9422 9423 ] final  -92.86 input  116.39 | X-H torsion
[ 11504 11466 11467 11468 ] final  -63.19 input  126.08 | X-H torsion
[ 11396 11358 11359 11360 ] final  102.01 input   98.08 | X-H torsion
[ 11577 11538 11537 11535 ] final -143.81 input   60.01 | X-H torsion
[ 9363 9335 9336 9337 ] final  157.38 input   84.14 | X-H torsion
[ 9369 9341 9339 9336 ] final -152.48 input   60.02 | X-H torsion
[ 9511 9469 9470 9471 ] final   76.38 input   75.21 | X-H torsion
[ 7840 7822 7823 7824 ] final  -38.60 input  121.36 | X-H torsion
[ 7742 7722 7721 7720 ] final  131.96 input   60.01 | X-H torsion
[ 5728 5706 5707 5708 ] final   46.60 input  119.20 | X-H torsion
[ 5773 5761 5762 5763 ] final  -82.08 input  120.20 | X-H torsion
[ 5777 5766 5765 5762 ] final   68.58 input   59.99 | X-H torsion
[ 7882 7866 7867 7868 ] final   93.96 input   81.17 | X-H torsion
[ 9519 9480 9479 9477 ] final   65.73 input   60.03 | X-H torsion
[ 7732 7714 7715 7716 ] final    6.69 input  -10.67 | X-H torsion
[ 15096 15054 15053 15052 ] final  -88.88 input   60.01 | X-H torsion
[ 9325 9311 9312 9313 ] final  -29.76 input  -66.31 | X-H torsion
[ 15182 15161 15160 15159 ] final  -66.37 input   59.99 | X-H torsion
[ 15326 15310 15309 15306 ] final  126.51 input   59.99 | X-H torsion
[ 9302 9280 9281 9282 ] final  158.12 input   22.77 | X-H torsion
[ 7636 7620 7621 7622 ] final  112.17 input   34.37 | X-H torsion
[ 9263 9225 9226 9227 ] final -170.86 input   96.07 | X-H torsion
[ 9566 9528 9529 9530 ] final  164.11 input   99.68 | X-H torsion
[ 3444 3412 3413 3414 ] final  125.82 input -120.58 | X-H torsion
[ 3506 3478 3479 3480 ] final  113.13 input   70.69 | X-H torsion
[ 9208 9168 9169 9170 ] final  103.20 input  115.65 | X-H torsion
[ 9216 9178 9175 9174 ] final -102.94 input   59.98 | X-H torsion
[ 6271 6255 6254 6251 ] final   78.58 input   60.00 | X-H torsion
[ 9214 9176 9175 9174 ] final   37.86 input   60.01 | X-H torsion
[ 12154 12142 12143 12144 ] final -130.89 input  108.55 | X-H torsion
[ 12021 11973 11974 11975 ] final  -86.08 input   68.31 | X-H torsion
[ 11450 11416 11417 11418 ] final   77.36 input  102.35 | X-H torsion
[ 5632 5608 5609 5610 ] final  -84.54 input  119.09 | X-H torsion
[ 10774 10756 10757 10758 ] final   19.76 input  129.22 | X-H torsion
[ 10816 10800 10801 10802 ] final   34.76 input  128.85 | X-H torsion
[ 8641 8619 8620 8621 ] final -160.08 input   87.35 | X-H torsion
[ 3661 3632 3633 3634 ] final  -48.96 input  116.97 | X-H torsion
[ 10029 10008 10007 10005 ] final -118.64 input   60.01 | X-H torsion
[ 16458 15536 15535 15534 ] final  -14.05 input    0.00 | X-H torsion
[ 16468 10881 10880 10879 ] final  -14.20 input    0.00 | X-H torsion
[ 16470 10910 10909 10908 ] final  173.76 input    0.00 | X-H torsion
[ 16473 10997 10996 10995 ] final   45.78 input    0.00 | X-H torsion
[ 16475 11976 11975 11974 ] final  114.11 input    0.00 | X-H torsion
[ 16477 12048 12047 12046 ] final   32.47 input    0.00 | X-H torsion
[ 16480 10939 10938 10937 ] final  -37.97 input   -0.00 | X-H torsion
[ 16483 11039 11038 11037 ] final  168.81 input    0.00 | X-H torsion
[ 16492 15582 15581 15580 ] final   56.18 input    0.00 | X-H torsion
[ 16496 6104 6103 6102 ] final  -28.18 input    0.00 | X-H torsion
[ 16499 5910 5909 5908 ] final   95.47 input   -0.00 | X-H torsion
[ 16502 5850 5849 5848 ] final  -45.24 input    0.00 | X-H torsion
[ 16505 6051 6050 6049 ] final   35.47 input    0.00 | X-H torsion
[ 16507 5982 5981 5980 ] final -100.18 input    0.00 | X-H torsion
[ 16511 11145 11144 11143 ] final  152.51 input    0.00 | X-H torsion
[ 16514 11199 11198 11197 ] final -120.73 input    0.00 | X-H torsion
[ 16530 11085 11084 11083 ] final -112.09 input   -0.00 | X-H torsion
[ 16538 11232 11231 11230 ] final   79.07 input    0.00 | X-H torsion
[ 16549 11269 11268 11267 ] final  -55.85 input   -0.00 | X-H torsion
[ 16552 11318 11317 11316 ] final  -59.95 input    0.00 | X-H torsion
[ 16558 9314 9313 9312 ] final   51.19 input    0.00 | X-H torsion
[ 16561 9338 9337 9336 ] final -111.72 input    0.00 | X-H torsion
[ 16565 9380 9379 9378 ] final  -47.22 input    0.00 | X-H torsion
[ 16570 5709 5708 5707 ] final  176.42 input    0.00 | X-H torsion
[ 16575 7825 7824 7823 ] final -139.81 input    0.00 | X-H torsion
[ 16583 7781 7780 7779 ] final  113.32 input   -0.00 | X-H torsion
[ 16593 9424 9423 9422 ] final   33.12 input   -0.00 | X-H torsion
[ 16597 7659 7658 7657 ] final -176.40 input   -0.00 | X-H torsion
[ 16599 7717 7716 7715 ] final   69.66 input    0.00 | X-H torsion
[ 16602 10532 10531 10530 ] final  111.94 input    0.00 | X-H torsion
[ 16611 7554 7553 7552 ] final  168.26 input    0.00 | X-H torsion
[ 16613 7623 7622 7621 ] final  155.42 input   -0.00 | X-H torsion
[ 16616 9283 9282 9281 ] final   33.17 input    0.00 | X-H torsion
[ 16618 9228 9227 9226 ] final -160.06 input   -0.00 | X-H torsion
[ 16636 3357 3356 3355 ] final   35.64 input   -0.00 | X-H torsion
[ 16638 3415 3414 3413 ] final -140.73 input   -0.00 | X-H torsion
[ 16646 9102 9101 9100 ] final   44.33 input    0.00 | X-H torsion

> <Gold.Protein.ActiveResidues>
 ARG45   SER53   PHE54   LEU82   LYS83   GLN84   GLU86   HIS87   GLU127  PHE129 
 SER130  HIS131  LEU132  ARG133  ARG134  ILE135  GLY136  ARG137  PHE138  SER139 
 HIS142  ARG165  ASP166  LEU167  LYS168  PRO169  GLU170  ASN171  ASP184  GLY186 
 PHE187  TRP196  TPO197  LEU198  CYS199  GLY200  THR201  PRO202  GLU203  TYR204 
 LEU205  ILE209  ILE210  TYR215  VAL226  LEU227  TYR229  GLU230  MET231  ALA233 
 GLY234  TYR235  PRO236  PRO237  PHE238  PHE239  ALA240  ASP241  GLN242  PRO243 
 ILE244  GLN245  ILE246  TYR247  LYS249  ARG256  PHE257  PRO258  SER259  HIS260 
 PRO313  PHE314  ILE315  LYS317  LYS319  SER325  ASN326  ASP328  ASP329  GLU331 
 GLU332  GLU333  GLU334 

> <Gold.Protein.RotatedAtoms>
   24.0372   22.6713   36.5325 H   0  0  0  0  0  0  0  0  0  0  0  0  # atno 3444 bound_to 3412
   25.1705   21.6762   39.2494 H   0  0  0  0  0  0  0  0  0  0  0  0  # atno 3506 bound_to 3478
   23.3344   20.2847   46.3037 H   0  0  0  0  0  0  0  0  0  0  0  0  # atno 3661 bound_to 3632
   35.5880   -1.1714   43.2044 H   0  0  0  0  0  0  0  0  0  0  0  0  # atno 5632 bound_to 5608
   31.0550   -1.9504   40.7181 H   0  0  0  0  0  0  0  0  0  0  0  0  # atno 5728 bound_to 5706
   30.5647   -2.6934   38.1293 H   0  0  0  0  0  0  0  0  0  0  0  0  # atno 5773 bound_to 5761
   33.7290   -1.2341   36.6147 H   0  0  0  0  0  0  0  0  0  0  0  0  # atno 5777 bound_to 5766
   29.0539   -7.4724   37.3388 H   0  0  0  0  0  0  0  0  0  0  0  0  # atno 5929 bound_to 5907
   31.0410   -7.2674   34.5036 H   0  0  0  0  0  0  0  0  0  0  0  0  # atno 6001 bound_to 5979
   32.1202  -10.4561   35.5113 H   0  0  0  0  0  0  0  0  0  0  0  0  # atno 6064 bound_to 6048
   29.7346  -11.9610   36.2412 H   0  0  0  0  0  0  0  0  0  0  0  0  # atno 6109 bound_to 6101
   26.5753  -13.0412   36.8987 H   0  0  0  0  0  0  0  0  0  0  0  0  # atno 6151 bound_to 6129
    9.5608   25.0287   36.1378 H   0  0  0  0  0  0  0  0  0  0  0  0  # atno 6271 bound_to 6255
   19.6687    7.4952   47.2247 H   0  0  0  0  0  0  0  0  0  0  0  0  # atno 7636 bound_to 7620
   23.0917    1.9998   45.0387 H   0  0  0  0  0  0  0  0  0  0  0  0  # atno 7732 bound_to 7714
   23.4556    6.6368   41.4841 H   0  0  0  0  0  0  0  0  0  0  0  0  # atno 7742 bound_to 7722
   22.2131    6.7654   40.3951 H   0  0  0  0  0  0  0  0  0  0  0  0  # atno 7743 bound_to 7722
   22.0892    5.7175   41.6736 H   0  0  0  0  0  0  0  0  0  0  0  0  # atno 7744 bound_to 7722
   26.5718    0.6889   42.0933 H   0  0  0  0  0  0  0  0  0  0  0  0  # atno 7840 bound_to 7822
   26.1103    2.5460   43.0058 H   0  0  0  0  0  0  0  0  0  0  0  0  # atno 7882 bound_to 7866
   22.6930   13.5629   45.9914 H   0  0  0  0  0  0  0  0  0  0  0  0  # atno 8641 bound_to 8619
   10.9700   15.1385   46.4023 H   0  0  0  0  0  0  0  0  0  0  0  0  # atno 9208 bound_to 9168
   11.8099   18.6663   47.2264 H   0  0  0  0  0  0  0  0  0  0  0  0  # atno 9214 bound_to 9176
   14.8272   15.9558   47.4225 H   0  0  0  0  0  0  0  0  0  0  0  0  # atno 9216 bound_to 9178
   10.7434   14.3018   42.5917 H   0  0  0  0  0  0  0  0  0  0  0  0  # atno 9263 bound_to 9225
   13.6990   12.7599   42.0918 H   0  0  0  0  0  0  0  0  0  0  0  0  # atno 9302 bound_to 9280
   17.1801   10.5017   40.1204 H   0  0  0  0  0  0  0  0  0  0  0  0  # atno 9325 bound_to 9311
   18.9240    6.9590   40.2744 H   0  0  0  0  0  0  0  0  0  0  0  0  # atno 9363 bound_to 9335
   21.3956    5.1884   38.3766 H   0  0  0  0  0  0  0  0  0  0  0  0  # atno 9369 bound_to 9341
   15.0855    3.0396   36.6274 H   0  0  0  0  0  0  0  0  0  0  0  0  # atno 9451 bound_to 9421
   16.1198    2.6783   39.1156 H   0  0  0  0  0  0  0  0  0  0  0  0  # atno 9511 bound_to 9469
   21.4551   -2.1834   41.3448 H   0  0  0  0  0  0  0  0  0  0  0  0  # atno 9519 bound_to 9480
   14.5393    3.5864   40.4063 H   0  0  0  0  0  0  0  0  0  0  0  0  # atno 9566 bound_to 9528
   13.3853   10.9635   46.1226 H   0  0  0  0  0  0  0  0  0  0  0  0  # atno 10029 bound_to 10008
   13.7218  -10.1156   36.7740 H   0  0  0  0  0  0  0  0  0  0  0  0  # atno 10728 bound_to 10707
   19.3725   -7.8338   42.0429 H   0  0  0  0  0  0  0  0  0  0  0  0  # atno 10774 bound_to 10756
   21.0842   -8.3407   41.8668 H   0  0  0  0  0  0  0  0  0  0  0  0  # atno 10816 bound_to 10800
   22.4165  -11.5603   38.3949 H   0  0  0  0  0  0  0  0  0  0  0  0  # atno 10915 bound_to 10907
   21.9598   -8.8113   36.4761 H   0  0  0  0  0  0  0  0  0  0  0  0  # atno 10960 bound_to 10936
   16.2193  -13.4278   33.9159 H   0  0  0  0  0  0  0  0  0  0  0  0  # atno 10968 bound_to 10947
   13.4171   -5.7283   36.4039 H   0  0  0  0  0  0  0  0  0  0  0  0  # atno 11104 bound_to 11082
   12.9449   -3.2310   33.6096 H   0  0  0  0  0  0  0  0  0  0  0  0  # atno 11164 bound_to 11142
   14.2648   -3.1949   30.2520 H   0  0  0  0  0  0  0  0  0  0  0  0  # atno 11206 bound_to 11196
   14.1015   -0.3612   27.5778 H   0  0  0  0  0  0  0  0  0  0  0  0  # atno 11253 bound_to 11229
   13.5867    1.4030   27.4838 H   0  0  0  0  0  0  0  0  0  0  0  0  # atno 11300 bound_to 11266
   11.1308    5.3106   29.1392 H   0  0  0  0  0  0  0  0  0  0  0  0  # atno 11396 bound_to 11358
   10.4092    3.0489   29.4806 H   0  0  0  0  0  0  0  0  0  0  0  0  # atno 11450 bound_to 11416
    9.6856    0.7597   30.9946 H   0  0  0  0  0  0  0  0  0  0  0  0  # atno 11504 bound_to 11466
   12.4001    8.9562   34.6229 H   0  0  0  0  0  0  0  0  0  0  0  0  # atno 11577 bound_to 11538
    8.7632  -11.0488   38.4497 H   0  0  0  0  0  0  0  0  0  0  0  0  # atno 12021 bound_to 11973
   10.4973  -13.5327   38.8355 H   0  0  0  0  0  0  0  0  0  0  0  0  # atno 12092 bound_to 12045
   14.3516  -18.1670   37.2304 H   0  0  0  0  0  0  0  0  0  0  0  0  # atno 12154 bound_to 12142
   27.0541   14.4541   34.7471 H   0  0  0  0  0  0  0  0  0  0  0  0  # atno 15096 bound_to 15054
   26.9099   15.8058   33.7985 H   0  0  0  0  0  0  0  0  0  0  0  0  # atno 15097 bound_to 15054
   26.0818   15.7055   35.2307 H   0  0  0  0  0  0  0  0  0  0  0  0  # atno 15098 bound_to 15054
   32.2413   12.2516   30.7857 H   0  0  0  0  0  0  0  0  0  0  0  0  # atno 15182 bound_to 15161
   31.0375   11.1130   30.7318 H   0  0  0  0  0  0  0  0  0  0  0  0  # atno 15183 bound_to 15161
   32.5039   10.7388   31.4087 H   0  0  0  0  0  0  0  0  0  0  0  0  # atno 15184 bound_to 15161
   26.9655   11.3822   26.9345 H   0  0  0  0  0  0  0  0  0  0  0  0  # atno 15326 bound_to 15310
    9.3080  -11.7869   27.2245 H   0  0  0  0  0  0  0  0  0  0  0  0  # atno 15542 bound_to 15533
    9.1033  -14.2555   28.2094 H   0  0  0  0  0  0  0  0  0  0  0  0  # atno 15588 bound_to 15579
    9.8145  -18.0800   30.5066 H   0  0  0  0  0  0  0  0  0  0  0  0  # atno 15633 bound_to 15624
   11.4782  -14.5498   27.0851 LP  0  0  0  0  0  0  0  0  0  0  0  0  # atno 16458 bound_to 15536
   11.0278  -15.1885   28.6308 LP  0  0  0  0  0  0  0  0  0  0  0  0  # atno 16459 bound_to 15536
   15.9891  -13.1048   35.4939 LP  0  0  0  0  0  0  0  0  0  0  0  0  # atno 16460 bound_to 10947
   17.2684  -14.0019   35.0192 LP  0  0  0  0  0  0  0  0  0  0  0  0  # atno 16461 bound_to 10947
   13.5208  -11.4720   37.6504 LP  0  0  0  0  0  0  0  0  0  0  0  0  # atno 16466 bound_to 10707
   14.8830  -11.2556   36.7762 LP  0  0  0  0  0  0  0  0  0  0  0  0  # atno 16467 bound_to 10707
   20.9613  -13.5934   36.4771 LP  0  0  0  0  0  0  0  0  0  0  0  0  # atno 16468 bound_to 10881
   21.8952  -12.3528   35.7097 LP  0  0  0  0  0  0  0  0  0  0  0  0  # atno 16469 bound_to 10881
   22.2337   -7.9842   34.4252 LP  0  0  0  0  0  0  0  0  0  0  0  0  # atno 16470 bound_to 10910
   23.7198   -8.7996   34.7815 LP  0  0  0  0  0  0  0  0  0  0  0  0  # atno 16471 bound_to 10910
   20.5266   -9.8075   36.5225 LP  0  0  0  0  0  0  0  0  0  0  0  0  # atno 16472 bound_to 10936
   16.6935   -7.2423   35.3314 LP  0  0  0  0  0  0  0  0  0  0  0  0  # atno 16473 bound_to 10997
   15.2268   -6.3211   35.3442 LP  0  0  0  0  0  0  0  0  0  0  0  0  # atno 16474 bound_to 10997
   12.0263  -11.5171   38.6710 LP  0  0  0  0  0  0  0  0  0  0  0  0  # atno 16475 bound_to 11976
   12.0872  -11.5407   36.9402 LP  0  0  0  0  0  0  0  0  0  0  0  0  # atno 16476 bound_to 11976
   11.6175  -15.9822   37.0893 LP  0  0  0  0  0  0  0  0  0  0  0  0  # atno 16477 bound_to 12048
   12.8865  -17.1363   37.3295 LP  0  0  0  0  0  0  0  0  0  0  0  0  # atno 16478 bound_to 12048
   18.7113   -9.1515   37.3964 LP  0  0  0  0  0  0  0  0  0  0  0  0  # atno 16480 bound_to 10939
   18.5890   -7.7455   38.4004 LP  0  0  0  0  0  0  0  0  0  0  0  0  # atno 16481 bound_to 10939
   11.4396   -6.0806   35.8386 LP  0  0  0  0  0  0  0  0  0  0  0  0  # atno 16483 bound_to 11039
   12.0077   -7.5319   36.5941 LP  0  0  0  0  0  0  0  0  0  0  0  0  # atno 16484 bound_to 11039
   10.9642  -14.2793   37.3272 LP  0  0  0  0  0  0  0  0  0  0  0  0  # atno 16485 bound_to 12045
    7.7108  -12.1767   26.6311 LP  0  0  0  0  0  0  0  0  0  0  0  0  # atno 16490 bound_to 15533
    7.9478  -15.3216   27.4331 LP  0  0  0  0  0  0  0  0  0  0  0  0  # atno 16491 bound_to 15579
    9.2928  -17.0711   26.8074 LP  0  0  0  0  0  0  0  0  0  0  0  0  # atno 16492 bound_to 15582
    8.4096  -18.4865   27.2725 LP  0  0  0  0  0  0  0  0  0  0  0  0  # atno 16493 bound_to 15582
    9.3003  -17.6762   28.8832 LP  0  0  0  0  0  0  0  0  0  0  0  0  # atno 16494 bound_to 15624
   21.0467  -10.6885   37.7395 LP  0  0  0  0  0  0  0  0  0  0  0  0  # atno 16495 bound_to 10907
   25.9066   -9.8205   36.3001 LP  0  0  0  0  0  0  0  0  0  0  0  0  # atno 16496 bound_to 6104
   24.9202  -10.9249   37.1987 LP  0  0  0  0  0  0  0  0  0  0  0  0  # atno 16497 bound_to 6104
   27.6784  -11.9138   37.6500 LP  0  0  0  0  0  0  0  0  0  0  0  0  # atno 16498 bound_to 6129
   29.8342   -8.5977   32.9100 LP  0  0  0  0  0  0  0  0  0  0  0  0  # atno 16499 bound_to 5910
   29.2441   -9.5932   34.1987 LP  0  0  0  0  0  0  0  0  0  0  0  0  # atno 16500 bound_to 5910
   29.4087  -10.2649   35.9985 LP  0  0  0  0  0  0  0  0  0  0  0  0  # atno 16501 bound_to 6101
   29.2148   -9.6083   37.5464 LP  0  0  0  0  0  0  0  0  0  0  0  0  # atno 16502 bound_to 5850
   28.0719   -8.9535   36.4216 LP  0  0  0  0  0  0  0  0  0  0  0  0  # atno 16503 bound_to 5850
   29.4871   -5.7990   37.0898 LP  0  0  0  0  0  0  0  0  0  0  0  0  # atno 16504 bound_to 5907
   29.8066  -14.0215   37.0925 LP  0  0  0  0  0  0  0  0  0  0  0  0  # atno 16505 bound_to 6051
   28.9651  -13.7190   35.6091 LP  0  0  0  0  0  0  0  0  0  0  0  0  # atno 16506 bound_to 6051
   31.4717  -11.7000   33.9234 LP  0  0  0  0  0  0  0  0  0  0  0  0  # atno 16507 bound_to 5982
   33.1679  -11.6704   34.2730 LP  0  0  0  0  0  0  0  0  0  0  0  0  # atno 16508 bound_to 5982
   31.0321   -7.9659   36.1089 LP  0  0  0  0  0  0  0  0  0  0  0  0  # atno 16509 bound_to 5979
   31.5872   -9.6740   36.9817 LP  0  0  0  0  0  0  0  0  0  0  0  0  # atno 16510 bound_to 6048
   12.2925   -3.6990   29.8892 LP  0  0  0  0  0  0  0  0  0  0  0  0  # atno 16511 bound_to 11145
   12.9579   -4.7781   31.0694 LP  0  0  0  0  0  0  0  0  0  0  0  0  # atno 16512 bound_to 11145
   14.9543   -1.5896   30.4274 LP  0  0  0  0  0  0  0  0  0  0  0  0  # atno 16513 bound_to 11196
   15.5967    0.6534   28.6726 LP  0  0  0  0  0  0  0  0  0  0  0  0  # atno 16514 bound_to 11199
   16.2829   -0.8967   29.0278 LP  0  0  0  0  0  0  0  0  0  0  0  0  # atno 16515 bound_to 11199
   14.2045   -1.5704   26.3125 LP  0  0  0  0  0  0  0  0  0  0  0  0  # atno 16516 bound_to 11229
   13.8458   -4.7013   33.3558 LP  0  0  0  0  0  0  0  0  0  0  0  0  # atno 16525 bound_to 11142
   14.2253   -1.4464   34.3912 LP  0  0  0  0  0  0  0  0  0  0  0  0  # atno 16530 bound_to 11085
   15.1497   -2.5398   35.3659 LP  0  0  0  0  0  0  0  0  0  0  0  0  # atno 16531 bound_to 11085
   14.0559   -4.2293   37.0435 LP  0  0  0  0  0  0  0  0  0  0  0  0  # atno 16533 bound_to 11082
   16.2994    2.9265   25.3220 LP  0  0  0  0  0  0  0  0  0  0  0  0  # atno 16538 bound_to 11232
   16.7522    2.6413   26.9693 LP  0  0  0  0  0  0  0  0  0  0  0  0  # atno 16539 bound_to 11232
   14.6442    1.9470   26.1921 LP  0  0  0  0  0  0  0  0  0  0  0  0  # atno 16542 bound_to 11266
   16.7840    2.8120   36.9524 LP  0  0  0  0  0  0  0  0  0  0  0  0  # atno 16548 bound_to 9421
   11.5925    2.6246   28.7598 LP  0  0  0  0  0  0  0  0  0  0  0  0  # atno 16549 bound_to 11269
   12.7206    2.3484   30.0447 LP  0  0  0  0  0  0  0  0  0  0  0  0  # atno 16550 bound_to 11269
   11.5343    3.2358   32.2789 LP  0  0  0  0  0  0  0  0  0  0  0  0  # atno 16552 bound_to 11318
   10.5661    4.6223   32.6536 LP  0  0  0  0  0  0  0  0  0  0  0  0  # atno 16553 bound_to 11318
   11.0509    1.8398   30.8027 LP  0  0  0  0  0  0  0  0  0  0  0  0  # atno 16554 bound_to 11466
   11.4435    4.7438   30.7526 LP  0  0  0  0  0  0  0  0  0  0  0  0  # atno 16555 bound_to 11358
   13.2564    7.8618   33.7765 LP  0  0  0  0  0  0  0  0  0  0  0  0  # atno 16556 bound_to 11538
   13.2246    7.7937   35.4078 LP  0  0  0  0  0  0  0  0  0  0  0  0  # atno 16557 bound_to 11538
   17.9680    9.4675   38.4867 LP  0  0  0  0  0  0  0  0  0  0  0  0  # atno 16558 bound_to 9314
   16.8296    8.2315   38.0669 LP  0  0  0  0  0  0  0  0  0  0  0  0  # atno 16559 bound_to 9314
   17.1927    6.9835   40.0418 LP  0  0  0  0  0  0  0  0  0  0  0  0  # atno 16560 bound_to 9335
   16.3197    3.7245   39.1038 LP  0  0  0  0  0  0  0  0  0  0  0  0  # atno 16561 bound_to 9338
   16.0216    5.2283   39.9097 LP  0  0  0  0  0  0  0  0  0  0  0  0  # atno 16562 bound_to 9338
   20.8340    5.9959   39.6733 LP  0  0  0  0  0  0  0  0  0  0  0  0  # atno 16563 bound_to 9341
   20.5743    6.5783   38.1700 LP  0  0  0  0  0  0  0  0  0  0  0  0  # atno 16564 bound_to 9341
   13.5416    3.6364   38.4729 LP  0  0  0  0  0  0  0  0  0  0  0  0  # atno 16565 bound_to 9380
   13.3265    2.2539   37.4519 LP  0  0  0  0  0  0  0  0  0  0  0  0  # atno 16566 bound_to 9380
   15.4533    1.0670   38.9637 LP  0  0  0  0  0  0  0  0  0  0  0  0  # atno 16567 bound_to 9469
   30.2905   -4.3152   36.9719 LP  0  0  0  0  0  0  0  0  0  0  0  0  # atno 16570 bound_to 5709
   28.7679   -4.0467   37.7527 LP  0  0  0  0  0  0  0  0  0  0  0  0  # atno 16571 bound_to 5709
   25.5873    0.9788   40.6806 LP  0  0  0  0  0  0  0  0  0  0  0  0  # atno 16574 bound_to 7822
   29.4562    3.7259   42.7177 LP  0  0  0  0  0  0  0  0  0  0  0  0  # atno 16575 bound_to 7825
   29.0114    4.2354   41.1232 LP  0  0  0  0  0  0  0  0  0  0  0  0  # atno 16576 bound_to 7825
   29.5464   -2.3785   41.4847 LP  0  0  0  0  0  0  0  0  0  0  0  0  # atno 16579 bound_to 5706
   31.8695   -2.2764   39.2167 LP  0  0  0  0  0  0  0  0  0  0  0  0  # atno 16580 bound_to 5761
   34.0561   -2.5589   35.7287 LP  0  0  0  0  0  0  0  0  0  0  0  0  # atno 16581 bound_to 5766
   35.2347   -1.8506   36.6095 LP  0  0  0  0  0  0  0  0  0  0  0  0  # atno 16582 bound_to 5766
   28.6808   -0.0222   41.9327 LP  0  0  0  0  0  0  0  0  0  0  0  0  # atno 16583 bound_to 7781
   28.0962    0.3747   43.5141 LP  0  0  0  0  0  0  0  0  0  0  0  0  # atno 16584 bound_to 7781
   27.7099    2.8930   42.3831 LP  0  0  0  0  0  0  0  0  0  0  0  0  # atno 16585 bound_to 7866
   15.0027   -1.0801   38.6821 LP  0  0  0  0  0  0  0  0  0  0  0  0  # atno 16593 bound_to 9424
   14.2555   -0.1847   39.9627 LP  0  0  0  0  0  0  0  0  0  0  0  0  # atno 16594 bound_to 9424
   20.2296   -3.0864   40.7697 LP  0  0  0  0  0  0  0  0  0  0  0  0  # atno 16595 bound_to 9480
   20.3939   -2.8574   42.3782 LP  0  0  0  0  0  0  0  0  0  0  0  0  # atno 16596 bound_to 9480
   20.3636    2.1620   42.9578 LP  0  0  0  0  0  0  0  0  0  0  0  0  # atno 16597 bound_to 7659
   19.4718    3.1251   44.0880 LP  0  0  0  0  0  0  0  0  0  0  0  0  # atno 16598 bound_to 7659
   24.8022    1.3496   44.8286 LP  0  0  0  0  0  0  0  0  0  0  0  0  # atno 16599 bound_to 7717
   25.4681    1.9556   43.3489 LP  0  0  0  0  0  0  0  0  0  0  0  0  # atno 16600 bound_to 7717
   21.3682    2.0209   44.7357 LP  0  0  0  0  0  0  0  0  0  0  0  0  # atno 16601 bound_to 7714
   18.8056   -4.7213   41.7372 LP  0  0  0  0  0  0  0  0  0  0  0  0  # atno 16602 bound_to 10532
   17.8412   -6.0790   42.2134 LP  0  0  0  0  0  0  0  0  0  0  0  0  # atno 16603 bound_to 10532
   16.6659   10.3465   41.7826 LP  0  0  0  0  0  0  0  0  0  0  0  0  # atno 16604 bound_to 9311
   26.7928   11.7447   25.3573 LP  0  0  0  0  0  0  0  0  0  0  0  0  # atno 16607 bound_to 15310
   28.0663   10.8538   25.8584 LP  0  0  0  0  0  0  0  0  0  0  0  0  # atno 16608 bound_to 15310
   18.6896    7.9620   44.4607 LP  0  0  0  0  0  0  0  0  0  0  0  0  # atno 16611 bound_to 7554
   17.1534    8.4666   45.0815 LP  0  0  0  0  0  0  0  0  0  0  0  0  # atno 16612 bound_to 7554
   22.5492    4.3018   44.8652 LP  0  0  0  0  0  0  0  0  0  0  0  0  # atno 16613 bound_to 7623
   22.0540    5.5968   43.8271 LP  0  0  0  0  0  0  0  0  0  0  0  0  # atno 16614 bound_to 7623
   13.4423   11.0587   41.8534 LP  0  0  0  0  0  0  0  0  0  0  0  0  # atno 16615 bound_to 9280
   14.3998    9.3487   42.3209 LP  0  0  0  0  0  0  0  0  0  0  0  0  # atno 16616 bound_to 9283
   15.9166    8.6475   42.7765 LP  0  0  0  0  0  0  0  0  0  0  0  0  # atno 16617 bound_to 9283
   14.9993   13.6366   40.3621 LP  0  0  0  0  0  0  0  0  0  0  0  0  # atno 16618 bound_to 9228
   13.6554   14.7070   40.5818 LP  0  0  0  0  0  0  0  0  0  0  0  0  # atno 16619 bound_to 9228
   18.5695    6.2999   46.5989 LP  0  0  0  0  0  0  0  0  0  0  0  0  # atno 16620 bound_to 7620
   12.4232   14.7601   42.4619 LP  0  0  0  0  0  0  0  0  0  0  0  0  # atno 16628 bound_to 9225
   13.7709    2.1775   41.0982 LP  0  0  0  0  0  0  0  0  0  0  0  0  # atno 16635 bound_to 9528
   24.3653   19.7165   36.9797 LP  0  0  0  0  0  0  0  0  0  0  0  0  # atno 16636 bound_to 3357
   22.9304   20.6077   37.3625 LP  0  0  0  0  0  0  0  0  0  0  0  0  # atno 16637 bound_to 3357
   22.2700   21.0731   41.0564 LP  0  0  0  0  0  0  0  0  0  0  0  0  # atno 16638 bound_to 3415
   21.6005   20.9469   39.4640 LP  0  0  0  0  0  0  0  0  0  0  0  0  # atno 16639 bound_to 3415
   25.2110   22.8317   37.8188 LP  0  0  0  0  0  0  0  0  0  0  0  0  # atno 16640 bound_to 3412
   23.7634   22.2497   40.1186 LP  0  0  0  0  0  0  0  0  0  0  0  0  # atno 16641 bound_to 3478
    8.0590   15.0081   43.7652 LP  0  0  0  0  0  0  0  0  0  0  0  0  # atno 16646 bound_to 9102
    9.4169   13.9618   43.5173 LP  0  0  0  0  0  0  0  0  0  0  0  0  # atno 16647 bound_to 9102
    9.6248   15.1462   45.2909 LP  0  0  0  0  0  0  0  0  0  0  0  0  # atno 16648 bound_to 9168
   14.9202   17.5158   47.8760 LP  0  0  0  0  0  0  0  0  0  0  0  0  # atno 16649 bound_to 9178
   14.9662   17.1186   46.2927 LP  0  0  0  0  0  0  0  0  0  0  0  0  # atno 16650 bound_to 9178
   10.3330   23.7794   35.4373 LP  0  0  0  0  0  0  0  0  0  0  0  0  # atno 16654 bound_to 6255
   10.8562   24.3680   36.8678 LP  0  0  0  0  0  0  0  0  0  0  0  0  # atno 16655 bound_to 6255
   13.3768   19.0175   47.4924 LP  0  0  0  0  0  0  0  0  0  0  0  0  # atno 16656 bound_to 9176
   12.4930   18.2846   48.6536 LP  0  0  0  0  0  0  0  0  0  0  0  0  # atno 16657 bound_to 9176

> <Gold.Score>
     Fitness  S(hb_ext) S(vdw_ext)  S(hb_int)    S(int)      intcor
     29.96       6.47      18.50       0.00      -1.95      -0.76

> <Gold.Goldscore.Fitness>
29.9557

> <Gold.Goldscore.Internal.Vdw>
-2.3277

> <Gold.Goldscore.Internal.Torsion>
-0.3855

> <Gold.Goldscore.External.Vdw>
18.5003

> <Gold.Goldscore.Internal.HBond>
0.0000

> <Gold.Goldscore.External.HBond>
6.4725

> <Gold.Goldscore.Internal.Correction>
-0.7585

> <Gold.Goldscore.Hbonds>
donor molecule, donor type, donor heavy atom, donor atom, acceptor molecule, acceptor atom, score
      P1  H  7722  7743       L1    17  1.00
      L1  H    10    23       P1  9341  0.24

> <Gold.Goldscore.Internal.Vdw.Weighted>
-2.3277

> <Gold.Goldscore.Internal.Torsion.Weighted>
-0.3855

> <Gold.Goldscore.External.Vdw.Weighted>
25.4379

> <Gold.Goldscore.Internal.HBond.Weighted>
0.0000

> <Gold.Goldscore.External.HBond.Weighted>
6.4725

> <Gold.Goldscore.Internal.Correction.Weighted>
-0.7585

> <Gold.Rescore>
     Score     S(PLP)   S(hbond)     S(cho)   S(metal)  DE(clash)   DE(tors)     intcor
     29.73     -25.40       1.93       0.00       0.00       1.19       0.14       ----

> <Gold.PLP.Fitness>
29.7329

> <Gold.PLP.PLP>
-25.4044

> <Gold.PLP.part.hbond>
-2.4336

> <Gold.PLP.part.metal>
0.0000

> <Gold.PLP.part.buried>
-1.9685

> <Gold.PLP.part.nonpolar>
-21.2906

> <Gold.PLP.part.repulsive>
0.3061

> <Gold.PLP.ligand.clash>
1.1852

> <Gold.PLP.ligand.torsion>
0.1352

> <Gold.PLP.Chemscore.Hbond>
1.9280

> <Gold.PLP.Chemscore.CHOScore>
0.0000

> <Gold.PLP.Chemscore.Metal>
0.0000

> <Gold.Chemscore.Hbonds>
donor molecule, donor type, donor heavy atom, donor atom, acceptor molecule, acceptor atom, score
      L1  H    10    23       P1  9341  0.85
      P1  H  7722  7743       L1    17  1.00

> <Gold.PLP.Chemscore.Internal.Correction>
   9.000000E+99

