#       Name:                CT1002167954
#       Creating user name   hitesit
#       Creation time:       Sun Apr 16 20:20:07 2023


#       File generated by GOLD software.
#

@<TRIPOS>MOLECULE
CT1002167954|ligand_prepared|mol2|1|dock7
    29    30     1
SMALL
NO_CHARGES


@<TRIPOS>ATOM
      1 C1          19.6308  16.4209  33.9399 C.3            1 RES1               0.0000
      2 C2          20.9951  16.9797  33.4867 C.ar           1 RES1               0.0000
      3 C3          18.5913  17.0029  32.9866 C.2            1 RES1               0.0000
      4 C4          19.7502  14.9021  33.8784 C.2            1 RES1               0.0000
      5 C5          19.2447  16.8115  35.3856 C.3            1 RES1               0.0000
      6 C6          21.8553  17.5781  34.4024 C.ar           1 RES1               0.0000
      7 C7          21.4076  16.9018  32.1592 C.ar           1 RES1               0.0000
      8 N8          18.0550  16.1684  32.0507 N.am           1 RES1               0.0000
      9 O9          18.2761  18.1857  33.0297 O.2            1 RES1               0.0000
     10 N10         18.9768  14.2338  32.9657 N.am           1 RES1               0.0000
     11 O11         20.5191  14.2796  34.6005 O.2            1 RES1               0.0000
     12 C12         17.8383  16.3890  35.7800 C.3            1 RES1               0.0000
     13 C13         23.0847  18.0780  34.0061 C.ar           1 RES1               0.0000
     14 C14         22.6373  17.4025  31.7648 C.ar           1 RES1               0.0000
     15 C15         18.1573  14.8007  32.0280 C.2            1 RES1               0.0000
     16 C16         23.4767  17.9901  32.6873 C.ar           1 RES1               0.0000
     17 O17         17.5353  14.1353  31.2048 O.2            1 RES1               0.0000
     18 H18         19.9593  16.3507  36.0787 H              1 RES1               0.0000
     19 H19         19.3291  17.9001  35.4917 H              1 RES1               0.0000
     20 H20         21.5629  17.6585  35.4441 H              1 RES1               0.0000
     21 H21         20.7632  16.4447  31.4159 H              1 RES1               0.0000
     22 H22         17.5293  16.6014  31.2980 H              1 RES1               0.0000
     23 H23         19.0156  13.2197  32.9874 H              1 RES1               0.0000
     24 H24         17.6186  16.6872  36.8030 H              1 RES1               0.0000
     25 H25         17.0998  16.8492  35.1269 H              1 RES1               0.0000
     26 H26         17.7263  15.3089  35.7104 H              1 RES1               0.0000
     27 H27         23.7410  18.5407  34.7357 H              1 RES1               0.0000
     28 H28         22.9415  17.3318  30.7258 H              1 RES1               0.0000
     29 H29         24.4400  18.3814  32.3771 H              1 RES1               0.0000
@<TRIPOS>BOND
    1    1    2 1     
    2    1    3 1     
    3    1    4 1     
    4    1    5 1     
    5    2    6 ar    
    6    2    7 ar    
    7    3    8 1     
    8    3    9 2     
    9    4   10 1     
   10    4   11 2     
   11    5   12 1     
   12    5   18 1     
   13    5   19 1     
   14    6   13 ar    
   15    6   20 1     
   16    7   14 ar    
   17    7   21 1     
   18    8   15 1     
   19    8   22 1     
   20   10   15 1     
   21   10   23 1     
   22   12   24 1     
   23   12   25 1     
   24   12   26 1     
   25   13   16 ar    
   26   13   27 1     
   27   14   16 ar    
   28   14   28 1     
   29   15   17 2     
   30   16   29 1     
@<TRIPOS>SUBSTRUCTURE
      1 RES1           1
@<TRIPOS>SET
DONOR_HYDROGENS      STATIC     ATOMS    <user>   **** ""
2 22 23
ATOM$RED        STATIC     ATOMS    COLORGROUP SYSTEM
2 22 23
@<TRIPOS>COMMENT
> <Gold.Version>
2022.3.0

> <Gold.Id.Protein>
unknown|3mvj_clean|pdb

> <Gold.Protein.RotatedTorsions>
[ 10968 10947 10946 10944 ] final  -33.62 input   60.01 | X-H torsion
[ 10728 10707 10706 10704 ] final  127.61 input   59.96 | X-H torsion
[ 10960 10936 10937 10938 ] final  150.10 input   23.31 | X-H torsion
[ 12092 12045 12046 12047 ] final   35.72 input   63.71 | X-H torsion
[ 15542 15533 15534 15535 ] final  133.98 input   83.29 | X-H torsion
[ 15588 15579 15580 15581 ] final   -0.57 input  107.67 | X-H torsion
[ 15633 15624 15625 15626 ] final  156.61 input   84.82 | X-H torsion
[ 10915 10907 10908 10909 ] final -113.76 input  -87.38 | X-H torsion
[ 6151 6129 6130 6131 ] final  -94.28 input   27.76 | X-H torsion
[ 6109 6101 6102 6103 ] final   30.26 input  -93.79 | X-H torsion
[ 5929 5907 5908 5909 ] final  -49.24 input  119.25 | X-H torsion
[ 6001 5979 5980 5981 ] final -124.89 input  112.51 | X-H torsion
[ 6064 6048 6049 6050 ] final   11.46 input  108.26 | X-H torsion
[ 11206 11196 11197 11198 ] final   79.57 input   -0.63 | X-H torsion
[ 11253 11229 11230 11231 ] final -167.50 input  120.69 | X-H torsion
[ 11164 11142 11143 11144 ] final -122.12 input   33.88 | X-H torsion
[ 11104 11082 11083 11084 ] final  108.38 input   45.00 | X-H torsion
[ 11300 11266 11267 11268 ] final    3.20 input   49.58 | X-H torsion
[ 9451 9421 9422 9423 ] final  123.48 input  116.39 | X-H torsion
[ 11504 11466 11467 11468 ] final  -41.08 input  126.08 | X-H torsion
[ 11396 11358 11359 11360 ] final  -43.72 input   98.08 | X-H torsion
[ 11577 11538 11537 11535 ] final -139.51 input   60.01 | X-H torsion
[ 9363 9335 9336 9337 ] final -157.51 input   84.14 | X-H torsion
[ 9369 9341 9339 9336 ] final  -35.42 input   60.02 | X-H torsion
[ 9511 9469 9470 9471 ] final -149.57 input   75.21 | X-H torsion
[ 7840 7822 7823 7824 ] final -102.03 input  121.36 | X-H torsion
[ 7742 7722 7721 7720 ] final -117.03 input   60.01 | X-H torsion
[ 5728 5706 5707 5708 ] final   81.34 input  119.20 | X-H torsion
[ 5773 5761 5762 5763 ] final -155.59 input  120.20 | X-H torsion
[ 5777 5766 5765 5762 ] final  161.50 input   59.99 | X-H torsion
[ 7882 7866 7867 7868 ] final  -28.29 input   81.17 | X-H torsion
[ 9519 9480 9479 9477 ] final  158.49 input   60.03 | X-H torsion
[ 7732 7714 7715 7716 ] final  -76.74 input  -10.67 | X-H torsion
[ 15096 15054 15053 15052 ] final   10.64 input   60.01 | X-H torsion
[ 9325 9311 9312 9313 ] final -137.93 input  -66.31 | X-H torsion
[ 15182 15161 15160 15159 ] final  137.51 input   59.99 | X-H torsion
[ 15326 15310 15309 15306 ] final  161.39 input   59.99 | X-H torsion
[ 9302 9280 9281 9282 ] final -137.40 input   22.77 | X-H torsion
[ 7636 7620 7621 7622 ] final   75.24 input   34.37 | X-H torsion
[ 9263 9225 9226 9227 ] final   79.28 input   96.07 | X-H torsion
[ 9566 9528 9529 9530 ] final -126.64 input   99.68 | X-H torsion
[ 3444 3412 3413 3414 ] final   54.06 input -120.58 | X-H torsion
[ 3506 3478 3479 3480 ] final  -86.66 input   70.69 | X-H torsion
[ 9208 9168 9169 9170 ] final -155.67 input  115.65 | X-H torsion
[ 9216 9178 9175 9174 ] final  164.19 input   59.98 | X-H torsion
[ 6271 6255 6254 6251 ] final -166.28 input   60.00 | X-H torsion
[ 9214 9176 9175 9174 ] final -136.70 input   60.01 | X-H torsion
[ 12154 12142 12143 12144 ] final -145.96 input  108.55 | X-H torsion
[ 12021 11973 11974 11975 ] final  176.77 input   68.31 | X-H torsion
[ 11450 11416 11417 11418 ] final  -31.07 input  102.35 | X-H torsion
[ 5632 5608 5609 5610 ] final   36.21 input  119.09 | X-H torsion
[ 10774 10756 10757 10758 ] final  137.69 input  129.22 | X-H torsion
[ 10816 10800 10801 10802 ] final -110.18 input  128.85 | X-H torsion
[ 8641 8619 8620 8621 ] final    5.81 input   87.35 | X-H torsion
[ 3661 3632 3633 3634 ] final  157.93 input  116.97 | X-H torsion
[ 10029 10008 10007 10005 ] final  -73.61 input   60.01 | X-H torsion
[ 16458 15536 15535 15534 ] final   57.78 input    0.00 | X-H torsion
[ 16468 10881 10880 10879 ] final -172.94 input    0.00 | X-H torsion
[ 16470 10910 10909 10908 ] final -178.58 input    0.00 | X-H torsion
[ 16473 10997 10996 10995 ] final    7.06 input    0.00 | X-H torsion
[ 16475 11976 11975 11974 ] final  165.96 input    0.00 | X-H torsion
[ 16477 12048 12047 12046 ] final -167.35 input    0.00 | X-H torsion
[ 16480 10939 10938 10937 ] final  146.23 input   -0.00 | X-H torsion
[ 16483 11039 11038 11037 ] final  178.53 input    0.00 | X-H torsion
[ 16492 15582 15581 15580 ] final  101.29 input    0.00 | X-H torsion
[ 16496 6104 6103 6102 ] final  -23.97 input    0.00 | X-H torsion
[ 16499 5910 5909 5908 ] final   -5.69 input   -0.00 | X-H torsion
[ 16502 5850 5849 5848 ] final  119.44 input    0.00 | X-H torsion
[ 16505 6051 6050 6049 ] final  130.67 input    0.00 | X-H torsion
[ 16507 5982 5981 5980 ] final  -24.12 input    0.00 | X-H torsion
[ 16511 11145 11144 11143 ] final  179.88 input    0.00 | X-H torsion
[ 16514 11199 11198 11197 ] final   84.14 input    0.00 | X-H torsion
[ 16530 11085 11084 11083 ] final  -25.71 input   -0.00 | X-H torsion
[ 16538 11232 11231 11230 ] final  162.80 input    0.00 | X-H torsion
[ 16549 11269 11268 11267 ] final  178.34 input   -0.00 | X-H torsion
[ 16552 11318 11317 11316 ] final -149.37 input    0.00 | X-H torsion
[ 16558 9314 9313 9312 ] final -114.23 input    0.00 | X-H torsion
[ 16561 9338 9337 9336 ] final  -35.49 input    0.00 | X-H torsion
[ 16565 9380 9379 9378 ] final   65.63 input    0.00 | X-H torsion
[ 16570 5709 5708 5707 ] final  -52.31 input    0.00 | X-H torsion
[ 16575 7825 7824 7823 ] final  138.07 input    0.00 | X-H torsion
[ 16583 7781 7780 7779 ] final   23.38 input   -0.00 | X-H torsion
[ 16593 9424 9423 9422 ] final  -35.64 input   -0.00 | X-H torsion
[ 16597 7659 7658 7657 ] final -115.87 input   -0.00 | X-H torsion
[ 16599 7717 7716 7715 ] final   44.61 input    0.00 | X-H torsion
[ 16602 10532 10531 10530 ] final   17.96 input    0.00 | X-H torsion
[ 16611 7554 7553 7552 ] final  171.26 input    0.00 | X-H torsion
[ 16613 7623 7622 7621 ] final  179.87 input   -0.00 | X-H torsion
[ 16616 9283 9282 9281 ] final  152.99 input    0.00 | X-H torsion
[ 16618 9228 9227 9226 ] final   68.60 input   -0.00 | X-H torsion
[ 16636 3357 3356 3355 ] final -131.18 input   -0.00 | X-H torsion
[ 16638 3415 3414 3413 ] final  -77.82 input   -0.00 | X-H torsion
[ 16646 9102 9101 9100 ] final  155.31 input    0.00 | X-H torsion

> <Gold.Protein.ActiveResidues>
 ARG45   SER53   PHE54   LEU82   LYS83   GLN84   GLU86   HIS87   GLU127  PHE129 
 SER130  HIS131  LEU132  ARG133  ARG134  ILE135  GLY136  ARG137  PHE138  SER139 
 HIS142  ARG165  ASP166  LEU167  LYS168  PRO169  GLU170  ASN171  ASP184  GLY186 
 PHE187  TRP196  TPO197  LEU198  CYS199  GLY200  THR201  PRO202  GLU203  TYR204 
 LEU205  ILE209  ILE210  TYR215  VAL226  LEU227  TYR229  GLU230  MET231  ALA233 
 GLY234  TYR235  PRO236  PRO237  PHE238  PHE239  ALA240  ASP241  GLN242  PRO243 
 ILE244  GLN245  ILE246  TYR247  LYS249  ARG256  PHE257  PRO258  SER259  HIS260 
 PRO313  PHE314  ILE315  LYS317  LYS319  SER325  ASN326  ASP328  ASP329  GLU331 
 GLU332  GLU333  GLU334 

> <Gold.Protein.RotatedAtoms>
   24.4524   21.8909   37.0790 H   0  0  0  0  0  0  0  0  0  0  0  0  # atno 3444 bound_to 3412
   23.6177   22.0189   39.9874 H   0  0  0  0  0  0  0  0  0  0  0  0  # atno 3506 bound_to 3478
   22.5777   19.7896   44.8408 H   0  0  0  0  0  0  0  0  0  0  0  0  # atno 3661 bound_to 3632
   35.6286   -1.8044   41.8141 H   0  0  0  0  0  0  0  0  0  0  0  0  # atno 5632 bound_to 5608
   30.8029   -1.5030   40.8289 H   0  0  0  0  0  0  0  0  0  0  0  0  # atno 5728 bound_to 5706
   31.1583   -1.8134   38.1015 H   0  0  0  0  0  0  0  0  0  0  0  0  # atno 5773 bound_to 5761
   35.0436   -1.5080   36.8085 H   0  0  0  0  0  0  0  0  0  0  0  0  # atno 5777 bound_to 5766
   29.2226   -7.4998   37.3314 H   0  0  0  0  0  0  0  0  0  0  0  0  # atno 5929 bound_to 5907
   30.9259   -7.3709   34.4732 H   0  0  0  0  0  0  0  0  0  0  0  0  # atno 6001 bound_to 5979
   31.0311   -9.9301   35.9432 H   0  0  0  0  0  0  0  0  0  0  0  0  # atno 6064 bound_to 6048
   29.4444  -11.4637   36.9107 H   0  0  0  0  0  0  0  0  0  0  0  0  # atno 6109 bound_to 6101
   27.4265  -11.6627   37.4772 H   0  0  0  0  0  0  0  0  0  0  0  0  # atno 6151 bound_to 6129
   10.8109   24.4281   36.8948 H   0  0  0  0  0  0  0  0  0  0  0  0  # atno 6271 bound_to 6255
   19.8097    7.0040   47.4303 H   0  0  0  0  0  0  0  0  0  0  0  0  # atno 7636 bound_to 7620
   22.2349    1.2329   45.3146 H   0  0  0  0  0  0  0  0  0  0  0  0  # atno 7732 bound_to 7714
   22.3406    6.8433   40.3884 H   0  0  0  0  0  0  0  0  0  0  0  0  # atno 7742 bound_to 7722
   21.9833    5.7369   41.5692 H   0  0  0  0  0  0  0  0  0  0  0  0  # atno 7743 bound_to 7722
   23.4341    6.5384   41.5964 H   0  0  0  0  0  0  0  0  0  0  0  0  # atno 7744 bound_to 7722
   26.7168    0.2369   41.2972 H   0  0  0  0  0  0  0  0  0  0  0  0  # atno 7840 bound_to 7822
   27.6280    2.2064   42.8714 H   0  0  0  0  0  0  0  0  0  0  0  0  # atno 7882 bound_to 7866
   22.5887   12.9999   47.6498 H   0  0  0  0  0  0  0  0  0  0  0  0  # atno 8641 bound_to 8619
   10.1042   16.0002   45.8100 H   0  0  0  0  0  0  0  0  0  0  0  0  # atno 9208 bound_to 9168
   13.3522   18.6830   48.2859 H   0  0  0  0  0  0  0  0  0  0  0  0  # atno 9214 bound_to 9176
   14.8804   17.1340   48.0927 H   0  0  0  0  0  0  0  0  0  0  0  0  # atno 9216 bound_to 9178
   11.7070   15.0476   41.8206 H   0  0  0  0  0  0  0  0  0  0  0  0  # atno 9263 bound_to 9225
   13.4301   12.4129   41.2834 H   0  0  0  0  0  0  0  0  0  0  0  0  # atno 9302 bound_to 9280
   17.5515   10.7616   41.4771 H   0  0  0  0  0  0  0  0  0  0  0  0  # atno 9325 bound_to 9311
   18.7163    7.5016   39.9258 H   0  0  0  0  0  0  0  0  0  0  0  0  # atno 9363 bound_to 9335
   20.5924    6.5482   38.1362 H   0  0  0  0  0  0  0  0  0  0  0  0  # atno 9369 bound_to 9341
   16.7072    2.7079   36.4240 H   0  0  0  0  0  0  0  0  0  0  0  0  # atno 9451 bound_to 9421
   16.1365    1.0457   38.9862 H   0  0  0  0  0  0  0  0  0  0  0  0  # atno 9511 bound_to 9469
   20.7513   -2.6007   42.4256 H   0  0  0  0  0  0  0  0  0  0  0  0  # atno 9519 bound_to 9480
   14.7551    3.2045   41.3104 H   0  0  0  0  0  0  0  0  0  0  0  0  # atno 9566 bound_to 9528
   13.0717   11.1423   45.5028 H   0  0  0  0  0  0  0  0  0  0  0  0  # atno 10029 bound_to 10008
   13.8918  -11.7111   37.5843 H   0  0  0  0  0  0  0  0  0  0  0  0  # atno 10728 bound_to 10707
   18.5748   -6.7825   41.2943 H   0  0  0  0  0  0  0  0  0  0  0  0  # atno 10774 bound_to 10756
   22.0850   -7.2733   41.0636 H   0  0  0  0  0  0  0  0  0  0  0  0  # atno 10816 bound_to 10800
   22.2538  -10.7843   38.6920 H   0  0  0  0  0  0  0  0  0  0  0  0  # atno 10915 bound_to 10907
   21.4006   -9.6957   35.7222 H   0  0  0  0  0  0  0  0  0  0  0  0  # atno 10960 bound_to 10936
   15.9843  -13.0999   35.4781 H   0  0  0  0  0  0  0  0  0  0  0  0  # atno 10968 bound_to 10947
   13.5136   -4.3569   37.3346 H   0  0  0  0  0  0  0  0  0  0  0  0  # atno 11104 bound_to 11082
   13.3625   -3.2447   33.9715 H   0  0  0  0  0  0  0  0  0  0  0  0  # atno 11164 bound_to 11142
   14.3110   -1.5992   30.6890 H   0  0  0  0  0  0  0  0  0  0  0  0  # atno 11206 bound_to 11196
   14.5459   -1.6445   26.4798 H   0  0  0  0  0  0  0  0  0  0  0  0  # atno 11253 bound_to 11229
   13.8569    1.4272   27.6410 H   0  0  0  0  0  0  0  0  0  0  0  0  # atno 11300 bound_to 11266
   11.3825    4.3329   30.4506 H   0  0  0  0  0  0  0  0  0  0  0  0  # atno 11396 bound_to 11358
    9.4935    3.3233   30.5439 H   0  0  0  0  0  0  0  0  0  0  0  0  # atno 11450 bound_to 11416
    9.5537    1.0532   31.1100 H   0  0  0  0  0  0  0  0  0  0  0  0  # atno 11504 bound_to 11466
   12.4003    8.9511   34.6930 H   0  0  0  0  0  0  0  0  0  0  0  0  # atno 11577 bound_to 11538
    8.3287  -10.8444   37.1966 H   0  0  0  0  0  0  0  0  0  0  0  0  # atno 12021 bound_to 11973
   10.6299  -14.7580   37.8541 H   0  0  0  0  0  0  0  0  0  0  0  0  # atno 12092 bound_to 12045
   14.3266  -18.2518   37.0159 H   0  0  0  0  0  0  0  0  0  0  0  0  # atno 12154 bound_to 12142
   27.0924   15.5225   33.7516 H   0  0  0  0  0  0  0  0  0  0  0  0  # atno 15096 bound_to 15054
   26.0902   15.9549   34.9991 H   0  0  0  0  0  0  0  0  0  0  0  0  # atno 15097 bound_to 15054
   26.8626   14.4888   35.0259 H   0  0  0  0  0  0  0  0  0  0  0  0  # atno 15098 bound_to 15054
   31.9831   10.4718   31.3073 H   0  0  0  0  0  0  0  0  0  0  0  0  # atno 15182 bound_to 15161
   32.6797   11.9544   31.0527 H   0  0  0  0  0  0  0  0  0  0  0  0  # atno 15183 bound_to 15161
   31.1194   11.6763   30.5663 H   0  0  0  0  0  0  0  0  0  0  0  0  # atno 15184 bound_to 15161
   27.4385   11.0800   26.9403 H   0  0  0  0  0  0  0  0  0  0  0  0  # atno 15326 bound_to 15310
    8.9901  -11.5817   26.3079 H   0  0  0  0  0  0  0  0  0  0  0  0  # atno 15542 bound_to 15533
    8.7391  -15.4491   27.2391 H   0  0  0  0  0  0  0  0  0  0  0  0  # atno 15588 bound_to 15579
   10.3704  -17.5553   29.8260 H   0  0  0  0  0  0  0  0  0  0  0  0  # atno 15633 bound_to 15624
   11.3689  -14.0150   27.9420 LP  0  0  0  0  0  0  0  0  0  0  0  0  # atno 16458 bound_to 15536
   11.1371  -15.7233   27.7739 LP  0  0  0  0  0  0  0  0  0  0  0  0  # atno 16459 bound_to 15536
   17.2661  -13.9987   35.0345 LP  0  0  0  0  0  0  0  0  0  0  0  0  # atno 16460 bound_to 10947
   16.2280  -13.4382   33.9053 LP  0  0  0  0  0  0  0  0  0  0  0  0  # atno 16461 bound_to 10947
   14.8406  -10.8581   36.5743 LP  0  0  0  0  0  0  0  0  0  0  0  0  # atno 16466 bound_to 10707
   13.3919  -10.2627   37.0362 LP  0  0  0  0  0  0  0  0  0  0  0  0  # atno 16467 bound_to 10707
   22.1262  -12.5196   35.8542 LP  0  0  0  0  0  0  0  0  0  0  0  0  # atno 16468 bound_to 10881
   20.7303  -13.4266   36.3325 LP  0  0  0  0  0  0  0  0  0  0  0  0  # atno 16469 bound_to 10881
   22.2695   -7.9030   34.4995 LP  0  0  0  0  0  0  0  0  0  0  0  0  # atno 16470 bound_to 10910
   23.6840   -8.8808   34.7072 LP  0  0  0  0  0  0  0  0  0  0  0  0  # atno 16471 bound_to 10910
   21.0752   -8.9398   37.2621 LP  0  0  0  0  0  0  0  0  0  0  0  0  # atno 16472 bound_to 10936
   16.7962   -6.7181   35.1211 LP  0  0  0  0  0  0  0  0  0  0  0  0  # atno 16473 bound_to 10997
   15.1241   -6.8453   35.5545 LP  0  0  0  0  0  0  0  0  0  0  0  0  # atno 16474 bound_to 10997
   12.5469  -11.9734   38.3643 LP  0  0  0  0  0  0  0  0  0  0  0  0  # atno 16475 bound_to 11976
   11.5666  -11.0845   37.2468 LP  0  0  0  0  0  0  0  0  0  0  0  0  # atno 16476 bound_to 11976
   12.9698  -17.0223   37.0669 LP  0  0  0  0  0  0  0  0  0  0  0  0  # atno 16477 bound_to 12048
   11.5342  -16.0962   37.3519 LP  0  0  0  0  0  0  0  0  0  0  0  0  # atno 16478 bound_to 12048
   18.5290   -7.7396   38.3808 LP  0  0  0  0  0  0  0  0  0  0  0  0  # atno 16480 bound_to 10939
   18.7714   -9.1574   37.4159 LP  0  0  0  0  0  0  0  0  0  0  0  0  # atno 16481 bound_to 10939
   11.5126   -6.1284   35.7205 LP  0  0  0  0  0  0  0  0  0  0  0  0  # atno 16483 bound_to 11039
   11.9347   -7.4842   36.7122 LP  0  0  0  0  0  0  0  0  0  0  0  0  # atno 16484 bound_to 11039
   10.8343  -13.0788   38.2887 LP  0  0  0  0  0  0  0  0  0  0  0  0  # atno 16485 bound_to 12045
    8.0211  -12.3770   27.5260 LP  0  0  0  0  0  0  0  0  0  0  0  0  # atno 16490 bound_to 15533
    8.2968  -14.1779   28.3627 LP  0  0  0  0  0  0  0  0  0  0  0  0  # atno 16491 bound_to 15579
    9.6785  -17.6105   26.8468 LP  0  0  0  0  0  0  0  0  0  0  0  0  # atno 16492 bound_to 15582
    8.0239  -17.9471   27.2331 LP  0  0  0  0  0  0  0  0  0  0  0  0  # atno 16493 bound_to 15582
    8.7621  -18.1841   29.5421 LP  0  0  0  0  0  0  0  0  0  0  0  0  # atno 16494 bound_to 15624
   21.2039  -11.4379   37.4526 LP  0  0  0  0  0  0  0  0  0  0  0  0  # atno 16495 bound_to 10907
   25.8835   -9.8467   36.2469 LP  0  0  0  0  0  0  0  0  0  0  0  0  # atno 16496 bound_to 6104
   24.9434  -10.8986   37.2518 LP  0  0  0  0  0  0  0  0  0  0  0  0  # atno 16497 bound_to 6104
   26.8455  -13.2627   37.0840 LP  0  0  0  0  0  0  0  0  0  0  0  0  # atno 16498 bound_to 6129
   28.7359   -8.7864   33.6505 LP  0  0  0  0  0  0  0  0  0  0  0  0  # atno 16499 bound_to 5910
   30.3424   -9.4045   33.4582 LP  0  0  0  0  0  0  0  0  0  0  0  0  # atno 16500 bound_to 5910
   29.6958  -10.7567   35.3363 LP  0  0  0  0  0  0  0  0  0  0  0  0  # atno 16501 bound_to 6101
   27.9267   -8.9848   36.5983 LP  0  0  0  0  0  0  0  0  0  0  0  0  # atno 16502 bound_to 5850
   29.3600   -9.5770   37.3696 LP  0  0  0  0  0  0  0  0  0  0  0  0  # atno 16503 bound_to 5850
   29.3217   -5.7721   37.0971 LP  0  0  0  0  0  0  0  0  0  0  0  0  # atno 16504 bound_to 5907
   28.6367  -13.6548   36.7281 LP  0  0  0  0  0  0  0  0  0  0  0  0  # atno 16505 bound_to 6051
   30.1350  -14.0856   35.9735 LP  0  0  0  0  0  0  0  0  0  0  0  0  # atno 16506 bound_to 6051
   32.2372  -11.1532   33.4199 LP  0  0  0  0  0  0  0  0  0  0  0  0  # atno 16507 bound_to 5982
   32.4024  -12.2173   34.7765 LP  0  0  0  0  0  0  0  0  0  0  0  0  # atno 16508 bound_to 5982
   31.1434   -7.8658   36.1384 LP  0  0  0  0  0  0  0  0  0  0  0  0  # atno 16509 bound_to 5979
   32.6467  -10.1856   36.5616 LP  0  0  0  0  0  0  0  0  0  0  0  0  # atno 16510 bound_to 6048
   12.5550   -3.9284   29.6737 LP  0  0  0  0  0  0  0  0  0  0  0  0  # atno 16511 bound_to 11145
   12.6953   -4.5487   31.2848 LP  0  0  0  0  0  0  0  0  0  0  0  0  # atno 16512 bound_to 11145
   14.9104   -3.1047   30.0124 LP  0  0  0  0  0  0  0  0  0  0  0  0  # atno 16513 bound_to 11196
   16.4532   -0.8047   28.7089 LP  0  0  0  0  0  0  0  0  0  0  0  0  # atno 16514 bound_to 11199
   15.4265    0.5614   28.9914 LP  0  0  0  0  0  0  0  0  0  0  0  0  # atno 16515 bound_to 11199
   13.7785   -0.3402   27.3651 LP  0  0  0  0  0  0  0  0  0  0  0  0  # atno 16516 bound_to 11229
   13.4311   -4.6877   32.9964 LP  0  0  0  0  0  0  0  0  0  0  0  0  # atno 16525 bound_to 11142
   14.1373   -1.8007   35.5190 LP  0  0  0  0  0  0  0  0  0  0  0  0  # atno 16530 bound_to 11085
   15.2378   -2.1855   34.2381 LP  0  0  0  0  0  0  0  0  0  0  0  0  # atno 16531 bound_to 11085
   13.9625   -5.5572   36.1423 LP  0  0  0  0  0  0  0  0  0  0  0  0  # atno 16533 bound_to 11082
   16.0331    3.4787   26.3020 LP  0  0  0  0  0  0  0  0  0  0  0  0  # atno 16538 bound_to 11232
   17.0185    2.0891   25.9893 LP  0  0  0  0  0  0  0  0  0  0  0  0  # atno 16539 bound_to 11232
   14.3877    1.9240   26.0428 LP  0  0  0  0  0  0  0  0  0  0  0  0  # atno 16542 bound_to 11266
   15.1827    3.1395   37.1532 LP  0  0  0  0  0  0  0  0  0  0  0  0  # atno 16548 bound_to 9421
   12.1724    2.9037   30.1610 LP  0  0  0  0  0  0  0  0  0  0  0  0  # atno 16549 bound_to 11269
   12.1408    2.0693   28.6435 LP  0  0  0  0  0  0  0  0  0  0  0  0  # atno 16550 bound_to 11269
   10.3947    3.5811   32.0200 LP  0  0  0  0  0  0  0  0  0  0  0  0  # atno 16552 bound_to 11318
   11.7057    4.2770   32.9126 LP  0  0  0  0  0  0  0  0  0  0  0  0  # atno 16553 bound_to 11318
   11.1782    1.5566   30.6913 LP  0  0  0  0  0  0  0  0  0  0  0  0  # atno 16554 bound_to 11466
   11.1900    5.7284   29.4319 LP  0  0  0  0  0  0  0  0  0  0  0  0  # atno 16555 bound_to 11358
   13.2198    7.9134   33.7449 LP  0  0  0  0  0  0  0  0  0  0  0  0  # atno 16556 bound_to 11538
   13.2610    7.7471   35.3689 LP  0  0  0  0  0  0  0  0  0  0  0  0  # atno 16557 bound_to 11538
   16.6913    8.3595   38.1802 LP  0  0  0  0  0  0  0  0  0  0  0  0  # atno 16558 bound_to 9314
   18.1063    9.3395   38.3734 LP  0  0  0  0  0  0  0  0  0  0  0  0  # atno 16559 bound_to 9314
   17.3958    6.4529   40.3828 LP  0  0  0  0  0  0  0  0  0  0  0  0  # atno 16560 bound_to 9335
   16.9420    4.2282   39.8123 LP  0  0  0  0  0  0  0  0  0  0  0  0  # atno 16561 bound_to 9338
   15.3993    4.7246   39.2011 LP  0  0  0  0  0  0  0  0  0  0  0  0  # atno 16562 bound_to 9338
   21.4073    5.1680   38.4193 LP  0  0  0  0  0  0  0  0  0  0  0  0  # atno 16563 bound_to 9341
   20.8097    6.0370   39.6661 LP  0  0  0  0  0  0  0  0  0  0  0  0  # atno 16564 bound_to 9341
   12.9707    3.1204   37.2521 LP  0  0  0  0  0  0  0  0  0  0  0  0  # atno 16565 bound_to 9380
   13.8974    2.7699   38.6727 LP  0  0  0  0  0  0  0  0  0  0  0  0  # atno 16566 bound_to 9380
   15.4371    2.6470   39.0888 LP  0  0  0  0  0  0  0  0  0  0  0  0  # atno 16567 bound_to 9469
   29.1695   -4.5539   38.0562 LP  0  0  0  0  0  0  0  0  0  0  0  0  # atno 16570 bound_to 5709
   29.8890   -3.8080   36.6684 LP  0  0  0  0  0  0  0  0  0  0  0  0  # atno 16571 bound_to 5709
   25.4450    1.4221   41.4613 LP  0  0  0  0  0  0  0  0  0  0  0  0  # atno 16574 bound_to 7822
   28.8450    4.6167   42.3612 LP  0  0  0  0  0  0  0  0  0  0  0  0  # atno 16575 bound_to 7825
   29.6227    3.3446   41.4798 LP  0  0  0  0  0  0  0  0  0  0  0  0  # atno 16576 bound_to 7825
   29.7944   -2.8185   41.3757 LP  0  0  0  0  0  0  0  0  0  0  0  0  # atno 16579 bound_to 5706
   31.2930   -3.1309   39.2438 LP  0  0  0  0  0  0  0  0  0  0  0  0  # atno 16580 bound_to 5761
   33.4824   -1.4855   36.3512 LP  0  0  0  0  0  0  0  0  0  0  0  0  # atno 16581 bound_to 5766
   34.4837   -2.6479   35.7917 LP  0  0  0  0  0  0  0  0  0  0  0  0  # atno 16582 bound_to 5766
   28.2804   -0.6659   42.8939 LP  0  0  0  0  0  0  0  0  0  0  0  0  # atno 16583 bound_to 7781
   28.4965    1.0184   42.5529 LP  0  0  0  0  0  0  0  0  0  0  0  0  # atno 16584 bound_to 7781
   26.2461    3.2206   42.5128 LP  0  0  0  0  0  0  0  0  0  0  0  0  # atno 16585 bound_to 7866
   14.1233   -0.6565   38.6198 LP  0  0  0  0  0  0  0  0  0  0  0  0  # atno 16593 bound_to 9424
   15.1349   -0.6083   40.0249 LP  0  0  0  0  0  0  0  0  0  0  0  0  # atno 16594 bound_to 9424
   21.3333   -2.3005   40.9358 LP  0  0  0  0  0  0  0  0  0  0  0  0  # atno 16595 bound_to 9480
   19.9990   -3.2231   41.1237 LP  0  0  0  0  0  0  0  0  0  0  0  0  # atno 16596 bound_to 9480
   19.7846    1.7883   43.4937 LP  0  0  0  0  0  0  0  0  0  0  0  0  # atno 16597 bound_to 7659
   20.0508    3.4988   43.5521 LP  0  0  0  0  0  0  0  0  0  0  0  0  # atno 16598 bound_to 7659
   24.5954    1.6569   44.7660 LP  0  0  0  0  0  0  0  0  0  0  0  0  # atno 16599 bound_to 7717
   25.6748    1.6483   43.4115 LP  0  0  0  0  0  0  0  0  0  0  0  0  # atno 16600 bound_to 7717
   22.1989    2.7644   44.4683 LP  0  0  0  0  0  0  0  0  0  0  0  0  # atno 16601 bound_to 7714
   17.6774   -5.2089   41.4312 LP  0  0  0  0  0  0  0  0  0  0  0  0  # atno 16602 bound_to 10532
   18.9694   -5.5914   42.5195 LP  0  0  0  0  0  0  0  0  0  0  0  0  # atno 16603 bound_to 10532
   16.3026   10.0922   40.4555 LP  0  0  0  0  0  0  0  0  0  0  0  0  # atno 16604 bound_to 9311
   26.5155   11.8449   25.8395 LP  0  0  0  0  0  0  0  0  0  0  0  0  # atno 16607 bound_to 15310
   27.8673   11.0580   25.3704 LP  0  0  0  0  0  0  0  0  0  0  0  0  # atno 16608 bound_to 15310
   18.6707    7.9225   44.4492 LP  0  0  0  0  0  0  0  0  0  0  0  0  # atno 16611 bound_to 7554
   17.1723    8.5061   45.0929 LP  0  0  0  0  0  0  0  0  0  0  0  0  # atno 16612 bound_to 7554
   22.3364    4.1289   44.6215 LP  0  0  0  0  0  0  0  0  0  0  0  0  # atno 16613 bound_to 7623
   22.2668    5.7696   44.0708 LP  0  0  0  0  0  0  0  0  0  0  0  0  # atno 16614 bound_to 7623
   13.7148   11.4104   42.6728 LP  0  0  0  0  0  0  0  0  0  0  0  0  # atno 16615 bound_to 9280
   15.5096    8.3762   42.0590 LP  0  0  0  0  0  0  0  0  0  0  0  0  # atno 16616 bound_to 9283
   14.8068    9.6199   43.0385 LP  0  0  0  0  0  0  0  0  0  0  0  0  # atno 16617 bound_to 9283
   14.1330   14.7221   41.1118 LP  0  0  0  0  0  0  0  0  0  0  0  0  # atno 16618 bound_to 9228
   14.5216   13.6214   39.8321 LP  0  0  0  0  0  0  0  0  0  0  0  0  # atno 16619 bound_to 9228
   18.4284    6.7915   46.3932 LP  0  0  0  0  0  0  0  0  0  0  0  0  # atno 16620 bound_to 7620
   11.4770   14.0277   43.2190 LP  0  0  0  0  0  0  0  0  0  0  0  0  # atno 16628 bound_to 9225
   13.5602    2.5503   40.2157 LP  0  0  0  0  0  0  0  0  0  0  0  0  # atno 16635 bound_to 9528
   22.8924   20.5855   37.1686 LP  0  0  0  0  0  0  0  0  0  0  0  0  # atno 16636 bound_to 3357
   24.4033   19.7387   37.1735 LP  0  0  0  0  0  0  0  0  0  0  0  0  # atno 16637 bound_to 3357
   21.7279   21.7137   40.7205 LP  0  0  0  0  0  0  0  0  0  0  0  0  # atno 16638 bound_to 3415
   22.1425   20.3064   39.7999 LP  0  0  0  0  0  0  0  0  0  0  0  0  # atno 16639 bound_to 3415
   24.8072   23.5905   37.2874 LP  0  0  0  0  0  0  0  0  0  0  0  0  # atno 16640 bound_to 3412
   25.2654   21.9182   39.4047 LP  0  0  0  0  0  0  0  0  0  0  0  0  # atno 16641 bound_to 3478
    9.3998   14.9152   43.2851 LP  0  0  0  0  0  0  0  0  0  0  0  0  # atno 16646 bound_to 9102
    8.0760   14.0547   43.9973 LP  0  0  0  0  0  0  0  0  0  0  0  0  # atno 16647 bound_to 9102
   10.4779   14.2970   45.8746 LP  0  0  0  0  0  0  0  0  0  0  0  0  # atno 16648 bound_to 9168
   14.9835   17.5026   46.5112 LP  0  0  0  0  0  0  0  0  0  0  0  0  # atno 16649 bound_to 9178
   14.8493   15.9449   46.9824 LP  0  0  0  0  0  0  0  0  0  0  0  0  # atno 16650 bound_to 9178
    9.5337   25.0034   36.0669 LP  0  0  0  0  0  0  0  0  0  0  0  0  # atno 16654 bound_to 6255
   10.3960   23.7491   35.4755 LP  0  0  0  0  0  0  0  0  0  0  0  0  # atno 16655 bound_to 6255
   11.7807   18.2769   48.1643 LP  0  0  0  0  0  0  0  0  0  0  0  0  # atno 16656 bound_to 9176
   12.5368   19.0085   46.9153 LP  0  0  0  0  0  0  0  0  0  0  0  0  # atno 16657 bound_to 9176

> <Gold.Score>
     Fitness  S(hb_ext) S(vdw_ext)  S(hb_int)    S(int)      intcor
     32.56       7.26      18.94       0.00      -0.74      -0.76

> <Gold.Goldscore.Fitness>
32.5613

> <Gold.Goldscore.Internal.Vdw>
-1.0624

> <Gold.Goldscore.Internal.Torsion>
-0.4330

> <Gold.Goldscore.External.Vdw>
18.9356

> <Gold.Goldscore.Internal.HBond>
0.0000

> <Gold.Goldscore.External.HBond>
7.2618

> <Gold.Goldscore.Internal.Correction>
-0.7585

> <Gold.Goldscore.Hbonds>
donor molecule, donor type, donor heavy atom, donor atom, acceptor molecule, acceptor atom, score
      P1  H  5975  6022       L1    17  1.00
      P1  H  5978  6026       L1    17  0.05
      P1  H  5795  5837       L1    17  0.51

> <Gold.Goldscore.Internal.Vdw.Weighted>
-1.0624

> <Gold.Goldscore.Internal.Torsion.Weighted>
-0.4330

> <Gold.Goldscore.External.Vdw.Weighted>
26.0364

> <Gold.Goldscore.Internal.HBond.Weighted>
0.0000

> <Gold.Goldscore.External.HBond.Weighted>
7.2618

> <Gold.Goldscore.Internal.Correction.Weighted>
-0.7585

> <Gold.Rescore>
     Score     S(PLP)   S(hbond)     S(cho)   S(metal)  DE(clash)   DE(tors)     intcor
     35.66     -28.61       2.38       0.00       0.00       0.00       0.04       ----

> <Gold.PLP.Fitness>
35.6572

> <Gold.PLP.PLP>
-28.6102

> <Gold.PLP.part.hbond>
-3.0000

> <Gold.PLP.part.metal>
0.0000

> <Gold.PLP.part.buried>
-2.0352

> <Gold.PLP.part.nonpolar>
-24.4296

> <Gold.PLP.part.repulsive>
0.2898

> <Gold.PLP.ligand.clash>
0.0000

> <Gold.PLP.ligand.torsion>
0.0397

> <Gold.PLP.Chemscore.Hbond>
2.3755

> <Gold.PLP.Chemscore.CHOScore>
0.0000

> <Gold.PLP.Chemscore.Metal>
0.0000

> <Gold.Chemscore.Hbonds>
donor molecule, donor type, donor heavy atom, donor atom, acceptor molecule, acceptor atom, score
      P1  H  5975  6022       L1    17  1.00
      P1  H  5978  6026       L1    17  0.10
      P1  H  5795  5837       L1    17  0.96

> <Gold.PLP.Chemscore.Internal.Correction>
   9.000000E+99

