#       Name:                CT1002167954
#       Creating user name   hitesit
#       Creation time:       Sun Apr 16 20:20:02 2023


#       File generated by GOLD software.
#

@<TRIPOS>MOLECULE
CT1002167954|ligand_prepared|mol2|1|dock5
    29    30     1
SMALL
NO_CHARGES


@<TRIPOS>ATOM
      1 C1          19.5911  13.6617  32.8444 C.3            1 RES1               0.0000
      2 C2          18.8552  12.7720  33.8670 C.ar           1 RES1               0.0000
      3 C3          18.5162  14.4852  32.1411 C.2            1 RES1               0.0000
      4 C4          20.5892  14.4932  33.6426 C.2            1 RES1               0.0000
      5 C5          20.3778  12.8666  31.7765 C.3            1 RES1               0.0000
      6 C6          19.2434  11.4504  34.0653 C.ar           1 RES1               0.0000
      7 C7          17.7901  13.2588  34.6201 C.ar           1 RES1               0.0000
      8 N8          18.4199  15.8066  32.4647 N.am           1 RES1               0.0000
      9 O9          17.7391  13.9742  31.3441 O.2            1 RES1               0.0000
     10 N10         20.3994  15.8494  33.6934 N.am           1 RES1               0.0000
     11 O11         21.5286  13.9845  34.2416 O.2            1 RES1               0.0000
     12 C12         20.9127  13.7266  30.6422 C.3            1 RES1               0.0000
     13 C13         18.5924  10.6453  34.9852 C.ar           1 RES1               0.0000
     14 C14         17.1402  12.4519  35.5393 C.ar           1 RES1               0.0000
     15 C15         19.3426  16.5403  33.1662 C.2            1 RES1               0.0000
     16 C16         17.5407  11.1455  35.7231 C.ar           1 RES1               0.0000
     17 O17         19.2132  17.7538  33.3002 O.2            1 RES1               0.0000
     18 H18         21.2204  12.3600  32.2630 H              1 RES1               0.0000
     19 H19         19.7209  12.0955  31.3553 H              1 RES1               0.0000
     20 H20         20.0673  11.0386  33.4921 H              1 RES1               0.0000
     21 H21         17.4570  14.2830  34.4915 H              1 RES1               0.0000
     22 H22         17.5847  16.2942  32.1568 H              1 RES1               0.0000
     23 H23         21.1121  16.3944  34.1683 H              1 RES1               0.0000
     24 H24         21.4562  13.1196  29.9212 H              1 RES1               0.0000
     25 H25         20.0991  14.2259  30.1200 H              1 RES1               0.0000
     26 H26         21.5897  14.4888  31.0224 H              1 RES1               0.0000
     27 H27         18.9106   9.6175  35.1251 H              1 RES1               0.0000
     28 H28         16.3126  12.8495  36.1174 H              1 RES1               0.0000
     29 H29         17.0311  10.5148  36.4440 H              1 RES1               0.0000
@<TRIPOS>BOND
    1    1    2 1     
    2    1    3 1     
    3    1    4 1     
    4    1    5 1     
    5    2    6 ar    
    6    2    7 ar    
    7    3    8 1     
    8    3    9 2     
    9    4   10 1     
   10    4   11 2     
   11    5   12 1     
   12    5   18 1     
   13    5   19 1     
   14    6   13 ar    
   15    6   20 1     
   16    7   14 ar    
   17    7   21 1     
   18    8   15 1     
   19    8   22 1     
   20   10   15 1     
   21   10   23 1     
   22   12   24 1     
   23   12   25 1     
   24   12   26 1     
   25   13   16 ar    
   26   13   27 1     
   27   14   16 ar    
   28   14   28 1     
   29   15   17 2     
   30   16   29 1     
@<TRIPOS>SUBSTRUCTURE
      1 RES1           1
@<TRIPOS>SET
DONOR_HYDROGENS      STATIC     ATOMS    <user>   **** ""
2 22 23
ATOM$RED        STATIC     ATOMS    COLORGROUP SYSTEM
2 22 23
@<TRIPOS>COMMENT
> <Gold.Version>
2022.3.0

> <Gold.Id.Protein>
unknown|3mvj_clean|pdb

> <Gold.Protein.RotatedTorsions>
[ 10968 10947 10946 10944 ] final  127.63 input   60.01 | X-H torsion
[ 10728 10707 10706 10704 ] final -104.60 input   59.96 | X-H torsion
[ 10960 10936 10937 10938 ] final  -28.77 input   23.31 | X-H torsion
[ 12092 12045 12046 12047 ] final   -1.13 input   63.71 | X-H torsion
[ 15542 15533 15534 15535 ] final    7.20 input   83.29 | X-H torsion
[ 15588 15579 15580 15581 ] final   38.53 input  107.67 | X-H torsion
[ 15633 15624 15625 15626 ] final  153.40 input   84.82 | X-H torsion
[ 10915 10907 10908 10909 ] final  -16.06 input  -87.38 | X-H torsion
[ 6151 6129 6130 6131 ] final -164.16 input   27.76 | X-H torsion
[ 6109 6101 6102 6103 ] final   64.69 input  -93.79 | X-H torsion
[ 5929 5907 5908 5909 ] final -114.80 input  119.25 | X-H torsion
[ 6001 5979 5980 5981 ] final  100.65 input  112.51 | X-H torsion
[ 6064 6048 6049 6050 ] final  164.66 input  108.26 | X-H torsion
[ 11206 11196 11197 11198 ] final   74.17 input   -0.63 | X-H torsion
[ 11253 11229 11230 11231 ] final  -64.54 input  120.69 | X-H torsion
[ 11164 11142 11143 11144 ] final  101.42 input   33.88 | X-H torsion
[ 11104 11082 11083 11084 ] final   76.26 input   45.00 | X-H torsion
[ 11300 11266 11267 11268 ] final   10.30 input   49.58 | X-H torsion
[ 9451 9421 9422 9423 ] final -142.33 input  116.39 | X-H torsion
[ 11504 11466 11467 11468 ] final  -63.17 input  126.08 | X-H torsion
[ 11396 11358 11359 11360 ] final  -41.92 input   98.08 | X-H torsion
[ 11577 11538 11537 11535 ] final -164.39 input   60.01 | X-H torsion
[ 9363 9335 9336 9337 ] final  -22.21 input   84.14 | X-H torsion
[ 9369 9341 9339 9336 ] final -125.21 input   60.02 | X-H torsion
[ 9511 9469 9470 9471 ] final -148.07 input   75.21 | X-H torsion
[ 7840 7822 7823 7824 ] final    3.33 input  121.36 | X-H torsion
[ 7742 7722 7721 7720 ] final -129.67 input   60.01 | X-H torsion
[ 5728 5706 5707 5708 ] final  148.75 input  119.20 | X-H torsion
[ 5773 5761 5762 5763 ] final -148.49 input  120.20 | X-H torsion
[ 5777 5766 5765 5762 ] final  -94.56 input   59.99 | X-H torsion
[ 7882 7866 7867 7868 ] final   37.18 input   81.17 | X-H torsion
[ 9519 9480 9479 9477 ] final -124.59 input   60.03 | X-H torsion
[ 7732 7714 7715 7716 ] final  175.84 input  -10.67 | X-H torsion
[ 15096 15054 15053 15052 ] final -118.44 input   60.01 | X-H torsion
[ 9325 9311 9312 9313 ] final  -12.72 input  -66.31 | X-H torsion
[ 15182 15161 15160 15159 ] final  117.75 input   59.99 | X-H torsion
[ 15326 15310 15309 15306 ] final   -7.90 input   59.99 | X-H torsion
[ 9302 9280 9281 9282 ] final  -97.17 input   22.77 | X-H torsion
[ 7636 7620 7621 7622 ] final -110.78 input   34.37 | X-H torsion
[ 9263 9225 9226 9227 ] final   86.91 input   96.07 | X-H torsion
[ 9566 9528 9529 9530 ] final -114.77 input   99.68 | X-H torsion
[ 3444 3412 3413 3414 ] final  123.43 input -120.58 | X-H torsion
[ 3506 3478 3479 3480 ] final  112.23 input   70.69 | X-H torsion
[ 9208 9168 9169 9170 ] final  -78.95 input  115.65 | X-H torsion
[ 9216 9178 9175 9174 ] final  -86.81 input   59.98 | X-H torsion
[ 6271 6255 6254 6251 ] final  -81.11 input   60.00 | X-H torsion
[ 9214 9176 9175 9174 ] final -169.77 input   60.01 | X-H torsion
[ 12154 12142 12143 12144 ] final  -36.81 input  108.55 | X-H torsion
[ 12021 11973 11974 11975 ] final -103.81 input   68.31 | X-H torsion
[ 11450 11416 11417 11418 ] final  -11.95 input  102.35 | X-H torsion
[ 5632 5608 5609 5610 ] final   15.75 input  119.09 | X-H torsion
[ 10774 10756 10757 10758 ] final -128.86 input  129.22 | X-H torsion
[ 10816 10800 10801 10802 ] final -117.77 input  128.85 | X-H torsion
[ 8641 8619 8620 8621 ] final   73.89 input   87.35 | X-H torsion
[ 3661 3632 3633 3634 ] final  162.52 input  116.97 | X-H torsion
[ 10029 10008 10007 10005 ] final   34.23 input   60.01 | X-H torsion
[ 16458 15536 15535 15534 ] final  -62.90 input    0.00 | X-H torsion
[ 16468 10881 10880 10879 ] final -112.05 input    0.00 | X-H torsion
[ 16470 10910 10909 10908 ] final   27.22 input    0.00 | X-H torsion
[ 16473 10997 10996 10995 ] final  -83.08 input    0.00 | X-H torsion
[ 16475 11976 11975 11974 ] final  -10.86 input    0.00 | X-H torsion
[ 16477 12048 12047 12046 ] final -106.16 input    0.00 | X-H torsion
[ 16480 10939 10938 10937 ] final   10.55 input   -0.00 | X-H torsion
[ 16483 11039 11038 11037 ] final -178.72 input    0.00 | X-H torsion
[ 16492 15582 15581 15580 ] final  128.70 input    0.00 | X-H torsion
[ 16496 6104 6103 6102 ] final -142.61 input    0.00 | X-H torsion
[ 16499 5910 5909 5908 ] final  102.23 input   -0.00 | X-H torsion
[ 16502 5850 5849 5848 ] final   88.87 input    0.00 | X-H torsion
[ 16505 6051 6050 6049 ] final  -65.32 input    0.00 | X-H torsion
[ 16507 5982 5981 5980 ] final  165.12 input    0.00 | X-H torsion
[ 16511 11145 11144 11143 ] final  154.03 input    0.00 | X-H torsion
[ 16514 11199 11198 11197 ] final  -82.15 input    0.00 | X-H torsion
[ 16530 11085 11084 11083 ] final  -47.09 input   -0.00 | X-H torsion
[ 16538 11232 11231 11230 ] final -153.94 input    0.00 | X-H torsion
[ 16549 11269 11268 11267 ] final  170.60 input   -0.00 | X-H torsion
[ 16552 11318 11317 11316 ] final   86.16 input    0.00 | X-H torsion
[ 16558 9314 9313 9312 ] final   31.31 input    0.00 | X-H torsion
[ 16561 9338 9337 9336 ] final   77.46 input    0.00 | X-H torsion
[ 16565 9380 9379 9378 ] final -102.37 input    0.00 | X-H torsion
[ 16570 5709 5708 5707 ] final  108.65 input    0.00 | X-H torsion
[ 16575 7825 7824 7823 ] final  -43.29 input    0.00 | X-H torsion
[ 16583 7781 7780 7779 ] final -117.72 input   -0.00 | X-H torsion
[ 16593 9424 9423 9422 ] final   42.36 input   -0.00 | X-H torsion
[ 16597 7659 7658 7657 ] final  -92.50 input   -0.00 | X-H torsion
[ 16599 7717 7716 7715 ] final  -20.85 input    0.00 | X-H torsion
[ 16602 10532 10531 10530 ] final   77.31 input    0.00 | X-H torsion
[ 16611 7554 7553 7552 ] final -117.52 input    0.00 | X-H torsion
[ 16613 7623 7622 7621 ] final   89.41 input   -0.00 | X-H torsion
[ 16616 9283 9282 9281 ] final -146.67 input    0.00 | X-H torsion
[ 16618 9228 9227 9226 ] final  -92.07 input   -0.00 | X-H torsion
[ 16636 3357 3356 3355 ] final -131.95 input   -0.00 | X-H torsion
[ 16638 3415 3414 3413 ] final    3.02 input   -0.00 | X-H torsion
[ 16646 9102 9101 9100 ] final   35.04 input    0.00 | X-H torsion

> <Gold.Protein.ActiveResidues>
 ARG45   SER53   PHE54   LEU82   LYS83   GLN84   GLU86   HIS87   GLU127  PHE129 
 SER130  HIS131  LEU132  ARG133  ARG134  ILE135  GLY136  ARG137  PHE138  SER139 
 HIS142  ARG165  ASP166  LEU167  LYS168  PRO169  GLU170  ASN171  ASP184  GLY186 
 PHE187  TRP196  TPO197  LEU198  CYS199  GLY200  THR201  PRO202  GLU203  TYR204 
 LEU205  ILE209  ILE210  TYR215  VAL226  LEU227  TYR229  GLU230  MET231  ALA233 
 GLY234  TYR235  PRO236  PRO237  PHE238  PHE239  ALA240  ASP241  GLN242  PRO243 
 ILE244  GLN245  ILE246  TYR247  LYS249  ARG256  PHE257  PRO258  SER259  HIS260 
 PRO313  PHE314  ILE315  LYS317  LYS319  SER325  ASN326  ASP328  ASP329  GLU331 
 GLU332  GLU333  GLU334 

> <Gold.Protein.RotatedAtoms>
   24.0381   22.6346   36.5373 H   0  0  0  0  0  0  0  0  0  0  0  0  # atno 3444 bound_to 3412
   25.1783   21.6859   39.2556 H   0  0  0  0  0  0  0  0  0  0  0  0  # atno 3506 bound_to 3478
   22.5291   19.7804   44.8916 H   0  0  0  0  0  0  0  0  0  0  0  0  # atno 3661 bound_to 3632
   35.5615   -1.9329   42.0905 H   0  0  0  0  0  0  0  0  0  0  0  0  # atno 5632 bound_to 5608
   29.9353   -1.3780   41.2596 H   0  0  0  0  0  0  0  0  0  0  0  0  # atno 5728 bound_to 5706
   31.0756   -1.8700   38.0565 H   0  0  0  0  0  0  0  0  0  0  0  0  # atno 5773 bound_to 5761
   34.7250   -2.6165   35.8906 H   0  0  0  0  0  0  0  0  0  0  0  0  # atno 5777 bound_to 5766
   28.4520   -6.9362   37.3076 H   0  0  0  0  0  0  0  0  0  0  0  0  # atno 5929 bound_to 5907
   31.5845   -7.3763   35.9768 H   0  0  0  0  0  0  0  0  0  0  0  0  # atno 6001 bound_to 5979
   32.4732  -10.0120   36.8852 H   0  0  0  0  0  0  0  0  0  0  0  0  # atno 6064 bound_to 6048
   29.6124  -11.8420   36.5976 H   0  0  0  0  0  0  0  0  0  0  0  0  # atno 6109 bound_to 6101
   26.6104  -11.8602   36.9133 H   0  0  0  0  0  0  0  0  0  0  0  0  # atno 6151 bound_to 6129
   10.7875   23.6795   35.8733 H   0  0  0  0  0  0  0  0  0  0  0  0  # atno 6271 bound_to 6255
   18.4149    6.8863   46.4018 H   0  0  0  0  0  0  0  0  0  0  0  0  # atno 7636 bound_to 7620
   21.3754    2.1598   44.6409 H   0  0  0  0  0  0  0  0  0  0  0  0  # atno 7732 bound_to 7714
   22.5298    6.9332   40.4110 H   0  0  0  0  0  0  0  0  0  0  0  0  # atno 7742 bound_to 7722
   21.8597    5.7909   41.4072 H   0  0  0  0  0  0  0  0  0  0  0  0  # atno 7743 bound_to 7722
   23.3683    6.3946   41.7356 H   0  0  0  0  0  0  0  0  0  0  0  0  # atno 7744 bound_to 7722
   26.1311    1.1245   42.2109 H   0  0  0  0  0  0  0  0  0  0  0  0  # atno 7840 bound_to 7822
   26.7418    2.0148   43.1990 H   0  0  0  0  0  0  0  0  0  0  0  0  # atno 7882 bound_to 7866
   22.6248   12.3088   46.9424 H   0  0  0  0  0  0  0  0  0  0  0  0  # atno 8641 bound_to 8619
    9.6084   15.1783   45.2919 H   0  0  0  0  0  0  0  0  0  0  0  0  # atno 9208 bound_to 9168
   12.9871   18.4494   48.5963 H   0  0  0  0  0  0  0  0  0  0  0  0  # atno 9214 bound_to 9176
   14.8375   15.9282   47.1614 H   0  0  0  0  0  0  0  0  0  0  0  0  # atno 9216 bound_to 9178
   11.5920   15.0349   41.8022 H   0  0  0  0  0  0  0  0  0  0  0  0  # atno 9263 bound_to 9225
   13.3136   11.8462   41.1532 H   0  0  0  0  0  0  0  0  0  0  0  0  # atno 9302 bound_to 9280
   16.9495   10.3854   40.0789 H   0  0  0  0  0  0  0  0  0  0  0  0  # atno 9325 bound_to 9311
   17.1733    6.9759   40.0384 H   0  0  0  0  0  0  0  0  0  0  0  0  # atno 9363 bound_to 9335
   21.2761    5.4226   38.0219 H   0  0  0  0  0  0  0  0  0  0  0  0  # atno 9369 bound_to 9341
   15.4840    2.8296   36.0472 H   0  0  0  0  0  0  0  0  0  0  0  0  # atno 9451 bound_to 9421
   16.1150    1.0368   38.9854 H   0  0  0  0  0  0  0  0  0  0  0  0  # atno 9511 bound_to 9469
   19.9617   -3.1979   41.8122 H   0  0  0  0  0  0  0  0  0  0  0  0  # atno 9519 bound_to 9480
   14.7033    3.0667   41.4190 H   0  0  0  0  0  0  0  0  0  0  0  0  # atno 9566 bound_to 9528
   12.3944   12.4596   45.8146 H   0  0  0  0  0  0  0  0  0  0  0  0  # atno 10029 bound_to 10008
   13.4773  -10.2059   36.9601 H   0  0  0  0  0  0  0  0  0  0  0  0  # atno 10728 bound_to 10707
   18.2881   -7.9053   40.7296 H   0  0  0  0  0  0  0  0  0  0  0  0  # atno 10774 bound_to 10756
   22.1063   -7.1910   41.1423 H   0  0  0  0  0  0  0  0  0  0  0  0  # atno 10816 bound_to 10800
   21.1813  -10.4123   37.9778 H   0  0  0  0  0  0  0  0  0  0  0  0  # atno 10915 bound_to 10907
   21.0577   -8.9423   37.2783 H   0  0  0  0  0  0  0  0  0  0  0  0  # atno 10960 bound_to 10936
   16.7827  -13.7945   33.9642 H   0  0  0  0  0  0  0  0  0  0  0  0  # atno 10968 bound_to 10947
   13.9332   -4.1980   37.1329 H   0  0  0  0  0  0  0  0  0  0  0  0  # atno 11104 bound_to 11082
   13.8980   -4.6844   33.4439 H   0  0  0  0  0  0  0  0  0  0  0  0  # atno 11164 bound_to 11142
   14.3833   -1.5634   30.6631 H   0  0  0  0  0  0  0  0  0  0  0  0  # atno 11206 bound_to 11196
   14.7253   -0.8300   27.6048 H   0  0  0  0  0  0  0  0  0  0  0  0  # atno 11253 bound_to 11229
   13.7559    1.4145   27.5959 H   0  0  0  0  0  0  0  0  0  0  0  0  # atno 11300 bound_to 11266
   11.3762    4.3171   30.4294 H   0  0  0  0  0  0  0  0  0  0  0  0  # atno 11396 bound_to 11358
    9.7689    3.2257   30.5263 H   0  0  0  0  0  0  0  0  0  0  0  0  # atno 11450 bound_to 11416
    9.6854    0.7599   30.9947 H   0  0  0  0  0  0  0  0  0  0  0  0  # atno 11504 bound_to 11466
   12.4420    8.9219   34.2930 H   0  0  0  0  0  0  0  0  0  0  0  0  # atno 11577 bound_to 11538
    8.5337  -11.0713   38.2983 H   0  0  0  0  0  0  0  0  0  0  0  0  # atno 12021 bound_to 11973
   10.8730  -14.4938   37.4273 H   0  0  0  0  0  0  0  0  0  0  0  0  # atno 12092 bound_to 12045
   15.4566  -18.1421   37.9032 H   0  0  0  0  0  0  0  0  0  0  0  0  # atno 12154 bound_to 12142
   26.7698   14.5387   35.1348 H   0  0  0  0  0  0  0  0  0  0  0  0  # atno 15096 bound_to 15054
   27.1571   15.3860   33.7639 H   0  0  0  0  0  0  0  0  0  0  0  0  # atno 15097 bound_to 15054
   26.1189   16.0405   34.8777 H   0  0  0  0  0  0  0  0  0  0  0  0  # atno 15098 bound_to 15054
   31.6753   10.4705   31.1928 H   0  0  0  0  0  0  0  0  0  0  0  0  # atno 15182 bound_to 15161
   32.8041   11.6846   31.1928 H   0  0  0  0  0  0  0  0  0  0  0  0  # atno 15183 bound_to 15161
   31.3027   11.9475   30.5406 H   0  0  0  0  0  0  0  0  0  0  0  0  # atno 15184 bound_to 15161
   26.9673   11.6517   25.2291 H   0  0  0  0  0  0  0  0  0  0  0  0  # atno 15326 bound_to 15310
    8.7473  -12.1866   27.7488 H   0  0  0  0  0  0  0  0  0  0  0  0  # atno 15542 bound_to 15533
    8.1469  -15.4584   27.3292 H   0  0  0  0  0  0  0  0  0  0  0  0  # atno 15588 bound_to 15579
   10.3681  -17.5741   29.8721 H   0  0  0  0  0  0  0  0  0  0  0  0  # atno 15633 bound_to 15624
   11.3649  -15.2570   27.0917 LP  0  0  0  0  0  0  0  0  0  0  0  0  # atno 16458 bound_to 15536
   11.1411  -14.4813   28.6242 LP  0  0  0  0  0  0  0  0  0  0  0  0  # atno 16459 bound_to 15536
   15.7110  -12.9884   34.8857 LP  0  0  0  0  0  0  0  0  0  0  0  0  # atno 16460 bound_to 10947
   16.9790  -13.7489   35.5788 LP  0  0  0  0  0  0  0  0  0  0  0  0  # atno 16461 bound_to 10947
   13.7778  -11.6639   37.6173 LP  0  0  0  0  0  0  0  0  0  0  0  0  # atno 16466 bound_to 10707
   14.8722  -10.9727   36.6218 LP  0  0  0  0  0  0  0  0  0  0  0  0  # atno 16467 bound_to 10707
   22.2099  -13.2287   36.3647 LP  0  0  0  0  0  0  0  0  0  0  0  0  # atno 16468 bound_to 10881
   20.6465  -12.7175   35.8221 LP  0  0  0  0  0  0  0  0  0  0  0  0  # atno 16469 bound_to 10881
   23.4761   -9.0830   34.4514 LP  0  0  0  0  0  0  0  0  0  0  0  0  # atno 16470 bound_to 10910
   22.4774   -7.7009   34.7553 LP  0  0  0  0  0  0  0  0  0  0  0  0  # atno 16471 bound_to 10910
   21.4116   -9.6790   35.7354 LP  0  0  0  0  0  0  0  0  0  0  0  0  # atno 16472 bound_to 10936
   15.8285   -5.9660   35.0782 LP  0  0  0  0  0  0  0  0  0  0  0  0  # atno 16473 bound_to 10997
   16.0918   -7.5973   35.5974 LP  0  0  0  0  0  0  0  0  0  0  0  0  # atno 16474 bound_to 10997
   11.5438  -11.0649   37.2845 LP  0  0  0  0  0  0  0  0  0  0  0  0  # atno 16475 bound_to 11976
   12.5697  -11.9930   38.3267 LP  0  0  0  0  0  0  0  0  0  0  0  0  # atno 16476 bound_to 11976
   12.4927  -17.1477   37.7974 LP  0  0  0  0  0  0  0  0  0  0  0  0  # atno 16477 bound_to 12048
   12.0113  -15.9708   36.6214 LP  0  0  0  0  0  0  0  0  0  0  0  0  # atno 16478 bound_to 12048
   19.3072   -8.9934   37.7520 LP  0  0  0  0  0  0  0  0  0  0  0  0  # atno 16480 bound_to 10939
   17.9932   -7.9036   38.0447 LP  0  0  0  0  0  0  0  0  0  0  0  0  # atno 16481 bound_to 10939
   11.5344   -6.1454   35.6896 LP  0  0  0  0  0  0  0  0  0  0  0  0  # atno 16483 bound_to 11039
   11.9129   -7.4671   36.7431 LP  0  0  0  0  0  0  0  0  0  0  0  0  # atno 16484 bound_to 11039
   10.5961  -13.3376   38.7068 LP  0  0  0  0  0  0  0  0  0  0  0  0  # atno 16485 bound_to 12045
    8.2582  -11.7865   26.1192 LP  0  0  0  0  0  0  0  0  0  0  0  0  # atno 16490 bound_to 15533
    8.8642  -14.1690   28.2764 LP  0  0  0  0  0  0  0  0  0  0  0  0  # atno 16491 bound_to 15579
    9.6781  -18.0121   26.9310 LP  0  0  0  0  0  0  0  0  0  0  0  0  # atno 16492 bound_to 15582
    8.0243  -17.5455   27.1489 LP  0  0  0  0  0  0  0  0  0  0  0  0  # atno 16493 bound_to 15582
    8.7644  -18.1659   29.4975 LP  0  0  0  0  0  0  0  0  0  0  0  0  # atno 16494 bound_to 15624
   22.2397  -11.7973   38.1423 LP  0  0  0  0  0  0  0  0  0  0  0  0  # atno 16495 bound_to 10907
   25.4797  -10.2940   37.6093 LP  0  0  0  0  0  0  0  0  0  0  0  0  # atno 16496 bound_to 6104
   25.3472  -10.4513   35.8895 LP  0  0  0  0  0  0  0  0  0  0  0  0  # atno 16497 bound_to 6104
   27.6441  -13.0694   37.6356 LP  0  0  0  0  0  0  0  0  0  0  0  0  # atno 16498 bound_to 6129
   29.9217   -8.6498   32.9179 LP  0  0  0  0  0  0  0  0  0  0  0  0  # atno 16499 bound_to 5910
   29.1566   -9.5411   34.1908 LP  0  0  0  0  0  0  0  0  0  0  0  0  # atno 16500 bound_to 5910
   29.5296  -10.3826   35.6460 LP  0  0  0  0  0  0  0  0  0  0  0  0  # atno 16501 bound_to 6101
   27.7958   -9.1064   37.0185 LP  0  0  0  0  0  0  0  0  0  0  0  0  # atno 16502 bound_to 5850
   29.4909   -9.4555   36.9494 LP  0  0  0  0  0  0  0  0  0  0  0  0  # atno 16503 bound_to 5850
   30.0771   -6.3247   37.1204 LP  0  0  0  0  0  0  0  0  0  0  0  0  # atno 16504 bound_to 5907
   30.0084  -14.0408   35.7735 LP  0  0  0  0  0  0  0  0  0  0  0  0  # atno 16505 bound_to 6051
   28.7633  -13.6996   36.9281 LP  0  0  0  0  0  0  0  0  0  0  0  0  # atno 16506 bound_to 6051
   32.2642  -12.2340   34.7658 LP  0  0  0  0  0  0  0  0  0  0  0  0  # atno 16507 bound_to 5982
   32.3754  -11.1364   33.4306 LP  0  0  0  0  0  0  0  0  0  0  0  0  # atno 16508 bound_to 5982
   30.5067   -7.8606   34.6850 LP  0  0  0  0  0  0  0  0  0  0  0  0  # atno 16509 bound_to 5979
   31.2438  -10.1060   35.6452 LP  0  0  0  0  0  0  0  0  0  0  0  0  # atno 16510 bound_to 6048
   12.3056   -3.7089   29.8731 LP  0  0  0  0  0  0  0  0  0  0  0  0  # atno 16511 bound_to 11145
   12.9447   -4.7681   31.0854 LP  0  0  0  0  0  0  0  0  0  0  0  0  # atno 16512 bound_to 11145
   14.8418   -3.1386   30.0370 LP  0  0  0  0  0  0  0  0  0  0  0  0  # atno 16513 bound_to 11196
   15.3720    0.4543   29.1597 LP  0  0  0  0  0  0  0  0  0  0  0  0  # atno 16514 bound_to 11199
   16.5076   -0.6976   28.5406 LP  0  0  0  0  0  0  0  0  0  0  0  0  # atno 16515 bound_to 11199
   13.6066   -1.1210   26.2866 LP  0  0  0  0  0  0  0  0  0  0  0  0  # atno 16516 bound_to 11229
   12.8993   -3.2580   33.5203 LP  0  0  0  0  0  0  0  0  0  0  0  0  # atno 16525 bound_to 11142
   14.0190   -1.6187   35.2821 LP  0  0  0  0  0  0  0  0  0  0  0  0  # atno 16530 bound_to 11085
   15.3561   -2.3676   34.4750 LP  0  0  0  0  0  0  0  0  0  0  0  0  # atno 16531 bound_to 11085
   13.5561   -5.7111   36.3377 LP  0  0  0  0  0  0  0  0  0  0  0  0  # atno 16533 bound_to 11082
   16.2860    3.2439   26.8391 LP  0  0  0  0  0  0  0  0  0  0  0  0  # atno 16538 bound_to 11232
   16.7656    2.3240   25.4521 LP  0  0  0  0  0  0  0  0  0  0  0  0  # atno 16539 bound_to 11232
   14.4836    1.9361   26.0856 LP  0  0  0  0  0  0  0  0  0  0  0  0  # atno 16542 bound_to 11266
   16.3905    3.0193   37.5252 LP  0  0  0  0  0  0  0  0  0  0  0  0  # atno 16548 bound_to 9421
   12.2643    2.8364   30.1870 LP  0  0  0  0  0  0  0  0  0  0  0  0  # atno 16549 bound_to 11269
   12.0488    2.1366   28.6174 LP  0  0  0  0  0  0  0  0  0  0  0  0  # atno 16550 bound_to 11269
   11.0166    4.6947   32.8696 LP  0  0  0  0  0  0  0  0  0  0  0  0  # atno 16552 bound_to 11318
   11.0838    3.1635   32.0629 LP  0  0  0  0  0  0  0  0  0  0  0  0  # atno 16553 bound_to 11318
   11.0511    1.8396   30.8026 LP  0  0  0  0  0  0  0  0  0  0  0  0  # atno 16554 bound_to 11466
   11.1963    5.7443   29.4533 LP  0  0  0  0  0  0  0  0  0  0  0  0  # atno 16555 bound_to 11358
   13.4052    7.6465   33.9885 LP  0  0  0  0  0  0  0  0  0  0  0  0  # atno 16556 bound_to 11538
   13.0335    8.0435   35.5282 LP  0  0  0  0  0  0  0  0  0  0  0  0  # atno 16557 bound_to 11538
   17.7227    9.5766   38.6180 LP  0  0  0  0  0  0  0  0  0  0  0  0  # atno 16558 bound_to 9314
   17.0749    8.1224   37.9357 LP  0  0  0  0  0  0  0  0  0  0  0  0  # atno 16559 bound_to 9314
   18.9046    6.9669   40.2726 LP  0  0  0  0  0  0  0  0  0  0  0  0  # atno 16560 bound_to 9335
   15.9026    5.2301   39.8386 LP  0  0  0  0  0  0  0  0  0  0  0  0  # atno 16561 bound_to 9338
   16.4387    3.7227   39.1749 LP  0  0  0  0  0  0  0  0  0  0  0  0  # atno 16562 bound_to 9338
   21.0638    5.6187   39.6236 LP  0  0  0  0  0  0  0  0  0  0  0  0  # atno 16563 bound_to 9341
   20.4648    6.7197   38.5769 LP  0  0  0  0  0  0  0  0  0  0  0  0  # atno 16564 bound_to 9341
   13.8710    2.9450   38.7101 LP  0  0  0  0  0  0  0  0  0  0  0  0  # atno 16565 bound_to 9380
   12.9971    2.9453   37.2147 LP  0  0  0  0  0  0  0  0  0  0  0  0  # atno 16566 bound_to 9380
   15.4578    2.6556   39.0897 LP  0  0  0  0  0  0  0  0  0  0  0  0  # atno 16567 bound_to 9469
   29.6419   -3.6633   36.6772 LP  0  0  0  0  0  0  0  0  0  0  0  0  # atno 16570 bound_to 5709
   29.4165   -4.6986   38.0474 LP  0  0  0  0  0  0  0  0  0  0  0  0  # atno 16571 bound_to 5709
   26.0195    0.5516   40.5652 LP  0  0  0  0  0  0  0  0  0  0  0  0  # atno 16574 bound_to 7822
   29.6293    3.3366   41.4976 LP  0  0  0  0  0  0  0  0  0  0  0  0  # atno 16575 bound_to 7825
   28.8384    4.6247   42.3433 LP  0  0  0  0  0  0  0  0  0  0  0  0  # atno 16576 bound_to 7825
   30.6477   -2.9415   40.9521 LP  0  0  0  0  0  0  0  0  0  0  0  0  # atno 16579 bound_to 5706
   31.3734   -3.0760   39.2875 LP  0  0  0  0  0  0  0  0  0  0  0  0  # atno 16580 bound_to 5761
   34.8617   -1.3328   36.8807 LP  0  0  0  0  0  0  0  0  0  0  0  0  # atno 16581 bound_to 5766
   33.4255   -1.6836   36.1871 LP  0  0  0  0  0  0  0  0  0  0  0  0  # atno 16582 bound_to 5766
   28.2889    0.9557   43.0874 LP  0  0  0  0  0  0  0  0  0  0  0  0  # atno 16583 bound_to 7781
   28.4880   -0.6032   42.3594 LP  0  0  0  0  0  0  0  0  0  0  0  0  # atno 16584 bound_to 7781
   27.1008    3.4054   42.1968 LP  0  0  0  0  0  0  0  0  0  0  0  0  # atno 16585 bound_to 7866
   15.1083   -1.0980   38.7715 LP  0  0  0  0  0  0  0  0  0  0  0  0  # atno 16593 bound_to 9424
   14.1499   -0.1667   39.8733 LP  0  0  0  0  0  0  0  0  0  0  0  0  # atno 16594 bound_to 9424
   21.2635   -2.2667   42.1060 LP  0  0  0  0  0  0  0  0  0  0  0  0  # atno 16595 bound_to 9480
   20.8639   -2.6555   40.5712 LP  0  0  0  0  0  0  0  0  0  0  0  0  # atno 16596 bound_to 9480
   19.5625    1.8862   43.7471 LP  0  0  0  0  0  0  0  0  0  0  0  0  # atno 16597 bound_to 7659
   20.2729    3.4009   43.2988 LP  0  0  0  0  0  0  0  0  0  0  0  0  # atno 16598 bound_to 7659
   24.5759    2.3138   44.0988 LP  0  0  0  0  0  0  0  0  0  0  0  0  # atno 16599 bound_to 7717
   25.6944    0.9914   44.0786 LP  0  0  0  0  0  0  0  0  0  0  0  0  # atno 16600 bound_to 7717
   23.0323    1.8657   45.1215 LP  0  0  0  0  0  0  0  0  0  0  0  0  # atno 16601 bound_to 7714
   18.3713   -4.7058   41.4600 LP  0  0  0  0  0  0  0  0  0  0  0  0  # atno 16602 bound_to 10532
   18.2755   -6.0945   42.4906 LP  0  0  0  0  0  0  0  0  0  0  0  0  # atno 16603 bound_to 10532
   16.8915   10.4602   41.8232 LP  0  0  0  0  0  0  0  0  0  0  0  0  # atno 16604 bound_to 9311
   28.0661   10.8169   26.0920 LP  0  0  0  0  0  0  0  0  0  0  0  0  # atno 16607 bound_to 15310
   26.7913   11.5103   26.8409 LP  0  0  0  0  0  0  0  0  0  0  0  0  # atno 16608 bound_to 15310
   17.8010    7.4121   44.4678 LP  0  0  0  0  0  0  0  0  0  0  0  0  # atno 16611 bound_to 7554
   18.0420    9.0165   45.0743 LP  0  0  0  0  0  0  0  0  0  0  0  0  # atno 16612 bound_to 7554
   22.8230    5.1956   44.9923 LP  0  0  0  0  0  0  0  0  0  0  0  0  # atno 16613 bound_to 7623
   21.7803    4.7029   43.7000 LP  0  0  0  0  0  0  0  0  0  0  0  0  # atno 16614 bound_to 7623
   13.8330   11.9848   42.8048 LP  0  0  0  0  0  0  0  0  0  0  0  0  # atno 16615 bound_to 9280
   15.9167    8.6489   42.7785 LP  0  0  0  0  0  0  0  0  0  0  0  0  # atno 16616 bound_to 9283
   14.3997    9.3473   42.3190 LP  0  0  0  0  0  0  0  0  0  0  0  0  # atno 16617 bound_to 9283
   14.2710   13.7282   39.7303 LP  0  0  0  0  0  0  0  0  0  0  0  0  # atno 16618 bound_to 9228
   14.3837   14.6154   41.2136 LP  0  0  0  0  0  0  0  0  0  0  0  0  # atno 16619 bound_to 9228
   19.8243    6.9092   47.4224 LP  0  0  0  0  0  0  0  0  0  0  0  0  # atno 16620 bound_to 7620
   11.5899   14.0402   43.2371 LP  0  0  0  0  0  0  0  0  0  0  0  0  # atno 16628 bound_to 9225
   13.6108    2.6848   40.1096 LP  0  0  0  0  0  0  0  0  0  0  0  0  # atno 16635 bound_to 9528
   22.8935   20.5875   37.1801 LP  0  0  0  0  0  0  0  0  0  0  0  0  # atno 16636 bound_to 3357
   24.4022   19.7367   37.1620 LP  0  0  0  0  0  0  0  0  0  0  0  0  # atno 16637 bound_to 3357
   21.4263   21.4074   39.6830 LP  0  0  0  0  0  0  0  0  0  0  0  0  # atno 16638 bound_to 3415
   22.4441   20.6127   40.8374 LP  0  0  0  0  0  0  0  0  0  0  0  0  # atno 16639 bound_to 3415
   25.2100   22.8674   37.8142 LP  0  0  0  0  0  0  0  0  0  0  0  0  # atno 16640 bound_to 3412
   23.7559   22.2402   40.1125 LP  0  0  0  0  0  0  0  0  0  0  0  0  # atno 16641 bound_to 3478
    7.9955   14.8944   43.8174 LP  0  0  0  0  0  0  0  0  0  0  0  0  # atno 16646 bound_to 9102
    9.4804   14.0755   43.4650 LP  0  0  0  0  0  0  0  0  0  0  0  0  # atno 16647 bound_to 9102
   10.9666   15.1070   46.3851 LP  0  0  0  0  0  0  0  0  0  0  0  0  # atno 16648 bound_to 9168
   14.8976   17.3024   48.0308 LP  0  0  0  0  0  0  0  0  0  0  0  0  # atno 16649 bound_to 9178
   14.9784   17.3597   46.4008 LP  0  0  0  0  0  0  0  0  0  0  0  0  # atno 16650 bound_to 9178
   10.4300   24.8368   36.9597 LP  0  0  0  0  0  0  0  0  0  0  0  0  # atno 16654 bound_to 6255
    9.5233   24.6699   35.6119 LP  0  0  0  0  0  0  0  0  0  0  0  0  # atno 16655 bound_to 6255
   11.6483   18.4402   47.6706 LP  0  0  0  0  0  0  0  0  0  0  0  0  # atno 16656 bound_to 9176
   13.0367   19.0802   47.0966 LP  0  0  0  0  0  0  0  0  0  0  0  0  # atno 16657 bound_to 9176

> <Gold.Score>
     Fitness  S(hb_ext) S(vdw_ext)  S(hb_int)    S(int)      intcor
     27.63       6.68      15.73       0.00      -0.67      -0.76

> <Gold.Goldscore.Fitness>
27.6339

> <Gold.Goldscore.Internal.Vdw>
-0.9147

> <Gold.Goldscore.Internal.Torsion>
-0.5136

> <Gold.Goldscore.External.Vdw>
15.7250

> <Gold.Goldscore.Internal.HBond>
0.0000

> <Gold.Goldscore.External.HBond>
6.6817

> <Gold.Goldscore.Internal.Correction>
-0.7585

> <Gold.Goldscore.Hbonds>
donor molecule, donor type, donor heavy atom, donor atom, acceptor molecule, acceptor atom, score
      P1  H  5975  6022       L1     9  1.00
      P1  H  5978  6026       L1     9  0.01
      P1  H  5795  5837       L1     9  0.30

> <Gold.Goldscore.Internal.Vdw.Weighted>
-0.9147

> <Gold.Goldscore.Internal.Torsion.Weighted>
-0.5136

> <Gold.Goldscore.External.Vdw.Weighted>
21.6219

> <Gold.Goldscore.Internal.HBond.Weighted>
0.0000

> <Gold.Goldscore.External.HBond.Weighted>
6.6817

> <Gold.Goldscore.Internal.Correction.Weighted>
-0.7585

> <Gold.Rescore>
     Score     S(PLP)   S(hbond)     S(cho)   S(metal)  DE(clash)   DE(tors)     intcor
     19.92     -18.59       0.99       0.00       0.00       0.00       0.82       ----

> <Gold.PLP.Fitness>
19.9211

> <Gold.PLP.PLP>
-18.5920

> <Gold.PLP.part.hbond>
-1.4638

> <Gold.PLP.part.metal>
0.0000

> <Gold.PLP.part.buried>
-3.1411

> <Gold.PLP.part.nonpolar>
-14.5225

> <Gold.PLP.part.repulsive>
0.0775

> <Gold.PLP.ligand.clash>
0.0000

> <Gold.PLP.ligand.torsion>
0.8223

> <Gold.PLP.Chemscore.Hbond>
0.9913

> <Gold.PLP.Chemscore.CHOScore>
0.0000

> <Gold.PLP.Chemscore.Metal>
0.0000

> <Gold.Chemscore.Hbonds>
donor molecule, donor type, donor heavy atom, donor atom, acceptor molecule, acceptor atom, score
      P1  H  5975  6022       L1     9  1.00
      P1  H  5978  6026       L1     9  0.05
      P1  H  5795  5837       L1     9  0.55

> <Gold.PLP.Chemscore.Internal.Correction>
   9.000000E+99

