#       Name:                CT1002167954
#       Creating user name   hitesit
#       Creation time:       Sun Apr 16 20:19:56 2023


#       File generated by GOLD software.
#

@<TRIPOS>MOLECULE
CT1002167954|ligand_prepared|mol2|1|dock3
    29    30     1
SMALL
NO_CHARGES


@<TRIPOS>ATOM
      1 C1          19.6559  10.0032  35.9722 C.3            1 RES1               0.0000
      2 C2          18.2418  10.4872  36.3529 C.ar           1 RES1               0.0000
      3 C3          20.6328  10.9621  36.6463 C.2            1 RES1               0.0000
      4 C4          19.7601   8.5630  36.4617 C.2            1 RES1               0.0000
      5 C5          19.9305  10.0117  34.4503 C.3            1 RES1               0.0000
      6 C6          17.1533  10.2117  35.5307 C.ar           1 RES1               0.0000
      7 C7          18.0101  11.2065  37.5223 C.ar           1 RES1               0.0000
      8 N8          21.3168  10.5058  37.7343 N.am           1 RES1               0.0000
      9 O9          20.7717  12.1138  36.2532 O.2            1 RES1               0.0000
     10 N10         20.6536   8.2885  37.4637 N.am           1 RES1               0.0000
     11 O11         19.0647   7.6666  36.0001 O.2            1 RES1               0.0000
     12 C12         21.3872   9.7678  34.0888 C.3            1 RES1               0.0000
     13 C13         15.8789  10.6373  35.8668 C.ar           1 RES1               0.0000
     14 C14         16.7348  11.6314  37.8564 C.ar           1 RES1               0.0000
     15 C15         21.4146   9.2001  38.1434 C.2            1 RES1               0.0000
     16 C16         15.6687  11.3470  37.0299 C.ar           1 RES1               0.0000
     17 O17         22.1548   8.8834  39.0701 O.2            1 RES1               0.0000
     18 H18         19.3146   9.2376  33.9761 H              1 RES1               0.0000
     19 H19         19.6230  10.9820  34.0414 H              1 RES1               0.0000
     20 H20         17.2997   9.6566  34.6101 H              1 RES1               0.0000
     21 H21         18.8340  11.4427  38.1871 H              1 RES1               0.0000
     22 H22         21.8002  11.1996  38.2959 H              1 RES1               0.0000
     23 H23         20.7614   7.3142  37.7273 H              1 RES1               0.0000
     24 H24         21.5247   9.7839  33.0097 H              1 RES1               0.0000
     25 H25         22.0260  10.5339  34.5233 H              1 RES1               0.0000
     26 H26         21.7195   8.7998  34.4584 H              1 RES1               0.0000
     27 H27         15.0433  10.4121  35.2122 H              1 RES1               0.0000
     28 H28         16.5742  12.1902  38.7725 H              1 RES1               0.0000
     29 H29         14.6701  11.6799  37.2931 H              1 RES1               0.0000
@<TRIPOS>BOND
    1    1    2 1     
    2    1    3 1     
    3    1    4 1     
    4    1    5 1     
    5    2    6 ar    
    6    2    7 ar    
    7    3    8 1     
    8    3    9 2     
    9    4   10 1     
   10    4   11 2     
   11    5   12 1     
   12    5   18 1     
   13    5   19 1     
   14    6   13 ar    
   15    6   20 1     
   16    7   14 ar    
   17    7   21 1     
   18    8   15 1     
   19    8   22 1     
   20   10   15 1     
   21   10   23 1     
   22   12   24 1     
   23   12   25 1     
   24   12   26 1     
   25   13   16 ar    
   26   13   27 1     
   27   14   16 ar    
   28   14   28 1     
   29   15   17 2     
   30   16   29 1     
@<TRIPOS>SUBSTRUCTURE
      1 RES1           1
@<TRIPOS>SET
DONOR_HYDROGENS      STATIC     ATOMS    <user>   **** ""
2 22 23
ATOM$RED        STATIC     ATOMS    COLORGROUP SYSTEM
2 22 23
@<TRIPOS>COMMENT
> <Gold.Version>
2022.3.0

> <Gold.Id.Protein>
unknown|3mvj_clean|pdb

> <Gold.Protein.RotatedTorsions>
[ 10968 10947 10946 10944 ] final -138.63 input   60.01 | X-H torsion
[ 10728 10707 10706 10704 ] final  152.29 input   59.96 | X-H torsion
[ 10960 10936 10937 10938 ] final  -73.61 input   23.31 | X-H torsion
[ 12092 12045 12046 12047 ] final  127.17 input   63.71 | X-H torsion
[ 15542 15533 15534 15535 ] final -154.15 input   83.29 | X-H torsion
[ 15588 15579 15580 15581 ] final  122.33 input  107.67 | X-H torsion
[ 15633 15624 15625 15626 ] final  154.20 input   84.82 | X-H torsion
[ 10915 10907 10908 10909 ] final   32.40 input  -87.38 | X-H torsion
[ 6151 6129 6130 6131 ] final   80.63 input   27.76 | X-H torsion
[ 6109 6101 6102 6103 ] final   71.70 input  -93.79 | X-H torsion
[ 5929 5907 5908 5909 ] final -168.41 input  119.25 | X-H torsion
[ 6001 5979 5980 5981 ] final  138.20 input  112.51 | X-H torsion
[ 6064 6048 6049 6050 ] final  105.31 input  108.26 | X-H torsion
[ 11206 11196 11197 11198 ] final  110.71 input   -0.63 | X-H torsion
[ 11253 11229 11230 11231 ] final -103.34 input  120.69 | X-H torsion
[ 11164 11142 11143 11144 ] final -150.86 input   33.88 | X-H torsion
[ 11104 11082 11083 11084 ] final   68.03 input   45.00 | X-H torsion
[ 11300 11266 11267 11268 ] final  -31.99 input   49.58 | X-H torsion
[ 9451 9421 9422 9423 ] final  176.44 input  116.39 | X-H torsion
[ 11504 11466 11467 11468 ] final -131.82 input  126.08 | X-H torsion
[ 11396 11358 11359 11360 ] final  -39.74 input   98.08 | X-H torsion
[ 11577 11538 11537 11535 ] final  101.45 input   60.01 | X-H torsion
[ 9363 9335 9336 9337 ] final -163.43 input   84.14 | X-H torsion
[ 9369 9341 9339 9336 ] final -160.02 input   60.02 | X-H torsion
[ 9511 9469 9470 9471 ] final -118.16 input   75.21 | X-H torsion
[ 7840 7822 7823 7824 ] final   29.71 input  121.36 | X-H torsion
[ 7742 7722 7721 7720 ] final -138.33 input   60.01 | X-H torsion
[ 5728 5706 5707 5708 ] final  -10.91 input  119.20 | X-H torsion
[ 5773 5761 5762 5763 ] final -111.09 input  120.20 | X-H torsion
[ 5777 5766 5765 5762 ] final -122.33 input   59.99 | X-H torsion
[ 7882 7866 7867 7868 ] final   12.64 input   81.17 | X-H torsion
[ 9519 9480 9479 9477 ] final  -17.04 input   60.03 | X-H torsion
[ 7732 7714 7715 7716 ] final  -14.74 input  -10.67 | X-H torsion
[ 15096 15054 15053 15052 ] final   -8.37 input   60.01 | X-H torsion
[ 9325 9311 9312 9313 ] final -106.34 input  -66.31 | X-H torsion
[ 15182 15161 15160 15159 ] final   19.13 input   59.99 | X-H torsion
[ 15326 15310 15309 15306 ] final  -92.68 input   59.99 | X-H torsion
[ 9302 9280 9281 9282 ] final -145.99 input   22.77 | X-H torsion
[ 7636 7620 7621 7622 ] final  -80.00 input   34.37 | X-H torsion
[ 9263 9225 9226 9227 ] final  104.91 input   96.07 | X-H torsion
[ 9566 9528 9529 9530 ] final  -85.32 input   99.68 | X-H torsion
[ 3444 3412 3413 3414 ] final  -67.83 input -120.58 | X-H torsion
[ 3506 3478 3479 3480 ] final  147.24 input   70.69 | X-H torsion
[ 9208 9168 9169 9170 ] final  151.53 input  115.65 | X-H torsion
[ 9216 9178 9175 9174 ] final  -41.89 input   59.98 | X-H torsion
[ 6271 6255 6254 6251 ] final -117.60 input   60.00 | X-H torsion
[ 9214 9176 9175 9174 ] final  -15.56 input   60.01 | X-H torsion
[ 12154 12142 12143 12144 ] final   98.93 input  108.55 | X-H torsion
[ 12021 11973 11974 11975 ] final   44.58 input   68.31 | X-H torsion
[ 11450 11416 11417 11418 ] final -101.26 input  102.35 | X-H torsion
[ 5632 5608 5609 5610 ] final  110.88 input  119.09 | X-H torsion
[ 10774 10756 10757 10758 ] final   87.33 input  129.22 | X-H torsion
[ 10816 10800 10801 10802 ] final   19.43 input  128.85 | X-H torsion
[ 8641 8619 8620 8621 ] final  -58.71 input   87.35 | X-H torsion
[ 3661 3632 3633 3634 ] final  -79.57 input  116.97 | X-H torsion
[ 10029 10008 10007 10005 ] final   26.84 input   60.01 | X-H torsion
[ 16458 15536 15535 15534 ] final -164.17 input    0.00 | X-H torsion
[ 16468 10881 10880 10879 ] final  -89.57 input    0.00 | X-H torsion
[ 16470 10910 10909 10908 ] final  -25.28 input    0.00 | X-H torsion
[ 16473 10997 10996 10995 ] final  161.30 input    0.00 | X-H torsion
[ 16475 11976 11975 11974 ] final   89.93 input    0.00 | X-H torsion
[ 16477 12048 12047 12046 ] final  -20.16 input    0.00 | X-H torsion
[ 16480 10939 10938 10937 ] final  -43.85 input   -0.00 | X-H torsion
[ 16483 11039 11038 11037 ] final   -8.51 input    0.00 | X-H torsion
[ 16492 15582 15581 15580 ] final -173.12 input    0.00 | X-H torsion
[ 16496 6104 6103 6102 ] final   14.19 input    0.00 | X-H torsion
[ 16499 5910 5909 5908 ] final -132.08 input   -0.00 | X-H torsion
[ 16502 5850 5849 5848 ] final   -8.34 input    0.00 | X-H torsion
[ 16505 6051 6050 6049 ] final  -23.82 input    0.00 | X-H torsion
[ 16507 5982 5981 5980 ] final   68.29 input    0.00 | X-H torsion
[ 16511 11145 11144 11143 ] final   64.30 input    0.00 | X-H torsion
[ 16514 11199 11198 11197 ] final -121.32 input    0.00 | X-H torsion
[ 16530 11085 11084 11083 ] final   -5.53 input   -0.00 | X-H torsion
[ 16538 11232 11231 11230 ] final -117.98 input    0.00 | X-H torsion
[ 16549 11269 11268 11267 ] final -100.80 input   -0.00 | X-H torsion
[ 16552 11318 11317 11316 ] final   29.33 input    0.00 | X-H torsion
[ 16558 9314 9313 9312 ] final -179.00 input    0.00 | X-H torsion
[ 16561 9338 9337 9336 ] final   81.46 input    0.00 | X-H torsion
[ 16565 9380 9379 9378 ] final  109.80 input    0.00 | X-H torsion
[ 16570 5709 5708 5707 ] final  -81.42 input    0.00 | X-H torsion
[ 16575 7825 7824 7823 ] final -139.26 input    0.00 | X-H torsion
[ 16583 7781 7780 7779 ] final   44.52 input   -0.00 | X-H torsion
[ 16593 9424 9423 9422 ] final   43.95 input   -0.00 | X-H torsion
[ 16597 7659 7658 7657 ] final   66.23 input   -0.00 | X-H torsion
[ 16599 7717 7716 7715 ] final  114.46 input    0.00 | X-H torsion
[ 16602 10532 10531 10530 ] final  -72.19 input    0.00 | X-H torsion
[ 16611 7554 7553 7552 ] final    0.64 input    0.00 | X-H torsion
[ 16613 7623 7622 7621 ] final  142.62 input   -0.00 | X-H torsion
[ 16616 9283 9282 9281 ] final  -94.28 input    0.00 | X-H torsion
[ 16618 9228 9227 9226 ] final  121.22 input   -0.00 | X-H torsion
[ 16636 3357 3356 3355 ] final  139.45 input   -0.00 | X-H torsion
[ 16638 3415 3414 3413 ] final  -14.60 input   -0.00 | X-H torsion
[ 16646 9102 9101 9100 ] final  -22.40 input    0.00 | X-H torsion

> <Gold.Protein.ActiveResidues>
 ARG45   SER53   PHE54   LEU82   LYS83   GLN84   GLU86   HIS87   GLU127  PHE129 
 SER130  HIS131  LEU132  ARG133  ARG134  ILE135  GLY136  ARG137  PHE138  SER139 
 HIS142  ARG165  ASP166  LEU167  LYS168  PRO169  GLU170  ASN171  ASP184  GLY186 
 PHE187  TRP196  TPO197  LEU198  CYS199  GLY200  THR201  PRO202  GLU203  TYR204 
 LEU205  ILE209  ILE210  TYR215  VAL226  LEU227  TYR229  GLU230  MET231  ALA233 
 GLY234  TYR235  PRO236  PRO237  PHE238  PHE239  ALA240  ASP241  GLN242  PRO243 
 ILE244  GLN245  ILE246  TYR247  LYS249  ARG256  PHE257  PRO258  SER259  HIS260 
 PRO313  PHE314  ILE315  LYS317  LYS319  SER325  ASN326  ASP328  ASP329  GLU331 
 GLU332  GLU333  GLU334 

> <Gold.Protein.RotatedAtoms>
   25.1983   23.0404   37.8035 H   0  0  0  0  0  0  0  0  0  0  0  0  # atno 3444 bound_to 3412
   24.7683   21.3768   39.1041 H   0  0  0  0  0  0  0  0  0  0  0  0  # atno 3506 bound_to 3478
   22.8937   20.1317   46.3195 H   0  0  0  0  0  0  0  0  0  0  0  0  # atno 3661 bound_to 3632
   35.8973   -0.8131   41.5278 H   0  0  0  0  0  0  0  0  0  0  0  0  # atno 5632 bound_to 5608
   30.8763   -2.7695   40.8365 H   0  0  0  0  0  0  0  0  0  0  0  0  # atno 5728 bound_to 5706
   30.7070   -2.2976   37.9858 H   0  0  0  0  0  0  0  0  0  0  0  0  # atno 5773 bound_to 5761
   35.0639   -2.4381   36.1251 H   0  0  0  0  0  0  0  0  0  0  0  0  # atno 5777 bound_to 5766
   28.5299   -6.1522   37.1990 H   0  0  0  0  0  0  0  0  0  0  0  0  # atno 5929 bound_to 5907
   31.6950   -7.0560   35.5147 H   0  0  0  0  0  0  0  0  0  0  0  0  # atno 6001 bound_to 5979
   31.6721   -9.6903   37.0425 H   0  0  0  0  0  0  0  0  0  0  0  0  # atno 6064 bound_to 6048
   29.6472  -11.8904   36.5083 H   0  0  0  0  0  0  0  0  0  0  0  0  # atno 6109 bound_to 6101
   26.8974  -13.3083   37.1240 H   0  0  0  0  0  0  0  0  0  0  0  0  # atno 6151 bound_to 6129
   10.9907   23.8762   36.3867 H   0  0  0  0  0  0  0  0  0  0  0  0  # atno 6271 bound_to 6255
   18.4759    6.4490   46.5362 H   0  0  0  0  0  0  0  0  0  0  0  0  # atno 7636 bound_to 7620
   23.0008    1.7161   45.1814 H   0  0  0  0  0  0  0  0  0  0  0  0  # atno 7732 bound_to 7714
   22.6615    6.9793   40.4483 H   0  0  0  0  0  0  0  0  0  0  0  0  # atno 7742 bound_to 7722
   21.7952    5.8444   41.2895 H   0  0  0  0  0  0  0  0  0  0  0  0  # atno 7743 bound_to 7722
   23.3011    6.2950   41.8160 H   0  0  0  0  0  0  0  0  0  0  0  0  # atno 7744 bound_to 7722
   25.8224    1.3349   42.0611 H   0  0  0  0  0  0  0  0  0  0  0  0  # atno 7840 bound_to 7822
   27.1138    1.9760   43.1377 H   0  0  0  0  0  0  0  0  0  0  0  0  # atno 7882 bound_to 7866
   22.6165   13.8831   47.3188 H   0  0  0  0  0  0  0  0  0  0  0  0  # atno 8641 bound_to 8619
   10.7007   15.7925   46.2705 H   0  0  0  0  0  0  0  0  0  0  0  0  # atno 9208 bound_to 9168
   12.5195   18.9992   46.9188 H   0  0  0  0  0  0  0  0  0  0  0  0  # atno 9214 bound_to 9176
   14.8893   16.2238   46.5122 H   0  0  0  0  0  0  0  0  0  0  0  0  # atno 9216 bound_to 9178
   11.3241   14.9705   41.8096 H   0  0  0  0  0  0  0  0  0  0  0  0  # atno 9263 bound_to 9225
   13.4649   12.5114   41.3594 H   0  0  0  0  0  0  0  0  0  0  0  0  # atno 9302 bound_to 9280
   17.7093   10.8141   41.0260 H   0  0  0  0  0  0  0  0  0  0  0  0  # atno 9325 bound_to 9311
   18.7715    7.4426   39.9679 H   0  0  0  0  0  0  0  0  0  0  0  0  # atno 9363 bound_to 9335
   21.4111    5.1509   38.4928 H   0  0  0  0  0  0  0  0  0  0  0  0  # atno 9369 bound_to 9341
   16.0816    2.7028   35.9537 H   0  0  0  0  0  0  0  0  0  0  0  0  # atno 9451 bound_to 9421
   15.6595    0.9804   38.9781 H   0  0  0  0  0  0  0  0  0  0  0  0  # atno 9511 bound_to 9469
   20.6961   -2.7710   40.5631 H   0  0  0  0  0  0  0  0  0  0  0  0  # atno 9519 bound_to 9480
   14.4796    2.7031   41.5593 H   0  0  0  0  0  0  0  0  0  0  0  0  # atno 9566 bound_to 9528
   12.3972   12.3968   45.7117 H   0  0  0  0  0  0  0  0  0  0  0  0  # atno 10029 bound_to 10008
   13.5587  -11.4986   37.6477 H   0  0  0  0  0  0  0  0  0  0  0  0  # atno 10728 bound_to 10707
   19.0626   -6.9188   41.8519 H   0  0  0  0  0  0  0  0  0  0  0  0  # atno 10774 bound_to 10756
   21.1348   -8.3986   41.6463 H   0  0  0  0  0  0  0  0  0  0  0  0  # atno 10816 bound_to 10800
   21.0221  -10.9665   37.5285 H   0  0  0  0  0  0  0  0  0  0  0  0  # atno 10915 bound_to 10907
   21.6269   -8.7088   37.0072 H   0  0  0  0  0  0  0  0  0  0  0  0  # atno 10960 bound_to 10936
   17.1990  -13.9261   35.2589 H   0  0  0  0  0  0  0  0  0  0  0  0  # atno 10968 bound_to 10947
   14.0361   -4.1946   37.0574 H   0  0  0  0  0  0  0  0  0  0  0  0  # atno 11104 bound_to 11082
   13.7054   -3.4621   34.1248 H   0  0  0  0  0  0  0  0  0  0  0  0  # atno 11164 bound_to 11142
   13.9632   -1.9250   30.7693 H   0  0  0  0  0  0  0  0  0  0  0  0  # atno 11206 bound_to 11196
   14.9284   -1.2761   27.2683 H   0  0  0  0  0  0  0  0  0  0  0  0  # atno 11253 bound_to 11229
   14.3868    1.5476   27.6737 H   0  0  0  0  0  0  0  0  0  0  0  0  # atno 11300 bound_to 11266
   11.3686    4.2988   30.4030 H   0  0  0  0  0  0  0  0  0  0  0  0  # atno 11396 bound_to 11358
    8.7861    3.6094   29.8773 H   0  0  0  0  0  0  0  0  0  0  0  0  # atno 11450 bound_to 11416
   10.5831    0.4806   30.6385 H   0  0  0  0  0  0  0  0  0  0  0  0  # atno 11504 bound_to 11466
   13.2075    7.9257   33.7447 H   0  0  0  0  0  0  0  0  0  0  0  0  # atno 11577 bound_to 11538
    9.9065  -10.4860   37.4394 H   0  0  0  0  0  0  0  0  0  0  0  0  # atno 12021 bound_to 11973
   10.3656  -14.0465   38.8639 H   0  0  0  0  0  0  0  0  0  0  0  0  # atno 12092 bound_to 12045
   15.5738  -18.8017   36.4084 H   0  0  0  0  0  0  0  0  0  0  0  0  # atno 12154 bound_to 12142
   27.2152   15.2358   33.8026 H   0  0  0  0  0  0  0  0  0  0  0  0  # atno 15096 bound_to 15054
   26.1656   16.1149   34.7369 H   0  0  0  0  0  0  0  0  0  0  0  0  # atno 15097 bound_to 15054
   26.6645   14.6155   35.2369 H   0  0  0  0  0  0  0  0  0  0  0  0  # atno 15098 bound_to 15054
   31.1085   11.6528   30.5707 H   0  0  0  0  0  0  0  0  0  0  0  0  # atno 15182 bound_to 15161
   32.0087   10.4766   31.3154 H   0  0  0  0  0  0  0  0  0  0  0  0  # atno 15183 bound_to 15161
   32.6649   11.9739   31.0399 H   0  0  0  0  0  0  0  0  0  0  0  0  # atno 15184 bound_to 15161
   27.9736   10.9597   25.5495 H   0  0  0  0  0  0  0  0  0  0  0  0  # atno 15326 bound_to 15310
    8.0129  -11.9113   26.1895 H   0  0  0  0  0  0  0  0  0  0  0  0  # atno 15542 bound_to 15533
    7.6722  -14.6677   28.0904 H   0  0  0  0  0  0  0  0  0  0  0  0  # atno 15588 bound_to 15579
   10.3690  -17.5694   29.8607 H   0  0  0  0  0  0  0  0  0  0  0  0  # atno 15633 bound_to 15624
   11.0338  -15.5416   28.3577 LP  0  0  0  0  0  0  0  0  0  0  0  0  # atno 16458 bound_to 15536
   11.4722  -14.1967   27.3582 LP  0  0  0  0  0  0  0  0  0  0  0  0  # atno 16459 bound_to 15536
   16.4293  -13.5751   33.8690 LP  0  0  0  0  0  0  0  0  0  0  0  0  # atno 16460 bound_to 10947
   15.8415  -13.0297   35.2915 LP  0  0  0  0  0  0  0  0  0  0  0  0  # atno 16461 bound_to 10947
   14.8876  -11.2169   36.7517 LP  0  0  0  0  0  0  0  0  0  0  0  0  # atno 16466 bound_to 10707
   13.6805  -10.1180   36.7950 LP  0  0  0  0  0  0  0  0  0  0  0  0  # atno 16467 bound_to 10707
   22.0115  -13.4622   36.5064 LP  0  0  0  0  0  0  0  0  0  0  0  0  # atno 16468 bound_to 10881
   20.8450  -12.4840   35.6803 LP  0  0  0  0  0  0  0  0  0  0  0  0  # atno 16469 bound_to 10881
   23.7504   -8.5696   34.9496 LP  0  0  0  0  0  0  0  0  0  0  0  0  # atno 16470 bound_to 10910
   22.2031   -8.2142   34.2571 LP  0  0  0  0  0  0  0  0  0  0  0  0  # atno 16471 bound_to 10910
   20.8532   -9.9081   36.0014 LP  0  0  0  0  0  0  0  0  0  0  0  0  # atno 16472 bound_to 10936
   15.2635   -7.1936   35.6460 LP  0  0  0  0  0  0  0  0  0  0  0  0  # atno 16473 bound_to 10997
   16.6568   -6.3698   35.0296 LP  0  0  0  0  0  0  0  0  0  0  0  0  # atno 16474 bound_to 10997
   11.7638  -11.2828   38.5825 LP  0  0  0  0  0  0  0  0  0  0  0  0  # atno 16475 bound_to 11976
   12.3496  -11.7751   37.0286 LP  0  0  0  0  0  0  0  0  0  0  0  0  # atno 16476 bound_to 11976
   11.5836  -16.3959   37.7353 LP  0  0  0  0  0  0  0  0  0  0  0  0  # atno 16477 bound_to 12048
   12.9204  -16.7225   36.6835 LP  0  0  0  0  0  0  0  0  0  0  0  0  # atno 16478 bound_to 12048
   18.6267   -9.1370   37.3736 LP  0  0  0  0  0  0  0  0  0  0  0  0  # atno 16480 bound_to 10939
   18.6736   -7.7600   38.4232 LP  0  0  0  0  0  0  0  0  0  0  0  0  # atno 16481 bound_to 10939
   11.9883   -7.5208   36.6280 LP  0  0  0  0  0  0  0  0  0  0  0  0  # atno 16483 bound_to 11039
   11.4590   -6.0918   35.8047 LP  0  0  0  0  0  0  0  0  0  0  0  0  # atno 16484 bound_to 11039
   11.0932  -13.7760   37.2993 LP  0  0  0  0  0  0  0  0  0  0  0  0  # atno 16485 bound_to 12045
    8.9752  -12.0552   27.6415 LP  0  0  0  0  0  0  0  0  0  0  0  0  # atno 16490 bound_to 15533
    9.3190  -14.9266   27.5471 LP  0  0  0  0  0  0  0  0  0  0  0  0  # atno 16491 bound_to 15579
    9.1150  -18.5948   27.1606 LP  0  0  0  0  0  0  0  0  0  0  0  0  # atno 16492 bound_to 15582
    8.5874  -16.9628   26.9193 LP  0  0  0  0  0  0  0  0  0  0  0  0  # atno 16493 bound_to 15582
    8.7636  -18.1705   29.5085 LP  0  0  0  0  0  0  0  0  0  0  0  0  # atno 16494 bound_to 15624
   22.3934  -11.2620   38.5763 LP  0  0  0  0  0  0  0  0  0  0  0  0  # atno 16495 bound_to 10907
   25.5778  -10.1920   35.9185 LP  0  0  0  0  0  0  0  0  0  0  0  0  # atno 16496 bound_to 6104
   25.2491  -10.5534   37.5802 LP  0  0  0  0  0  0  0  0  0  0  0  0  # atno 16497 bound_to 6104
   27.3633  -11.6525   37.4295 LP  0  0  0  0  0  0  0  0  0  0  0  0  # atno 16498 bound_to 6129
   29.9011   -9.7363   34.0107 LP  0  0  0  0  0  0  0  0  0  0  0  0  # atno 16499 bound_to 5910
   29.1772   -8.4546   33.0980 LP  0  0  0  0  0  0  0  0  0  0  0  0  # atno 16500 bound_to 5910
   29.4953  -10.3347   35.7343 LP  0  0  0  0  0  0  0  0  0  0  0  0  # atno 16501 bound_to 6101
   28.7242   -9.5873   37.7899 LP  0  0  0  0  0  0  0  0  0  0  0  0  # atno 16502 bound_to 5850
   28.5625   -8.9745   36.1780 LP  0  0  0  0  0  0  0  0  0  0  0  0  # atno 16503 bound_to 5850
   30.0008   -7.0933   37.2268 LP  0  0  0  0  0  0  0  0  0  0  0  0  # atno 16504 bound_to 5907
   30.2146  -14.1216   36.3458 LP  0  0  0  0  0  0  0  0  0  0  0  0  # atno 16505 bound_to 6051
   28.5571  -13.6189   36.3558 LP  0  0  0  0  0  0  0  0  0  0  0  0  # atno 16506 bound_to 6051
   33.1758  -11.5604   34.1384 LP  0  0  0  0  0  0  0  0  0  0  0  0  # atno 16507 bound_to 5982
   31.4637  -11.8101   34.0580 LP  0  0  0  0  0  0  0  0  0  0  0  0  # atno 16508 bound_to 5982
   30.4000   -8.1702   35.1317 LP  0  0  0  0  0  0  0  0  0  0  0  0  # atno 16509 bound_to 5979
   32.0232  -10.4190   35.4921 LP  0  0  0  0  0  0  0  0  0  0  0  0  # atno 16510 bound_to 6048
   12.1251   -3.8544   31.0728 LP  0  0  0  0  0  0  0  0  0  0  0  0  # atno 16511 bound_to 11145
   13.1253   -4.6227   29.8857 LP  0  0  0  0  0  0  0  0  0  0  0  0  # atno 16512 bound_to 11145
   15.2407   -2.7953   29.9361 LP  0  0  0  0  0  0  0  0  0  0  0  0  # atno 16513 bound_to 11196
   15.6017    0.6539   28.6651 LP  0  0  0  0  0  0  0  0  0  0  0  0  # atno 16514 bound_to 11199
   16.2780   -0.8972   29.0352 LP  0  0  0  0  0  0  0  0  0  0  0  0  # atno 16515 bound_to 11199
   13.4119   -0.6934   26.6093 LP  0  0  0  0  0  0  0  0  0  0  0  0  # atno 16516 bound_to 11229
   13.0905   -4.4718   32.8442 LP  0  0  0  0  0  0  0  0  0  0  0  0  # atno 16525 bound_to 11142
   14.3187   -1.9972   35.6621 LP  0  0  0  0  0  0  0  0  0  0  0  0  # atno 16530 bound_to 11085
   15.0563   -1.9890   34.0950 LP  0  0  0  0  0  0  0  0  0  0  0  0  # atno 16531 bound_to 11085
   13.4565   -5.7144   36.4108 LP  0  0  0  0  0  0  0  0  0  0  0  0  # atno 16533 bound_to 11082
   16.6041    2.8480   27.0057 LP  0  0  0  0  0  0  0  0  0  0  0  0  # atno 16538 bound_to 11232
   16.4474    2.7199   25.2855 LP  0  0  0  0  0  0  0  0  0  0  0  0  # atno 16539 bound_to 11232
   13.8847    1.8097   26.0118 LP  0  0  0  0  0  0  0  0  0  0  0  0  # atno 16542 bound_to 11266
   15.8004    3.1445   37.6175 LP  0  0  0  0  0  0  0  0  0  0  0  0  # atno 16548 bound_to 9421
   11.4836    3.0180   29.2811 LP  0  0  0  0  0  0  0  0  0  0  0  0  # atno 16549 bound_to 11269
   12.8295    1.9550   29.5234 LP  0  0  0  0  0  0  0  0  0  0  0  0  # atno 16550 bound_to 11269
   11.7166    4.2614   32.9084 LP  0  0  0  0  0  0  0  0  0  0  0  0  # atno 16552 bound_to 11318
   10.3838    3.5967   32.0242 LP  0  0  0  0  0  0  0  0  0  0  0  0  # atno 16553 bound_to 11318
   10.1851    2.1090   31.1463 LP  0  0  0  0  0  0  0  0  0  0  0  0  # atno 16554 bound_to 11466
   11.2040    5.7627   29.4799 LP  0  0  0  0  0  0  0  0  0  0  0  0  # atno 16555 bound_to 11358
   13.2689    7.7371   35.3595 LP  0  0  0  0  0  0  0  0  0  0  0  0  # atno 16556 bound_to 11538
   12.3988    8.9564   34.7095 LP  0  0  0  0  0  0  0  0  0  0  0  0  # atno 16557 bound_to 11538
   17.5121    8.1241   37.8176 LP  0  0  0  0  0  0  0  0  0  0  0  0  # atno 16558 bound_to 9314
   17.2855    9.5750   38.7360 LP  0  0  0  0  0  0  0  0  0  0  0  0  # atno 16559 bound_to 9314
   17.3418    6.5106   40.3416 LP  0  0  0  0  0  0  0  0  0  0  0  0  # atno 16560 bound_to 9335
   15.8527    5.2248   39.8048 LP  0  0  0  0  0  0  0  0  0  0  0  0  # atno 16561 bound_to 9338
   16.4886    3.7280   39.2087 LP  0  0  0  0  0  0  0  0  0  0  0  0  # atno 16562 bound_to 9338
   20.7724    6.1008   39.6498 LP  0  0  0  0  0  0  0  0  0  0  0  0  # atno 16563 bound_to 9341
   20.6203    6.5112   38.0766 LP  0  0  0  0  0  0  0  0  0  0  0  0  # atno 16564 bound_to 9341
   13.1564    2.4967   37.2755 LP  0  0  0  0  0  0  0  0  0  0  0  0  # atno 16565 bound_to 9380
   13.7116    3.3936   38.6492 LP  0  0  0  0  0  0  0  0  0  0  0  0  # atno 16566 bound_to 9380
   15.8987    2.7102   39.0967 LP  0  0  0  0  0  0  0  0  0  0  0  0  # atno 16567 bound_to 9469
   29.5541   -4.7530   38.0121 LP  0  0  0  0  0  0  0  0  0  0  0  0  # atno 16570 bound_to 5709
   29.5044   -3.6089   36.7126 LP  0  0  0  0  0  0  0  0  0  0  0  0  # atno 16571 bound_to 5709
   26.3223    0.3452   40.7121 LP  0  0  0  0  0  0  0  0  0  0  0  0  # atno 16574 bound_to 7822
   29.4603    3.7194   42.7145 LP  0  0  0  0  0  0  0  0  0  0  0  0  # atno 16575 bound_to 7825
   29.0074    4.2418   41.1264 LP  0  0  0  0  0  0  0  0  0  0  0  0  # atno 16576 bound_to 7825
   29.7222   -1.5729   41.3682 LP  0  0  0  0  0  0  0  0  0  0  0  0  # atno 16579 bound_to 5706
   31.7313   -2.6608   39.3561 LP  0  0  0  0  0  0  0  0  0  0  0  0  # atno 16580 bound_to 5761
   34.4509   -1.1436   36.8969 LP  0  0  0  0  0  0  0  0  0  0  0  0  # atno 16581 bound_to 5766
   33.4948   -2.0526   35.9345 LP  0  0  0  0  0  0  0  0  0  0  0  0  # atno 16582 bound_to 5766
   28.3932   -0.6805   42.5972 LP  0  0  0  0  0  0  0  0  0  0  0  0  # atno 16583 bound_to 7781
   28.3838    1.0330   42.8496 LP  0  0  0  0  0  0  0  0  0  0  0  0  # atno 16584 bound_to 7781
   26.7421    3.4428   42.2559 LP  0  0  0  0  0  0  0  0  0  0  0  0  # atno 16585 bound_to 7866
   15.1253   -1.0999   38.7884 LP  0  0  0  0  0  0  0  0  0  0  0  0  # atno 16593 bound_to 9424
   14.1328   -0.1648   39.8564 LP  0  0  0  0  0  0  0  0  0  0  0  0  # atno 16594 bound_to 9424
   20.0249   -3.1431   41.9981 LP  0  0  0  0  0  0  0  0  0  0  0  0  # atno 16595 bound_to 9480
   21.3629   -2.2089   41.9370 LP  0  0  0  0  0  0  0  0  0  0  0  0  # atno 16596 bound_to 9480
   20.0722    3.4957   43.5289 LP  0  0  0  0  0  0  0  0  0  0  0  0  # atno 16597 bound_to 7659
   19.7632    1.7915   43.5169 LP  0  0  0  0  0  0  0  0  0  0  0  0  # atno 16598 bound_to 7659
   25.2950    0.9736   44.6019 LP  0  0  0  0  0  0  0  0  0  0  0  0  # atno 16599 bound_to 7717
   24.9752    2.3316   43.5756 LP  0  0  0  0  0  0  0  0  0  0  0  0  # atno 16600 bound_to 7717
   21.4563    2.2959   44.5974 LP  0  0  0  0  0  0  0  0  0  0  0  0  # atno 16601 bound_to 7714
   17.8867   -6.0944   42.2533 LP  0  0  0  0  0  0  0  0  0  0  0  0  # atno 16602 bound_to 10532
   18.7601   -4.7059   41.6973 LP  0  0  0  0  0  0  0  0  0  0  0  0  # atno 16603 bound_to 10532
   16.1482   10.0409   40.8967 LP  0  0  0  0  0  0  0  0  0  0  0  0  # atno 16604 bound_to 9311
   27.2458   11.1977   26.9856 LP  0  0  0  0  0  0  0  0  0  0  0  0  # atno 16607 bound_to 15310
   26.5981   11.8263   25.6247 LP  0  0  0  0  0  0  0  0  0  0  0  0  # atno 16608 bound_to 15310
   17.2446    8.6241   45.1230 LP  0  0  0  0  0  0  0  0  0  0  0  0  # atno 16611 bound_to 7554
   18.5984    7.8044   44.4191 LP  0  0  0  0  0  0  0  0  0  0  0  0  # atno 16612 bound_to 7554
   22.6451    4.4415   44.9578 LP  0  0  0  0  0  0  0  0  0  0  0  0  # atno 16613 bound_to 7623
   21.9581    5.4571   43.7345 LP  0  0  0  0  0  0  0  0  0  0  0  0  # atno 16614 bound_to 7623
   13.6796   11.3105   42.5957 LP  0  0  0  0  0  0  0  0  0  0  0  0  # atno 16615 bound_to 9280
   15.6429    9.1944   43.2390 LP  0  0  0  0  0  0  0  0  0  0  0  0  # atno 16616 bound_to 9283
   14.6735    8.8018   41.8584 LP  0  0  0  0  0  0  0  0  0  0  0  0  # atno 16617 bound_to 9283
   14.7848   14.3242   41.1914 LP  0  0  0  0  0  0  0  0  0  0  0  0  # atno 16618 bound_to 9228
   13.8699   14.0194   39.7526 LP  0  0  0  0  0  0  0  0  0  0  0  0  # atno 16619 bound_to 9228
   19.7632    7.3469   47.2880 LP  0  0  0  0  0  0  0  0  0  0  0  0  # atno 16620 bound_to 7620
   11.8530   14.1034   43.2298 LP  0  0  0  0  0  0  0  0  0  0  0  0  # atno 16628 bound_to 9225
   13.8292    3.0398   39.9726 LP  0  0  0  0  0  0  0  0  0  0  0  0  # atno 16635 bound_to 9528
   23.7188   20.3130   38.0209 LP  0  0  0  0  0  0  0  0  0  0  0  0  # atno 16636 bound_to 3357
   23.5769   20.0112   36.3212 LP  0  0  0  0  0  0  0  0  0  0  0  0  # atno 16637 bound_to 3357
   21.4115   21.5851   39.8794 LP  0  0  0  0  0  0  0  0  0  0  0  0  # atno 16638 bound_to 3415
   22.4590   20.4350   40.6410 LP  0  0  0  0  0  0  0  0  0  0  0  0  # atno 16639 bound_to 3415
   24.0820   22.4729   36.5829 LP  0  0  0  0  0  0  0  0  0  0  0  0  # atno 16640 bound_to 3412
   24.1525   22.5392   40.2591 LP  0  0  0  0  0  0  0  0  0  0  0  0  # atno 16641 bound_to 3478
    8.0576   14.0841   43.9969 LP  0  0  0  0  0  0  0  0  0  0  0  0  # atno 16646 bound_to 9102
    9.4182   14.8858   43.2856 LP  0  0  0  0  0  0  0  0  0  0  0  0  # atno 16647 bound_to 9102
    9.8902   14.5017   45.4208 LP  0  0  0  0  0  0  0  0  0  0  0  0  # atno 16648 bound_to 9168
   14.8430   16.5871   48.0976 LP  0  0  0  0  0  0  0  0  0  0  0  0  # atno 16649 bound_to 9178
   14.9808   17.7772   46.9880 LP  0  0  0  0  0  0  0  0  0  0  0  0  # atno 16650 bound_to 9178
    9.9586   25.0915   36.7116 LP  0  0  0  0  0  0  0  0  0  0  0  0  # atno 16654 bound_to 6255
    9.7900   24.2170   35.3428 LP  0  0  0  0  0  0  0  0  0  0  0  0  # atno 16655 bound_to 6255
   13.3653   18.6938   48.2755 LP  0  0  0  0  0  0  0  0  0  0  0  0  # atno 16656 bound_to 9176
   11.7903   18.2733   48.1800 LP  0  0  0  0  0  0  0  0  0  0  0  0  # atno 16657 bound_to 9176

> <Gold.Score>
     Fitness  S(hb_ext) S(vdw_ext)  S(hb_int)    S(int)      intcor
     29.09       6.99      16.74       0.00      -0.92      -0.76

> <Gold.Goldscore.Fitness>
29.0872

> <Gold.Goldscore.Internal.Vdw>
-1.1482

> <Gold.Goldscore.Internal.Torsion>
-0.5296

> <Gold.Goldscore.External.Vdw>
16.7401

> <Gold.Goldscore.Internal.HBond>
0.0000

> <Gold.Goldscore.External.HBond>
6.9888

> <Gold.Goldscore.Internal.Correction>
-0.7585

> <Gold.Goldscore.Hbonds>
donor molecule, donor type, donor heavy atom, donor atom, acceptor molecule, acceptor atom, score
      P1  H  7722  7742       L1    17  0.89
      L1  H    10    23       P1  9341  0.82

> <Gold.Goldscore.Internal.Vdw.Weighted>
-1.1482

> <Gold.Goldscore.Internal.Torsion.Weighted>
-0.5296

> <Gold.Goldscore.External.Vdw.Weighted>
23.0177

> <Gold.Goldscore.Internal.HBond.Weighted>
0.0000

> <Gold.Goldscore.External.HBond.Weighted>
6.9888

> <Gold.Goldscore.Internal.Correction.Weighted>
-0.7585

> <Gold.Rescore>
     Score     S(PLP)   S(hbond)     S(cho)   S(metal)  DE(clash)   DE(tors)     intcor
     23.25     -20.43       1.66       0.00       0.00       0.00       1.08       ----

> <Gold.PLP.Fitness>
23.2476

> <Gold.PLP.PLP>
-20.4254

> <Gold.PLP.part.hbond>
-3.0266

> <Gold.PLP.part.metal>
0.0000

> <Gold.PLP.part.buried>
3.8442

> <Gold.PLP.part.nonpolar>
-21.3815

> <Gold.PLP.part.repulsive>
0.2642

> <Gold.PLP.ligand.clash>
0.0000

> <Gold.PLP.ligand.torsion>
1.0778

> <Gold.PLP.Chemscore.Hbond>
1.6593

> <Gold.PLP.Chemscore.CHOScore>
0.0000

> <Gold.PLP.Chemscore.Metal>
0.0000

> <Gold.Chemscore.Hbonds>
donor molecule, donor type, donor heavy atom, donor atom, acceptor molecule, acceptor atom, score
      L1  H    10    23       P1  9341  1.00
      P1  H  7722  7742       L1    17  0.24

> <Gold.PLP.Chemscore.Internal.Correction>
   9.000000E+99

