#       Name:                CT1002167954
#       Creating user name   hitesit
#       Creation time:       Sun Apr 16 20:20:10 2023


#       File generated by GOLD software.
#

@<TRIPOS>MOLECULE
CT1002167954|ligand_prepared|mol2|1|dock8
    29    30     1
SMALL
NO_CHARGES


@<TRIPOS>ATOM
      1 C1          11.5661 -11.3288  31.1230 C.3            1 RES1               0.0000
      2 C2          11.1314  -9.9682  31.7049 C.ar           1 RES1               0.0000
      3 C3          11.0178 -11.3811  29.7000 C.2            1 RES1               0.0000
      4 C4          13.0882 -11.3611  31.2049 C.2            1 RES1               0.0000
      5 C5          11.0197 -12.5460  31.9049 C.3            1 RES1               0.0000
      6 C6          11.6815  -8.7837  31.2243 C.ar           1 RES1               0.0000
      7 C7          10.1811  -9.8815  32.7188 C.ar           1 RES1               0.0000
      8 N8          11.9046 -11.2282  28.6752 N.am           1 RES1               0.0000
      9 O9           9.8201 -11.5148  29.4812 O.2            1 RES1               0.0000
     10 N10         13.7941 -11.3792  30.0305 N.am           1 RES1               0.0000
     11 O11         13.6830 -11.3542  32.2756 O.2            1 RES1               0.0000
     12 C12         11.6303 -13.8721  31.4800 C.3            1 RES1               0.0000
     13 C13         11.2936  -7.5567  31.7366 C.ar           1 RES1               0.0000
     14 C14          9.7948  -8.6535  33.2299 C.ar           1 RES1               0.0000
     15 C15         13.2720 -11.2832  28.7694 C.2            1 RES1               0.0000
     16 C16         10.3498  -7.4908  32.7393 C.ar           1 RES1               0.0000
     17 O17         13.9752 -11.2511  27.7636 O.2            1 RES1               0.0000
     18 H18         11.2131 -12.3947  32.9741 H              1 RES1               0.0000
     19 H19          9.9328 -12.5968  31.7648 H              1 RES1               0.0000
     20 H20         12.4274  -8.8159  30.4371 H              1 RES1               0.0000
     21 H21          9.7319 -10.7833  33.1209 H              1 RES1               0.0000
     22 H22         11.5150 -11.0571  27.7537 H              1 RES1               0.0000
     23 H23         14.8022 -11.4731  30.1032 H              1 RES1               0.0000
     24 H24         11.2124 -14.6926  32.0595 H              1 RES1               0.0000
     25 H25         11.4353 -14.0669  30.4274 H              1 RES1               0.0000
     26 H26         12.7080 -13.8660  31.6295 H              1 RES1               0.0000
     27 H27         11.7344  -6.6446  31.3480 H              1 RES1               0.0000
     28 H28          9.0521  -8.6064  34.0195 H              1 RES1               0.0000
     29 H29         10.0458  -6.5295  33.1402 H              1 RES1               0.0000
@<TRIPOS>BOND
    1    1    2 1     
    2    1    3 1     
    3    1    4 1     
    4    1    5 1     
    5    2    6 ar    
    6    2    7 ar    
    7    3    8 1     
    8    3    9 2     
    9    4   10 1     
   10    4   11 2     
   11    5   12 1     
   12    5   18 1     
   13    5   19 1     
   14    6   13 ar    
   15    6   20 1     
   16    7   14 ar    
   17    7   21 1     
   18    8   15 1     
   19    8   22 1     
   20   10   15 1     
   21   10   23 1     
   22   12   24 1     
   23   12   25 1     
   24   12   26 1     
   25   13   16 ar    
   26   13   27 1     
   27   14   16 ar    
   28   14   28 1     
   29   15   17 2     
   30   16   29 1     
@<TRIPOS>SUBSTRUCTURE
      1 RES1           1
@<TRIPOS>SET
DONOR_HYDROGENS      STATIC     ATOMS    <user>   **** ""
2 22 23
ATOM$RED        STATIC     ATOMS    COLORGROUP SYSTEM
2 22 23
@<TRIPOS>COMMENT
> <Gold.Version>
2022.3.0

> <Gold.Id.Protein>
unknown|3mvj_clean|pdb

> <Gold.Protein.RotatedTorsions>
[ 10968 10947 10946 10944 ] final  173.60 input   60.01 | X-H torsion
[ 10728 10707 10706 10704 ] final  -80.38 input   59.96 | X-H torsion
[ 10960 10936 10937 10938 ] final -133.22 input   23.31 | X-H torsion
[ 12092 12045 12046 12047 ] final  -23.80 input   63.71 | X-H torsion
[ 15542 15533 15534 15535 ] final  -51.40 input   83.29 | X-H torsion
[ 15588 15579 15580 15581 ] final   29.19 input  107.67 | X-H torsion
[ 15633 15624 15625 15626 ] final  127.14 input   84.82 | X-H torsion
[ 10915 10907 10908 10909 ] final  145.35 input  -87.38 | X-H torsion
[ 6151 6129 6130 6131 ] final   33.04 input   27.76 | X-H torsion
[ 6109 6101 6102 6103 ] final   85.27 input  -93.79 | X-H torsion
[ 5929 5907 5908 5909 ] final  106.45 input  119.25 | X-H torsion
[ 6001 5979 5980 5981 ] final -102.95 input  112.51 | X-H torsion
[ 6064 6048 6049 6050 ] final -109.66 input  108.26 | X-H torsion
[ 11206 11196 11197 11198 ] final -165.08 input   -0.63 | X-H torsion
[ 11253 11229 11230 11231 ] final -169.03 input  120.69 | X-H torsion
[ 11164 11142 11143 11144 ] final   -3.42 input   33.88 | X-H torsion
[ 11104 11082 11083 11084 ] final -130.60 input   45.00 | X-H torsion
[ 11300 11266 11267 11268 ] final -141.44 input   49.58 | X-H torsion
[ 9451 9421 9422 9423 ] final  -63.35 input  116.39 | X-H torsion
[ 11504 11466 11467 11468 ] final   20.38 input  126.08 | X-H torsion
[ 11396 11358 11359 11360 ] final -179.28 input   98.08 | X-H torsion
[ 11577 11538 11537 11535 ] final   82.29 input   60.01 | X-H torsion
[ 9363 9335 9336 9337 ] final   54.27 input   84.14 | X-H torsion
[ 9369 9341 9339 9336 ] final -170.93 input   60.02 | X-H torsion
[ 9511 9469 9470 9471 ] final   76.63 input   75.21 | X-H torsion
[ 7840 7822 7823 7824 ] final   63.60 input  121.36 | X-H torsion
[ 7742 7722 7721 7720 ] final   30.46 input   60.01 | X-H torsion
[ 5728 5706 5707 5708 ] final    6.90 input  119.20 | X-H torsion
[ 5773 5761 5762 5763 ] final -157.94 input  120.20 | X-H torsion
[ 5777 5766 5765 5762 ] final  175.30 input   59.99 | X-H torsion
[ 7882 7866 7867 7868 ] final  157.10 input   81.17 | X-H torsion
[ 9519 9480 9479 9477 ] final  158.35 input   60.03 | X-H torsion
[ 7732 7714 7715 7716 ] final   27.81 input  -10.67 | X-H torsion
[ 15096 15054 15053 15052 ] final  -11.59 input   60.01 | X-H torsion
[ 9325 9311 9312 9313 ] final -150.28 input  -66.31 | X-H torsion
[ 15182 15161 15160 15159 ] final -156.49 input   59.99 | X-H torsion
[ 15326 15310 15309 15306 ] final   25.02 input   59.99 | X-H torsion
[ 9302 9280 9281 9282 ] final  -56.07 input   22.77 | X-H torsion
[ 7636 7620 7621 7622 ] final  161.17 input   34.37 | X-H torsion
[ 9263 9225 9226 9227 ] final   87.60 input   96.07 | X-H torsion
[ 9566 9528 9529 9530 ] final  103.66 input   99.68 | X-H torsion
[ 3444 3412 3413 3414 ] final  -33.08 input -120.58 | X-H torsion
[ 3506 3478 3479 3480 ] final  103.04 input   70.69 | X-H torsion
[ 9208 9168 9169 9170 ] final  168.20 input  115.65 | X-H torsion
[ 9216 9178 9175 9174 ] final   60.18 input   59.98 | X-H torsion
[ 6271 6255 6254 6251 ] final  -77.09 input   60.00 | X-H torsion
[ 9214 9176 9175 9174 ] final  156.03 input   60.01 | X-H torsion
[ 12154 12142 12143 12144 ] final  -88.23 input  108.55 | X-H torsion
[ 12021 11973 11974 11975 ] final   36.31 input   68.31 | X-H torsion
[ 11450 11416 11417 11418 ] final    7.15 input  102.35 | X-H torsion
[ 5632 5608 5609 5610 ] final  148.11 input  119.09 | X-H torsion
[ 10774 10756 10757 10758 ] final  159.38 input  129.22 | X-H torsion
[ 10816 10800 10801 10802 ] final  103.96 input  128.85 | X-H torsion
[ 8641 8619 8620 8621 ] final   54.41 input   87.35 | X-H torsion
[ 3661 3632 3633 3634 ] final -135.77 input  116.97 | X-H torsion
[ 10029 10008 10007 10005 ] final  150.16 input   60.01 | X-H torsion
[ 16458 15536 15535 15534 ] final  151.72 input    0.00 | X-H torsion
[ 16468 10881 10880 10879 ] final   12.47 input    0.00 | X-H torsion
[ 16470 10910 10909 10908 ] final  -15.51 input    0.00 | X-H torsion
[ 16473 10997 10996 10995 ] final -109.86 input    0.00 | X-H torsion
[ 16475 11976 11975 11974 ] final   53.12 input    0.00 | X-H torsion
[ 16477 12048 12047 12046 ] final  -77.65 input    0.00 | X-H torsion
[ 16480 10939 10938 10937 ] final -149.48 input   -0.00 | X-H torsion
[ 16483 11039 11038 11037 ] final  130.16 input    0.00 | X-H torsion
[ 16492 15582 15581 15580 ] final  -22.44 input    0.00 | X-H torsion
[ 16496 6104 6103 6102 ] final   63.62 input    0.00 | X-H torsion
[ 16499 5910 5909 5908 ] final   40.86 input   -0.00 | X-H torsion
[ 16502 5850 5849 5848 ] final  -54.40 input    0.00 | X-H torsion
[ 16505 6051 6050 6049 ] final   -0.11 input    0.00 | X-H torsion
[ 16507 5982 5981 5980 ] final  155.99 input    0.00 | X-H torsion
[ 16511 11145 11144 11143 ] final   -9.56 input    0.00 | X-H torsion
[ 16514 11199 11198 11197 ] final   63.18 input    0.00 | X-H torsion
[ 16530 11085 11084 11083 ] final   76.98 input   -0.00 | X-H torsion
[ 16538 11232 11231 11230 ] final   75.49 input    0.00 | X-H torsion
[ 16549 11269 11268 11267 ] final -164.77 input   -0.00 | X-H torsion
[ 16552 11318 11317 11316 ] final   28.02 input    0.00 | X-H torsion
[ 16558 9314 9313 9312 ] final   37.86 input    0.00 | X-H torsion
[ 16561 9338 9337 9336 ] final  -32.47 input    0.00 | X-H torsion
[ 16565 9380 9379 9378 ] final -125.61 input    0.00 | X-H torsion
[ 16570 5709 5708 5707 ] final  174.26 input    0.00 | X-H torsion
[ 16575 7825 7824 7823 ] final -167.90 input    0.00 | X-H torsion
[ 16583 7781 7780 7779 ] final -155.03 input   -0.00 | X-H torsion
[ 16593 9424 9423 9422 ] final -169.11 input   -0.00 | X-H torsion
[ 16597 7659 7658 7657 ] final   14.59 input   -0.00 | X-H torsion
[ 16599 7717 7716 7715 ] final  -29.44 input    0.00 | X-H torsion
[ 16602 10532 10531 10530 ] final   33.51 input    0.00 | X-H torsion
[ 16611 7554 7553 7552 ] final -174.81 input    0.00 | X-H torsion
[ 16613 7623 7622 7621 ] final  113.38 input   -0.00 | X-H torsion
[ 16616 9283 9282 9281 ] final -171.82 input    0.00 | X-H torsion
[ 16618 9228 9227 9226 ] final  151.17 input   -0.00 | X-H torsion
[ 16636 3357 3356 3355 ] final -165.23 input   -0.00 | X-H torsion
[ 16638 3415 3414 3413 ] final -112.72 input   -0.00 | X-H torsion
[ 16646 9102 9101 9100 ] final -157.93 input    0.00 | X-H torsion

> <Gold.Protein.ActiveResidues>
 ARG45   SER53   PHE54   LEU82   LYS83   GLN84   GLU86   HIS87   GLU127  PHE129 
 SER130  HIS131  LEU132  ARG133  ARG134  ILE135  GLY136  ARG137  PHE138  SER139 
 HIS142  ARG165  ASP166  LEU167  LYS168  PRO169  GLU170  ASN171  ASP184  GLY186 
 PHE187  TRP196  TPO197  LEU198  CYS199  GLY200  THR201  PRO202  GLU203  TYR204 
 LEU205  ILE209  ILE210  TYR215  VAL226  LEU227  TYR229  GLU230  MET231  ALA233 
 GLY234  TYR235  PRO236  PRO237  PHE238  PHE239  ALA240  ASP241  GLN242  PRO243 
 ILE244  GLN245  ILE246  TYR247  LYS249  ARG256  PHE257  PRO258  SER259  HIS260 
 PRO313  PHE314  ILE315  LYS317  LYS319  SER325  ASN326  ASP328  ASP329  GLU331 
 GLU332  GLU333  GLU334 

> <Gold.Protein.RotatedAtoms>
   25.1815   22.5122   37.8379 H   0  0  0  0  0  0  0  0  0  0  0  0  # atno 3444 bound_to 3412
   25.2468   21.7894   39.3258 H   0  0  0  0  0  0  0  0  0  0  0  0  # atno 3506 bound_to 3478
   22.3316   19.8484   45.7742 H   0  0  0  0  0  0  0  0  0  0  0  0  # atno 3661 bound_to 3632
   35.9481   -0.3851   41.8873 H   0  0  0  0  0  0  0  0  0  0  0  0  # atno 5632 bound_to 5608
   31.0108   -2.5447   40.7612 H   0  0  0  0  0  0  0  0  0  0  0  0  # atno 5728 bound_to 5706
   31.1861   -1.7969   38.1184 H   0  0  0  0  0  0  0  0  0  0  0  0  # atno 5773 bound_to 5761
   35.1601   -1.6776   36.7179 H   0  0  0  0  0  0  0  0  0  0  0  0  # atno 5777 bound_to 5766
   29.6800   -5.8560   37.0845 H   0  0  0  0  0  0  0  0  0  0  0  0  # atno 5929 bound_to 5907
   30.6947   -7.6174   34.4979 H   0  0  0  0  0  0  0  0  0  0  0  0  # atno 6001 bound_to 5979
   32.4690  -10.4642   35.7678 H   0  0  0  0  0  0  0  0  0  0  0  0  # atno 6064 bound_to 6048
   29.7109  -11.9502   36.3204 H   0  0  0  0  0  0  0  0  0  0  0  0  # atno 6109 bound_to 6101
   27.4810  -13.2436   37.5278 H   0  0  0  0  0  0  0  0  0  0  0  0  # atno 6151 bound_to 6129
   10.7498   23.6745   35.8199 H   0  0  0  0  0  0  0  0  0  0  0  0  # atno 6271 bound_to 6255
   19.1588    7.7576   46.7871 H   0  0  0  0  0  0  0  0  0  0  0  0  # atno 7636 bound_to 7620
   23.0631    2.2806   44.8762 H   0  0  0  0  0  0  0  0  0  0  0  0  # atno 7732 bound_to 7714
   22.3432    5.7282   41.8480 H   0  0  0  0  0  0  0  0  0  0  0  0  # atno 7742 bound_to 7722
   23.4339    6.8146   41.2347 H   0  0  0  0  0  0  0  0  0  0  0  0  # atno 7743 bound_to 7722
   21.9821    6.5770   40.4707 H   0  0  0  0  0  0  0  0  0  0  0  0  # atno 7744 bound_to 7722
   25.5111    1.4486   41.6685 H   0  0  0  0  0  0  0  0  0  0  0  0  # atno 7840 bound_to 7822
   26.2782    3.3015   42.4842 H   0  0  0  0  0  0  0  0  0  0  0  0  # atno 7882 bound_to 7866
   22.6089   12.4110   47.2229 H   0  0  0  0  0  0  0  0  0  0  0  0  # atno 8641 bound_to 8619
   10.5271   15.9326   46.1472 H   0  0  0  0  0  0  0  0  0  0  0  0  # atno 9208 bound_to 9168
   12.4653   18.2786   48.6418 H   0  0  0  0  0  0  0  0  0  0  0  0  # atno 9214 bound_to 9176
   14.9830   17.6617   46.7188 H   0  0  0  0  0  0  0  0  0  0  0  0  # atno 9216 bound_to 9178
   11.5815   15.0333   41.8012 H   0  0  0  0  0  0  0  0  0  0  0  0  # atno 9263 bound_to 9225
   13.3092   11.3046   41.4234 H   0  0  0  0  0  0  0  0  0  0  0  0  # atno 9302 bound_to 9280
   17.4344   10.7117   41.6181 H   0  0  0  0  0  0  0  0  0  0  0  0  # atno 9325 bound_to 9311
   17.7821    6.2313   40.5587 H   0  0  0  0  0  0  0  0  0  0  0  0  # atno 9363 bound_to 9335
   21.4190    5.1202   38.6681 H   0  0  0  0  0  0  0  0  0  0  0  0  # atno 9369 bound_to 9341
   15.1323    3.1365   37.0611 H   0  0  0  0  0  0  0  0  0  0  0  0  # atno 9451 bound_to 9421
   16.1234    2.6768   39.1155 H   0  0  0  0  0  0  0  0  0  0  0  0  # atno 9511 bound_to 9469
   20.7531   -2.5994   42.4253 H   0  0  0  0  0  0  0  0  0  0  0  0  # atno 9519 bound_to 9480
   13.9052    3.1544   39.9546 H   0  0  0  0  0  0  0  0  0  0  0  0  # atno 9566 bound_to 9528
   13.1628   11.8761   47.0757 H   0  0  0  0  0  0  0  0  0  0  0  0  # atno 10029 bound_to 10008
   13.7844  -10.1084   36.7354 H   0  0  0  0  0  0  0  0  0  0  0  0  # atno 10728 bound_to 10707
   18.3960   -6.9248   41.0520 H   0  0  0  0  0  0  0  0  0  0  0  0  # atno 10774 bound_to 10756
   21.2995   -7.6077   42.5028 H   0  0  0  0  0  0  0  0  0  0  0  0  # atno 10816 bound_to 10800
   22.0977  -11.9112   37.9226 H   0  0  0  0  0  0  0  0  0  0  0  0  # atno 10915 bound_to 10907
   21.9912   -8.9378   36.2440 H   0  0  0  0  0  0  0  0  0  0  0  0  # atno 10960 bound_to 10936
   17.2169  -14.0210   34.5071 H   0  0  0  0  0  0  0  0  0  0  0  0  # atno 10968 bound_to 10947
   13.2305   -5.6793   36.5812 H   0  0  0  0  0  0  0  0  0  0  0  0  # atno 11104 bound_to 11082
   12.7856   -4.0904   32.8689 H   0  0  0  0  0  0  0  0  0  0  0  0  # atno 11164 bound_to 11142
   14.0517   -3.0695   30.3949 H   0  0  0  0  0  0  0  0  0  0  0  0  # atno 11206 bound_to 11196
   14.5279   -1.6439   26.4639 H   0  0  0  0  0  0  0  0  0  0  0  0  # atno 11253 bound_to 11229
   14.8234    2.0048   26.3464 H   0  0  0  0  0  0  0  0  0  0  0  0  # atno 11300 bound_to 11266
   11.3889    5.8828   30.0403 H   0  0  0  0  0  0  0  0  0  0  0  0  # atno 11396 bound_to 11358
   10.0250    3.1397   30.4142 H   0  0  0  0  0  0  0  0  0  0  0  0  # atno 11450 bound_to 11416
    9.8222    1.9141   31.2394 H   0  0  0  0  0  0  0  0  0  0  0  0  # atno 11504 bound_to 11466
   13.3573    7.7118   33.9144 H   0  0  0  0  0  0  0  0  0  0  0  0  # atno 11577 bound_to 11538
    9.9381  -10.5090   37.5623 H   0  0  0  0  0  0  0  0  0  0  0  0  # atno 12021 bound_to 11973
   11.0007  -14.2040   37.2861 H   0  0  0  0  0  0  0  0  0  0  0  0  # atno 12092 bound_to 12045
   14.7138  -18.0345   37.7451 H   0  0  0  0  0  0  0  0  0  0  0  0  # atno 12154 bound_to 12142
   27.2306   15.1873   33.8201 H   0  0  0  0  0  0  0  0  0  0  0  0  # atno 15096 bound_to 15054
   26.1842   16.1337   34.6901 H   0  0  0  0  0  0  0  0  0  0  0  0  # atno 15097 bound_to 15054
   26.6305   14.6451   35.2662 H   0  0  0  0  0  0  0  0  0  0  0  0  # atno 15098 bound_to 15054
   32.7729   11.1493   31.3669 H   0  0  0  0  0  0  0  0  0  0  0  0  # atno 15182 bound_to 15161
   31.7778   12.2421   30.6161 H   0  0  0  0  0  0  0  0  0  0  0  0  # atno 15183 bound_to 15161
   31.2320   10.7113   30.9434 H   0  0  0  0  0  0  0  0  0  0  0  0  # atno 15184 bound_to 15161
   26.6192   11.8155   25.5946 H   0  0  0  0  0  0  0  0  0  0  0  0  # atno 15326 bound_to 15310
    7.9505  -12.3949   27.4825 H   0  0  0  0  0  0  0  0  0  0  0  0  # atno 15542 bound_to 15533
    8.2828  -15.4847   27.2840 H   0  0  0  0  0  0  0  0  0  0  0  0  # atno 15588 bound_to 15579
   10.2562  -17.7584   30.2137 H   0  0  0  0  0  0  0  0  0  0  0  0  # atno 15633 bound_to 15624
   11.0466  -14.9835   28.6912 LP  0  0  0  0  0  0  0  0  0  0  0  0  # atno 16458 bound_to 15536
   11.4594  -14.7548   27.0247 LP  0  0  0  0  0  0  0  0  0  0  0  0  # atno 16459 bound_to 15536
   15.8677  -13.1689   34.1892 LP  0  0  0  0  0  0  0  0  0  0  0  0  # atno 16460 bound_to 10947
   16.3851  -13.3402   35.7286 LP  0  0  0  0  0  0  0  0  0  0  0  0  # atno 16461 bound_to 10947
   13.4693  -11.4182   37.6482 LP  0  0  0  0  0  0  0  0  0  0  0  0  # atno 16466 bound_to 10707
   14.8714  -11.3167   36.8172 LP  0  0  0  0  0  0  0  0  0  0  0  0  # atno 16467 bound_to 10707
   20.6857  -13.3732   36.2896 LP  0  0  0  0  0  0  0  0  0  0  0  0  # atno 16468 bound_to 10881
   22.1708  -12.5730   35.8972 LP  0  0  0  0  0  0  0  0  0  0  0  0  # atno 16469 bound_to 10881
   23.7452   -8.6918   34.8669 LP  0  0  0  0  0  0  0  0  0  0  0  0  # atno 16470 bound_to 10910
   22.2082   -8.0921   34.3397 LP  0  0  0  0  0  0  0  0  0  0  0  0  # atno 16471 bound_to 10910
   20.4957   -9.6834   36.7502 LP  0  0  0  0  0  0  0  0  0  0  0  0  # atno 16472 bound_to 10936
   15.4661   -6.0831   35.2040 LP  0  0  0  0  0  0  0  0  0  0  0  0  # atno 16473 bound_to 10997
   16.4543   -7.4802   35.4716 LP  0  0  0  0  0  0  0  0  0  0  0  0  # atno 16474 bound_to 10997
   11.4759  -11.0207   38.1984 LP  0  0  0  0  0  0  0  0  0  0  0  0  # atno 16475 bound_to 11976
   12.6376  -12.0372   37.4127 LP  0  0  0  0  0  0  0  0  0  0  0  0  # atno 16476 bound_to 11976
   12.1356  -16.9786   37.9581 LP  0  0  0  0  0  0  0  0  0  0  0  0  # atno 16477 bound_to 12048
   12.3684  -16.1399   36.4607 LP  0  0  0  0  0  0  0  0  0  0  0  0  # atno 16478 bound_to 12048
   17.8622   -8.0923   37.8513 LP  0  0  0  0  0  0  0  0  0  0  0  0  # atno 16480 bound_to 10939
   19.4382   -8.8047   37.9454 LP  0  0  0  0  0  0  0  0  0  0  0  0  # atno 16481 bound_to 10939
   11.2469   -6.1016   36.3779 LP  0  0  0  0  0  0  0  0  0  0  0  0  # atno 16483 bound_to 11039
   12.2005   -7.5110   36.0548 LP  0  0  0  0  0  0  0  0  0  0  0  0  # atno 16484 bound_to 11039
   10.4710  -13.6216   38.8452 LP  0  0  0  0  0  0  0  0  0  0  0  0  # atno 16485 bound_to 12045
    9.0362  -11.5831   26.3792 LP  0  0  0  0  0  0  0  0  0  0  0  0  # atno 16490 bound_to 15533
    8.7339  -14.1438   28.3197 LP  0  0  0  0  0  0  0  0  0  0  0  0  # atno 16491 bound_to 15579
    8.2248  -17.1808   27.0342 LP  0  0  0  0  0  0  0  0  0  0  0  0  # atno 16492 bound_to 15582
    9.4776  -18.3768   27.0457 LP  0  0  0  0  0  0  0  0  0  0  0  0  # atno 16493 bound_to 15582
    8.8727  -17.9876   29.1668 LP  0  0  0  0  0  0  0  0  0  0  0  0  # atno 16494 bound_to 15624
   21.3546  -10.3496   38.1956 LP  0  0  0  0  0  0  0  0  0  0  0  0  # atno 16495 bound_to 10907
   25.1013  -10.7271   36.0235 LP  0  0  0  0  0  0  0  0  0  0  0  0  # atno 16496 bound_to 6104
   25.7256  -10.0182   37.4753 LP  0  0  0  0  0  0  0  0  0  0  0  0  # atno 16497 bound_to 6104
   26.7923  -11.7158   37.0344 LP  0  0  0  0  0  0  0  0  0  0  0  0  # atno 16498 bound_to 6129
   29.0900   -8.4703   33.1575 LP  0  0  0  0  0  0  0  0  0  0  0  0  # atno 16499 bound_to 5910
   29.9883   -9.7205   33.9512 LP  0  0  0  0  0  0  0  0  0  0  0  0  # atno 16500 bound_to 5910
   29.4322  -10.2756   35.9201 LP  0  0  0  0  0  0  0  0  0  0  0  0  # atno 16501 bound_to 6101
   29.3073   -9.5923   37.4447 LP  0  0  0  0  0  0  0  0  0  0  0  0  # atno 16502 bound_to 5850
   27.9794   -8.9695   36.5233 LP  0  0  0  0  0  0  0  0  0  0  0  0  # atno 16503 bound_to 5850
   28.8732   -7.3838   37.3391 LP  0  0  0  0  0  0  0  0  0  0  0  0  # atno 16504 bound_to 5907
   30.1434  -14.1111   36.6944 LP  0  0  0  0  0  0  0  0  0  0  0  0  # atno 16505 bound_to 6051
   28.6283  -13.6294   36.0072 LP  0  0  0  0  0  0  0  0  0  0  0  0  # atno 16506 bound_to 6051
   32.4008  -12.2176   34.7765 LP  0  0  0  0  0  0  0  0  0  0  0  0  # atno 16507 bound_to 5982
   32.2388  -11.1529   33.4199 LP  0  0  0  0  0  0  0  0  0  0  0  0  # atno 16508 bound_to 5982
   31.3668   -7.6276   36.1145 LP  0  0  0  0  0  0  0  0  0  0  0  0  # atno 16509 bound_to 5979
   31.2479   -9.6661   36.7321 LP  0  0  0  0  0  0  0  0  0  0  0  0  # atno 16510 bound_to 6048
   12.7908   -4.6387   31.2292 LP  0  0  0  0  0  0  0  0  0  0  0  0  # atno 16511 bound_to 11145
   12.4595   -3.8384   29.7293 LP  0  0  0  0  0  0  0  0  0  0  0  0  # atno 16512 bound_to 11145
   15.1566   -1.7086   30.2917 LP  0  0  0  0  0  0  0  0  0  0  0  0  # atno 16513 bound_to 11196
   16.3149   -0.8916   28.9784 LP  0  0  0  0  0  0  0  0  0  0  0  0  # atno 16514 bound_to 11199
   15.5648    0.6483   28.7220 LP  0  0  0  0  0  0  0  0  0  0  0  0  # atno 16515 bound_to 11199
   13.7958   -0.3408   27.3803 LP  0  0  0  0  0  0  0  0  0  0  0  0  # atno 16516 bound_to 11229
   14.0040   -3.8479   34.0913 LP  0  0  0  0  0  0  0  0  0  0  0  0  # atno 16525 bound_to 11142
   15.2262   -2.5579   35.2539 LP  0  0  0  0  0  0  0  0  0  0  0  0  # atno 16530 bound_to 11085
   14.1489   -1.4284   34.5032 LP  0  0  0  0  0  0  0  0  0  0  0  0  # atno 16531 bound_to 11085
   14.2366   -4.2767   36.8718 LP  0  0  0  0  0  0  0  0  0  0  0  0  # atno 16533 bound_to 11082
   16.3292    2.8836   25.3081 LP  0  0  0  0  0  0  0  0  0  0  0  0  # atno 16538 bound_to 11232
   16.7223    2.6843   26.9832 LP  0  0  0  0  0  0  0  0  0  0  0  0  # atno 16539 bound_to 11232
   13.4703    1.3757   27.2716 LP  0  0  0  0  0  0  0  0  0  0  0  0  # atno 16542 bound_to 11266
   16.7377    2.7163   36.5241 LP  0  0  0  0  0  0  0  0  0  0  0  0  # atno 16548 bound_to 9421
   11.9729    3.0226   30.0571 LP  0  0  0  0  0  0  0  0  0  0  0  0  # atno 16549 bound_to 11269
   12.3402    1.9505   28.7473 LP  0  0  0  0  0  0  0  0  0  0  0  0  # atno 16550 bound_to 11269
   11.7273    4.2453   32.9038 LP  0  0  0  0  0  0  0  0  0  0  0  0  # atno 16552 bound_to 11318
   10.3730    3.6128   32.0287 LP  0  0  0  0  0  0  0  0  0  0  0  0  # atno 16553 bound_to 11318
   10.9192    0.7261   30.5665 LP  0  0  0  0  0  0  0  0  0  0  0  0  # atno 16554 bound_to 11466
   11.1835    4.1675   29.8452 LP  0  0  0  0  0  0  0  0  0  0  0  0  # atno 16555 bound_to 11358
   13.0979    7.9584   35.5016 LP  0  0  0  0  0  0  0  0  0  0  0  0  # atno 16556 bound_to 11538
   12.4189    8.9505   34.3964 LP  0  0  0  0  0  0  0  0  0  0  0  0  # atno 16557 bound_to 11538
   17.8094    9.5498   38.5785 LP  0  0  0  0  0  0  0  0  0  0  0  0  # atno 16558 bound_to 9314
   16.9883    8.1492   37.9752 LP  0  0  0  0  0  0  0  0  0  0  0  0  # atno 16559 bound_to 9314
   18.3093    7.6950   39.7639 LP  0  0  0  0  0  0  0  0  0  0  0  0  # atno 16560 bound_to 9335
   16.9428    4.2661   39.8377 LP  0  0  0  0  0  0  0  0  0  0  0  0  # atno 16561 bound_to 9338
   15.3985    4.6867   39.1758 LP  0  0  0  0  0  0  0  0  0  0  0  0  # atno 16562 bound_to 9338
   20.6884    6.2467   39.5880 LP  0  0  0  0  0  0  0  0  0  0  0  0  # atno 16563 bound_to 9341
   20.6964    6.3962   37.9619 LP  0  0  0  0  0  0  0  0  0  0  0  0  # atno 16564 bound_to 9341
   13.9038    2.6126   38.6095 LP  0  0  0  0  0  0  0  0  0  0  0  0  # atno 16565 bound_to 9380
   12.9642    3.2777   37.3153 LP  0  0  0  0  0  0  0  0  0  0  0  0  # atno 16566 bound_to 9380
   15.4497    1.0685   38.9638 LP  0  0  0  0  0  0  0  0  0  0  0  0  # atno 16567 bound_to 9469
   30.2828   -4.2920   36.9503 LP  0  0  0  0  0  0  0  0  0  0  0  0  # atno 16570 bound_to 5709
   28.7756   -4.0699   37.7743 LP  0  0  0  0  0  0  0  0  0  0  0  0  # atno 16571 bound_to 5709
   26.6276    0.2337   41.0971 LP  0  0  0  0  0  0  0  0  0  0  0  0  # atno 16574 bound_to 7822
   29.2307    4.0748   42.7814 LP  0  0  0  0  0  0  0  0  0  0  0  0  # atno 16575 bound_to 7825
   29.2370    3.8865   41.0596 LP  0  0  0  0  0  0  0  0  0  0  0  0  # atno 16576 bound_to 7825
   29.5899   -1.7939   41.4423 LP  0  0  0  0  0  0  0  0  0  0  0  0  # atno 16579 bound_to 5706
   31.2661   -3.1469   39.2273 LP  0  0  0  0  0  0  0  0  0  0  0  0  # atno 16580 bound_to 5761
   33.5850   -1.3394   36.4905 LP  0  0  0  0  0  0  0  0  0  0  0  0  # atno 16581 bound_to 5766
   34.2637   -2.6232   35.7436 LP  0  0  0  0  0  0  0  0  0  0  0  0  # atno 16582 bound_to 5766
   28.4883    1.0236   42.5750 LP  0  0  0  0  0  0  0  0  0  0  0  0  # atno 16583 bound_to 7781
   28.2886   -0.6711   42.8718 LP  0  0  0  0  0  0  0  0  0  0  0  0  # atno 16584 bound_to 7781
   27.5480    2.1643   42.8863 LP  0  0  0  0  0  0  0  0  0  0  0  0  # atno 16585 bound_to 7866
   14.5434   -0.2740   40.1061 LP  0  0  0  0  0  0  0  0  0  0  0  0  # atno 16593 bound_to 9424
   14.7147   -0.9908   38.5387 LP  0  0  0  0  0  0  0  0  0  0  0  0  # atno 16594 bound_to 9424
   21.3322   -2.3013   40.9340 LP  0  0  0  0  0  0  0  0  0  0  0  0  # atno 16595 bound_to 9480
   19.9982   -3.2235   41.1258 LP  0  0  0  0  0  0  0  0  0  0  0  0  # atno 16596 bound_to 9480
   19.5572    3.2517   44.0232 LP  0  0  0  0  0  0  0  0  0  0  0  0  # atno 16597 bound_to 7659
   20.2782    2.0355   43.0227 LP  0  0  0  0  0  0  0  0  0  0  0  0  # atno 16598 bound_to 7659
   24.6327    2.3507   43.9882 LP  0  0  0  0  0  0  0  0  0  0  0  0  # atno 16599 bound_to 7717
   25.6376    0.9545   44.1893 LP  0  0  0  0  0  0  0  0  0  0  0  0  # atno 16600 bound_to 7717
   21.3959    1.7486   44.8933 LP  0  0  0  0  0  0  0  0  0  0  0  0  # atno 16601 bound_to 7714
   17.8186   -5.0299   41.3769 LP  0  0  0  0  0  0  0  0  0  0  0  0  # atno 16602 bound_to 10532
   18.8282   -5.7704   42.5737 LP  0  0  0  0  0  0  0  0  0  0  0  0  # atno 16603 bound_to 10532
   16.4172   10.1410   40.3176 LP  0  0  0  0  0  0  0  0  0  0  0  0  # atno 16604 bound_to 9311
   27.9939   10.9444   25.5783 LP  0  0  0  0  0  0  0  0  0  0  0  0  # atno 16607 bound_to 15310
   27.2140   11.2179   26.9867 LP  0  0  0  0  0  0  0  0  0  0  0  0  # atno 16608 bound_to 15310
   18.5567    7.7509   44.4079 LP  0  0  0  0  0  0  0  0  0  0  0  0  # atno 16611 bound_to 7554
   17.2863    8.6776   45.1342 LP  0  0  0  0  0  0  0  0  0  0  0  0  # atno 16612 bound_to 7554
   22.7938    4.8419   45.0506 LP  0  0  0  0  0  0  0  0  0  0  0  0  # atno 16613 bound_to 7623
   21.8094    5.0566   43.6417 LP  0  0  0  0  0  0  0  0  0  0  0  0  # atno 16614 bound_to 7623
   13.8374   12.5338   42.5309 LP  0  0  0  0  0  0  0  0  0  0  0  0  # atno 16615 bound_to 9280
   15.8331    8.4624   42.4615 LP  0  0  0  0  0  0  0  0  0  0  0  0  # atno 16616 bound_to 9283
   14.4834    9.5338   42.6359 LP  0  0  0  0  0  0  0  0  0  0  0  0  # atno 16617 bound_to 9283
   15.0202   14.0162   40.9677 LP  0  0  0  0  0  0  0  0  0  0  0  0  # atno 16618 bound_to 9228
   13.6345   14.3273   39.9762 LP  0  0  0  0  0  0  0  0  0  0  0  0  # atno 16619 bound_to 9228
   19.0798    6.0372   47.0369 LP  0  0  0  0  0  0  0  0  0  0  0  0  # atno 16620 bound_to 7620
   11.6002   14.0418   43.2382 LP  0  0  0  0  0  0  0  0  0  0  0  0  # atno 16628 bound_to 9225
   14.3899    2.5992   41.5392 LP  0  0  0  0  0  0  0  0  0  0  0  0  # atno 16635 bound_to 9528
   23.0663   20.5948   37.6449 LP  0  0  0  0  0  0  0  0  0  0  0  0  # atno 16636 bound_to 3357
   24.2294   19.7293   36.6972 LP  0  0  0  0  0  0  0  0  0  0  0  0  # atno 16637 bound_to 3357
   22.0410   21.4218   41.0147 LP  0  0  0  0  0  0  0  0  0  0  0  0  # atno 16638 bound_to 3415
   21.8295   20.5982   39.5057 LP  0  0  0  0  0  0  0  0  0  0  0  0  # atno 16639 bound_to 3415
   24.0983   22.9864   36.5496 LP  0  0  0  0  0  0  0  0  0  0  0  0  # atno 16640 bound_to 3412
   23.6896   22.1401   40.0446 LP  0  0  0  0  0  0  0  0  0  0  0  0  # atno 16641 bound_to 3478
    9.5362   14.2514   43.4000 LP  0  0  0  0  0  0  0  0  0  0  0  0  # atno 16646 bound_to 9102
    7.9396   14.7185   43.8824 LP  0  0  0  0  0  0  0  0  0  0  0  0  # atno 16647 bound_to 9102
   10.0612   14.3636   45.5422 LP  0  0  0  0  0  0  0  0  0  0  0  0  # atno 16648 bound_to 9168
   14.8676   16.0387   46.7382 LP  0  0  0  0  0  0  0  0  0  0  0  0  # atno 16649 bound_to 9178
   14.8619   16.8773   48.1393 LP  0  0  0  0  0  0  0  0  0  0  0  0  # atno 16650 bound_to 9178
   10.4808   24.7956   36.9682 LP  0  0  0  0  0  0  0  0  0  0  0  0  # atno 16654 bound_to 6255
    9.5104   24.7161   35.6572 LP  0  0  0  0  0  0  0  0  0  0  0  0  # atno 16655 bound_to 6255
   11.8210   18.6821   47.2025 LP  0  0  0  0  0  0  0  0  0  0  0  0  # atno 16656 bound_to 9176
   13.3891   19.0102   47.5189 LP  0  0  0  0  0  0  0  0  0  0  0  0  # atno 16657 bound_to 9176

> <Gold.Score>
     Fitness  S(hb_ext) S(vdw_ext)  S(hb_int)    S(int)      intcor
     26.72       0.00      19.69       0.00      -0.36      -0.76

> <Gold.Goldscore.Fitness>
26.7176

> <Gold.Goldscore.Internal.Vdw>
-0.6069

> <Gold.Goldscore.Internal.Torsion>
-0.5129

> <Gold.Goldscore.External.Vdw>
19.6938

> <Gold.Goldscore.Internal.HBond>
0.0000

> <Gold.Goldscore.External.HBond>
0.0000

> <Gold.Goldscore.Internal.Correction>
-0.7585

> <Gold.Goldscore.Internal.Vdw.Weighted>
-0.6069

> <Gold.Goldscore.Internal.Torsion.Weighted>
-0.5129

> <Gold.Goldscore.External.Vdw.Weighted>
27.0789

> <Gold.Goldscore.Internal.HBond.Weighted>
0.0000

> <Gold.Goldscore.External.HBond.Weighted>
0.0000

> <Gold.Goldscore.Internal.Correction.Weighted>
-0.7585

> <Gold.Rescore>
     Score     S(PLP)   S(hbond)     S(cho)   S(metal)  DE(clash)   DE(tors)     intcor
     20.43     -22.29       0.09       0.00       0.00       0.00       1.07       ----

> <Gold.PLP.Fitness>
20.4315

> <Gold.PLP.PLP>
-22.2930

> <Gold.PLP.part.hbond>
-1.0706

> <Gold.PLP.part.metal>
0.0000

> <Gold.PLP.part.buried>
-3.5683

> <Gold.PLP.part.nonpolar>
-23.7550

> <Gold.PLP.part.repulsive>
4.5667

> <Gold.PLP.ligand.clash>
0.0000

> <Gold.PLP.ligand.torsion>
1.0707

> <Gold.PLP.Chemscore.Hbond>
0.0933

> <Gold.PLP.Chemscore.CHOScore>
0.0000

> <Gold.PLP.Chemscore.Metal>
0.0000

> <Gold.PLP.Chemscore.Internal.Correction>
   9.000000E+99

