#       Name:                CT1002167954
#       Creating user name   hitesit
#       Creation time:       Sun Apr 16 02:24:21 2023


#       File generated by GOLD software.
#

@<TRIPOS>MOLECULE
CT1002167954|ligand_prepared|mol2|1|dock1
    29    30     1
SMALL
NO_CHARGES


@<TRIPOS>ATOM
      1 C1         112.0839 247.5781 326.0646 C.3            1 RES1               0.0000
      2 C2         113.5973 247.3863 325.8374 C.ar           1 RES1               0.0000
      3 C3         111.9441 248.6764 327.1146 C.2            1 RES1               0.0000
      4 C4         111.4907 247.9367 324.7066 C.2            1 RES1               0.0000
      5 C5         111.3639 246.3106 326.5808 C.3            1 RES1               0.0000
      6 C6         114.3888 248.4460 325.4048 C.ar           1 RES1               0.0000
      7 C7         114.2155 246.1584 326.0582 C.ar           1 RES1               0.0000
      8 N8         111.5252 249.9039 326.6932 N.am           1 RES1               0.0000
      9 O9         112.2350 248.4793 328.2880 O.2            1 RES1               0.0000
     10 N10        110.9553 249.1884 324.5500 N.am           1 RES1               0.0000
     11 O11        111.4970 247.1525 323.7657 O.2            1 RES1               0.0000
     12 C12        109.8770 246.5085 326.8299 C.3            1 RES1               0.0000
     13 C13        115.7496 248.2850 325.2031 C.ar           1 RES1               0.0000
     14 C14        115.5764 245.9995 325.8558 C.ar           1 RES1               0.0000
     15 C15        110.9733 250.1988 325.4725 C.2            1 RES1               0.0000
     16 C16        116.3444 247.0619 325.4289 C.ar           1 RES1               0.0000
     17 O17        110.5200 251.3155 325.2386 O.2            1 RES1               0.0000
     18 H18        111.4949 245.5063 325.8463 H              1 RES1               0.0000
     19 H19        111.8391 245.9908 327.5164 H              1 RES1               0.0000
     20 H20        113.9380 249.4153 325.2196 H              1 RES1               0.0000
     21 H21        113.6309 245.3083 326.3933 H              1 RES1               0.0000
     22 H22        111.6323 250.6738 327.3460 H              1 RES1               0.0000
     23 H23        110.5011 249.3850 323.6638 H              1 RES1               0.0000
     24 H24        109.4206 245.5892 327.1907 H              1 RES1               0.0000
     25 H25        109.7106 247.2843 327.5743 H              1 RES1               0.0000
     26 H26        109.3683 246.8027 325.9142 H              1 RES1               0.0000
     27 H27        116.3493 249.1239 324.8658 H              1 RES1               0.0000
     28 H28        116.0402 245.0349 326.0341 H              1 RES1               0.0000
     29 H29        117.4105 246.9361 325.2712 H              1 RES1               0.0000
@<TRIPOS>BOND
    1    1    2 1     
    2    1    3 1     
    3    1    4 1     
    4    1    5 1     
    5    2    6 ar    
    6    2    7 ar    
    7    3    8 1     
    8    3    9 2     
    9    4   10 1     
   10    4   11 2     
   11    5   12 1     
   12    5   18 1     
   13    5   19 1     
   14    6   13 ar    
   15    6   20 1     
   16    7   14 ar    
   17    7   21 1     
   18    8   15 1     
   19    8   22 1     
   20   10   15 1     
   21   10   23 1     
   22   12   24 1     
   23   12   25 1     
   24   12   26 1     
   25   13   16 ar    
   26   13   27 1     
   27   14   16 ar    
   28   14   28 1     
   29   15   17 2     
   30   16   29 1     
@<TRIPOS>SUBSTRUCTURE
      1 RES1           1
@<TRIPOS>SET
DONOR_HYDROGENS      STATIC     ATOMS    <user>   **** ""
2 22 23
ATOM$RED        STATIC     ATOMS    COLORGROUP SYSTEM
2 22 23
@<TRIPOS>COMMENT
> <Gold.Version>
2022.3.0

> <Gold.Id.Protein>
unknown|5uo4_clean|pdb

> <Gold.Protein.RotatedTorsions>
[ 8496 8486 8487 8488 ] final  -38.51 input   44.11 | X-H torsion
[ 8524 8508 8509 8510 ] final  -62.29 input   97.60 | X-H torsion
[ 9059 9055 9056 9057 ] final  172.51 input   32.84 | X-H torsion
[ 9093 9079 9080 9081 ] final  160.66 input   37.99 | X-H torsion
[ 9137 9125 9126 9127 ] final    7.33 input   94.90 | X-H torsion
[ 9145 9136 9135 9133 ] final  -16.22 input   59.99 | X-H torsion
[ 9171 9163 9164 9165 ] final  179.36 input   93.81 | X-H torsion
[ 9249 9240 9241 9242 ] final  -32.89 input  122.14 | X-H torsion
[ 3643 3636 3637 3638 ] final   24.30 input   81.24 | X-H torsion
[ 9041 9035 9036 9037 ] final   59.25 input   40.99 | X-H torsion
[ 9197 9193 9194 9195 ] final -123.37 input  127.52 | X-H torsion
[ 4934 4929 4928 4925 ] final  132.68 input   60.01 | X-H torsion
[ 9045 9040 9039 9036 ] final   97.16 input   60.00 | X-H torsion
[ 9011 9000 9001 9002 ] final -128.25 input   48.35 | X-H torsion
[ 8550 8539 8540 8541 ] final  175.66 input   52.79 | X-H torsion
[ 3595 3586 3587 3588 ] final  -28.53 input   78.24 | X-H torsion
[ 4950 4945 4946 4947 ] final  162.62 input   25.62 | X-H torsion
[ 12935 12926 12925 12923 ] final  -97.06 input   60.03 | X-H torsion
[ 8577 8563 8564 8565 ] final  -90.75 input   67.96 | X-H torsion
[ 8608 8591 8592 8593 ] final -142.36 input   87.41 | X-H torsion
[ 5599 5589 5588 5585 ] final  -42.15 input   60.01 | X-H torsion
[ 12927 12915 12916 12917 ] final  106.47 input  110.33 | X-H torsion
[ 12963 12954 12955 12956 ] final  -53.60 input   33.30 | X-H torsion
[ 8644 8625 8626 8627 ] final   44.92 input   62.93 | X-H torsion
[ 12891 12882 12883 12884 ] final   63.16 input   63.10 | X-H torsion
[ 9549 9544 9543 9540 ] final  -24.34 input   60.00 | X-H torsion
[ 3623 3607 3608 3609 ] final  -11.38 input  103.98 | X-H torsion
[ 9277 9269 9270 9271 ] final   41.86 input   95.60 | X-H torsion
[ 11113 11106 11107 11108 ] final   16.54 input   53.77 | X-H torsion
[ 13521 8463 8462 8461 ] final    8.03 input    0.00 | X-H torsion
[ 13525 9003 9002 9001 ] final   37.53 input    0.00 | X-H torsion
[ 13528 9058 9057 9056 ] final -113.01 input   -0.00 | X-H torsion
[ 13531 9082 9081 9080 ] final   61.14 input   -0.00 | X-H torsion
[ 13534 9128 9127 9126 ] final  146.91 input   -0.00 | X-H torsion
[ 13539 9166 9165 9164 ] final    5.04 input   -0.00 | X-H torsion
[ 13552 9038 9037 9036 ] final   21.56 input    0.00 | X-H torsion
[ 13554 8408 8407 8406 ] final -114.67 input    0.00 | X-H torsion
[ 13556 8426 8425 8424 ] final -161.97 input   -0.00 | X-H torsion
[ 13563 8489 8488 8487 ] final -101.13 input    0.00 | X-H torsion
[ 13565 8511 8510 8509 ] final  -11.01 input    0.00 | X-H torsion
[ 13573 3546 3545 3544 ] final -126.20 input    0.00 | X-H torsion
[ 13575 5587 5586 5585 ] final  -56.11 input   -0.00 | X-H torsion
[ 13579 4948 4947 4946 ] final  143.18 input   -0.00 | X-H torsion
[ 13587 8566 8565 8564 ] final   50.15 input   -0.00 | X-H torsion
[ 13589 12885 12884 12883 ] final   56.10 input   -0.00 | X-H torsion
[ 13594 12957 12956 12955 ] final  171.51 input    0.00 | X-H torsion
[ 13597 12918 12917 12916 ] final   11.12 input    0.00 | X-H torsion
[ 13601 8542 8541 8540 ] final  123.68 input    0.00 | X-H torsion
[ 13603 8594 8593 8592 ] final   -2.92 input    0.00 | X-H torsion
[ 13616 6182 6181 6180 ] final   47.70 input   -0.00 | X-H torsion
[ 13618 9359 9358 9357 ] final  -66.95 input   -0.00 | X-H torsion

> <Gold.Protein.ActiveResidues>
 TRP311  MET341  HIS342  TRP414  ALA417  ARG419  CYS420  VAL421  GLY422  LEU429 
 LEU460  SER462  ALA463  ILE464  ARG478  SER482  GLN483  ARG486  ALA502  TYR567 
 GLY568  LEU569  PRO570  ALA571  VAL572  SER573  ASN574  MET575  LEU576  PRO588 
 PHE589  SER590  GLY591  TRP592  TYR593  MET594  GLY595  GLU597  ILE598  ARG601 
 ASP602  ASP605  SER607  ARG608  ILE653  VAL654  TRP683  PHE696  HIS697  PHE709 
 GLU710  TYR711  GLN712  PRO713  ASP714  HEM801  H4B802 

> <Gold.Protein.RotatedAtoms>
  120.5650  251.8731  331.0672 H   0  0  0  0  0  0  0  0  0  0  0  0  # atno 3595 bound_to 3586
  122.5484  249.4278  329.4195 H   0  0  0  0  0  0  0  0  0  0  0  0  # atno 3623 bound_to 3607
  124.1246  249.3821  328.5489 H   0  0  0  0  0  0  0  0  0  0  0  0  # atno 3643 bound_to 3636
  126.1769  246.9105  319.5488 H   0  0  0  0  0  0  0  0  0  0  0  0  # atno 4934 bound_to 4929
  123.6360  247.0089  315.3733 H   0  0  0  0  0  0  0  0  0  0  0  0  # atno 4950 bound_to 4945
  106.5426  243.5204  321.0661 H   0  0  0  0  0  0  0  0  0  0  0  0  # atno 5599 bound_to 5589
  115.5489  243.1857  320.3612 H   0  0  0  0  0  0  0  0  0  0  0  0  # atno 8496 bound_to 8486
  114.4705  245.5770  318.8382 H   0  0  0  0  0  0  0  0  0  0  0  0  # atno 8524 bound_to 8508
  112.3256  247.1232  318.7532 H   0  0  0  0  0  0  0  0  0  0  0  0  # atno 8550 bound_to 8539
  110.0103  249.7713  318.3494 H   0  0  0  0  0  0  0  0  0  0  0  0  # atno 8577 bound_to 8563
  109.4286  251.5414  320.7860 H   0  0  0  0  0  0  0  0  0  0  0  0  # atno 8608 bound_to 8591
  111.0462  255.8096  321.3197 H   0  0  0  0  0  0  0  0  0  0  0  0  # atno 8644 bound_to 8625
  115.7671  249.4391  315.8996 H   0  0  0  0  0  0  0  0  0  0  0  0  # atno 9011 bound_to 9000
  119.4709  247.6738  316.8221 H   0  0  0  0  0  0  0  0  0  0  0  0  # atno 9041 bound_to 9035
  120.6397  244.3370  316.1095 H   0  0  0  0  0  0  0  0  0  0  0  0  # atno 9045 bound_to 9040
  120.6646  245.8582  319.2981 H   0  0  0  0  0  0  0  0  0  0  0  0  # atno 9059 bound_to 9055
  123.3938  243.0838  320.5224 H   0  0  0  0  0  0  0  0  0  0  0  0  # atno 9093 bound_to 9079
  123.1335  240.0522  323.5911 H   0  0  0  0  0  0  0  0  0  0  0  0  # atno 9137 bound_to 9125
  115.0354  238.6274  322.6485 H   0  0  0  0  0  0  0  0  0  0  0  0  # atno 9145 bound_to 9136
  122.4570  241.2017  326.7524 H   0  0  0  0  0  0  0  0  0  0  0  0  # atno 9171 bound_to 9163
  122.3816  238.0751  328.4603 H   0  0  0  0  0  0  0  0  0  0  0  0  # atno 9197 bound_to 9193
  117.9853  237.9852  331.2912 H   0  0  0  0  0  0  0  0  0  0  0  0  # atno 9249 bound_to 9240
  117.4122  237.0542  329.7787 H   0  0  0  0  0  0  0  0  0  0  0  0  # atno 9277 bound_to 9269
  105.0862  238.9354  334.2329 H   0  0  0  0  0  0  0  0  0  0  0  0  # atno 9549 bound_to 9544
  125.1715  237.9850  326.8893 H   0  0  0  0  0  0  0  0  0  0  0  0  # atno 11113 bound_to 11106
  112.5202  257.7519  322.4690 H   0  0  0  0  0  0  0  0  0  0  0  0  # atno 12891 bound_to 12882
  109.8443  257.0908  326.0778 H   0  0  0  0  0  0  0  0  0  0  0  0  # atno 12927 bound_to 12915
  111.9618  252.1389  329.3561 H   0  0  0  0  0  0  0  0  0  0  0  0  # atno 12935 bound_to 12926
  106.4148  255.5135  324.5986 H   0  0  0  0  0  0  0  0  0  0  0  0  # atno 12963 bound_to 12954
  118.8558  243.2207  320.1609 LP  0  0  0  0  0  0  0  0  0  0  0  0  # atno 13521 bound_to 8463
  117.8745  244.4792  319.4876 LP  0  0  0  0  0  0  0  0  0  0  0  0  # atno 13522 bound_to 8463
  116.1652  242.2864  318.9959 LP  0  0  0  0  0  0  0  0  0  0  0  0  # atno 13523 bound_to 8486
  115.4406  246.2409  320.1307 LP  0  0  0  0  0  0  0  0  0  0  0  0  # atno 13524 bound_to 8508
  116.0226  247.4660  318.5595 LP  0  0  0  0  0  0  0  0  0  0  0  0  # atno 13525 bound_to 9003
  117.3494  246.9723  319.5574 LP  0  0  0  0  0  0  0  0  0  0  0  0  # atno 13526 bound_to 9003
  120.3520  244.1412  319.1568 LP  0  0  0  0  0  0  0  0  0  0  0  0  # atno 13527 bound_to 9055
  121.4862  241.6880  319.3180 LP  0  0  0  0  0  0  0  0  0  0  0  0  # atno 13528 bound_to 9058
  122.8470  242.2861  318.4288 LP  0  0  0  0  0  0  0  0  0  0  0  0  # atno 13529 bound_to 9058
  122.3216  243.4547  321.8508 LP  0  0  0  0  0  0  0  0  0  0  0  0  # atno 13530 bound_to 9079
  121.6848  243.0288  323.6412 LP  0  0  0  0  0  0  0  0  0  0  0  0  # atno 13531 bound_to 9082
  122.8785  242.3958  324.7249 LP  0  0  0  0  0  0  0  0  0  0  0  0  # atno 13532 bound_to 9082
  121.5653  240.2287  322.8389 LP  0  0  0  0  0  0  0  0  0  0  0  0  # atno 13533 bound_to 9125
  124.3459  239.6529  326.5638 LP  0  0  0  0  0  0  0  0  0  0  0  0  # atno 13534 bound_to 9128
  123.6923  238.4866  325.4626 LP  0  0  0  0  0  0  0  0  0  0  0  0  # atno 13535 bound_to 9128
  114.8764  239.8734  323.6831 LP  0  0  0  0  0  0  0  0  0  0  0  0  # atno 13536 bound_to 9136
  114.6515  238.3421  324.2039 LP  0  0  0  0  0  0  0  0  0  0  0  0  # atno 13537 bound_to 9136
  121.2529  239.9363  326.8040 LP  0  0  0  0  0  0  0  0  0  0  0  0  # atno 13538 bound_to 9163
  119.9768  239.7267  328.4655 LP  0  0  0  0  0  0  0  0  0  0  0  0  # atno 13539 bound_to 9166
  119.8256  238.1930  329.2559 LP  0  0  0  0  0  0  0  0  0  0  0  0  # atno 13540 bound_to 9166
  118.9813  239.2485  330.6083 LP  0  0  0  0  0  0  0  0  0  0  0  0  # atno 13541 bound_to 9240
  124.3082  247.8217  329.3107 LP  0  0  0  0  0  0  0  0  0  0  0  0  # atno 13550 bound_to 3636
  118.2298  247.8363  318.0403 LP  0  0  0  0  0  0  0  0  0  0  0  0  # atno 13551 bound_to 9035
  121.2238  247.5714  317.7642 LP  0  0  0  0  0  0  0  0  0  0  0  0  # atno 13552 bound_to 9038
  122.4964  246.4579  318.1391 LP  0  0  0  0  0  0  0  0  0  0  0  0  # atno 13553 bound_to 9038
  120.0289  238.0889  320.6573 LP  0  0  0  0  0  0  0  0  0  0  0  0  # atno 13554 bound_to 8408
  121.2771  237.4289  319.6541 LP  0  0  0  0  0  0  0  0  0  0  0  0  # atno 13555 bound_to 8408
  115.7672  240.4928  318.9052 LP  0  0  0  0  0  0  0  0  0  0  0  0  # atno 13556 bound_to 8426
  116.0685  239.0135  318.0560 LP  0  0  0  0  0  0  0  0  0  0  0  0  # atno 13557 bound_to 8426
  122.6119  238.3053  330.1781 LP  0  0  0  0  0  0  0  0  0  0  0  0  # atno 13558 bound_to 9193
  125.2222  245.7595  318.9079 LP  0  0  0  0  0  0  0  0  0  0  0  0  # atno 13559 bound_to 4929
  124.5687  246.9703  319.7875 LP  0  0  0  0  0  0  0  0  0  0  0  0  # atno 13560 bound_to 4929
  120.3228  245.9256  315.9561 LP  0  0  0  0  0  0  0  0  0  0  0  0  # atno 13561 bound_to 9040
  119.4714  244.8329  315.0913 LP  0  0  0  0  0  0  0  0  0  0  0  0  # atno 13562 bound_to 9040
  113.0030  245.3187  317.5671 LP  0  0  0  0  0  0  0  0  0  0  0  0  # atno 13563 bound_to 8489
  112.8270  244.0289  318.7096 LP  0  0  0  0  0  0  0  0  0  0  0  0  # atno 13564 bound_to 8489
  114.5751  248.7903  318.9985 LP  0  0  0  0  0  0  0  0  0  0  0  0  # atno 13565 bound_to 8511
  113.3525  249.2096  317.8455 LP  0  0  0  0  0  0  0  0  0  0  0  0  # atno 13566 bound_to 8511
  115.3752  249.1102  317.5707 LP  0  0  0  0  0  0  0  0  0  0  0  0  # atno 13567 bound_to 9000
  111.2244  248.0072  319.7781 LP  0  0  0  0  0  0  0  0  0  0  0  0  # atno 13568 bound_to 8539
  119.8470  249.6677  331.5935 LP  0  0  0  0  0  0  0  0  0  0  0  0  # atno 13573 bound_to 3546
  118.1856  249.9585  331.1995 LP  0  0  0  0  0  0  0  0  0  0  0  0  # atno 13574 bound_to 3546
  109.8332  247.0435  319.9096 LP  0  0  0  0  0  0  0  0  0  0  0  0  # atno 13575 bound_to 5587
  110.5418  245.8860  320.9858 LP  0  0  0  0  0  0  0  0  0  0  0  0  # atno 13576 bound_to 5587
  119.7004  252.3353  329.6203 LP  0  0  0  0  0  0  0  0  0  0  0  0  # atno 13577 bound_to 3586
  122.6099  247.9201  316.4556 LP  0  0  0  0  0  0  0  0  0  0  0  0  # atno 13578 bound_to 4945
  119.9187  249.4600  316.2138 LP  0  0  0  0  0  0  0  0  0  0  0  0  # atno 13579 bound_to 4948
  120.2993  247.8204  315.8052 LP  0  0  0  0  0  0  0  0  0  0  0  0  # atno 13580 bound_to 4948
  110.6360  251.5214  330.0702 LP  0  0  0  0  0  0  0  0  0  0  0  0  # atno 13581 bound_to 12926
  111.3203  252.8849  330.6525 LP  0  0  0  0  0  0  0  0  0  0  0  0  # atno 13582 bound_to 12926
  109.9230  249.0304  319.9279 LP  0  0  0  0  0  0  0  0  0  0  0  0  # atno 13583 bound_to 8563
  110.3924  251.9019  319.3783 LP  0  0  0  0  0  0  0  0  0  0  0  0  # atno 13584 bound_to 8591
  106.3510  243.7508  322.6655 LP  0  0  0  0  0  0  0  0  0  0  0  0  # atno 13585 bound_to 5589
  107.8491  243.6041  322.0324 LP  0  0  0  0  0  0  0  0  0  0  0  0  # atno 13586 bound_to 5589
  107.2189  252.1854  321.3560 LP  0  0  0  0  0  0  0  0  0  0  0  0  # atno 13587 bound_to 8566
  107.8687  253.5377  320.4907 LP  0  0  0  0  0  0  0  0  0  0  0  0  # atno 13588 bound_to 8566
  111.1779  255.7521  322.7334 LP  0  0  0  0  0  0  0  0  0  0  0  0  # atno 13589 bound_to 12885
  109.5123  256.2057  322.5913 LP  0  0  0  0  0  0  0  0  0  0  0  0  # atno 13590 bound_to 12885
  110.2783  256.7421  324.4204 LP  0  0  0  0  0  0  0  0  0  0  0  0  # atno 13591 bound_to 12915
  107.4173  255.6026  323.1680 LP  0  0  0  0  0  0  0  0  0  0  0  0  # atno 13593 bound_to 12954
  103.6139  253.6250  323.5525 LP  0  0  0  0  0  0  0  0  0  0  0  0  # atno 13594 bound_to 12957
  105.3195  253.8171  323.3203 LP  0  0  0  0  0  0  0  0  0  0  0  0  # atno 13595 bound_to 12957
  110.3354  254.9108  319.9975 LP  0  0  0  0  0  0  0  0  0  0  0  0  # atno 13596 bound_to 8625
  108.2269  258.2695  324.4890 LP  0  0  0  0  0  0  0  0  0  0  0  0  # atno 13597 bound_to 12918
  106.6767  258.2262  323.7176 LP  0  0  0  0  0  0  0  0  0  0  0  0  # atno 13598 bound_to 12918
  108.3258  249.8752  316.9460 LP  0  0  0  0  0  0  0  0  0  0  0  0  # atno 13601 bound_to 8542
  109.8222  250.5497  316.3929 LP  0  0  0  0  0  0  0  0  0  0  0  0  # atno 13602 bound_to 8542
  110.3838  253.3857  318.2946 LP  0  0  0  0  0  0  0  0  0  0  0  0  # atno 13603 bound_to 8594
  110.5023  255.0837  317.9740 LP  0  0  0  0  0  0  0  0  0  0  0  0  # atno 13604 bound_to 8594
  113.5549  257.5617  323.8660 LP  0  0  0  0  0  0  0  0  0  0  0  0  # atno 13605 bound_to 12882
  103.2715  241.9262  325.8392 LP  0  0  0  0  0  0  0  0  0  0  0  0  # atno 13616 bound_to 6182
  101.7055  241.4979  325.2358 LP  0  0  0  0  0  0  0  0  0  0  0  0  # atno 13617 bound_to 6182
  110.5408  236.3283  333.2395 LP  0  0  0  0  0  0  0  0  0  0  0  0  # atno 13618 bound_to 9359
  109.8454  237.4281  332.0963 LP  0  0  0  0  0  0  0  0  0  0  0  0  # atno 13619 bound_to 9359
  104.2111  240.2693  334.5541 LP  0  0  0  0  0  0  0  0  0  0  0  0  # atno 13622 bound_to 9544
  104.4648  239.8085  333.0082 LP  0  0  0  0  0  0  0  0  0  0  0  0  # atno 13623 bound_to 9544

> <Gold.Score>
     Fitness  S(hb_ext) S(vdw_ext)  S(hb_int)    S(int)      intcor
     42.71       7.43      25.66       0.00      -0.01      -0.79

> <Gold.Goldscore.Fitness>
42.7069

> <Gold.Goldscore.Internal.Vdw>
-0.4265

> <Gold.Goldscore.Internal.Torsion>
-0.3696

> <Gold.Goldscore.External.Vdw>
25.6636

> <Gold.Goldscore.Internal.HBond>
0.0000

> <Gold.Goldscore.External.HBond>
7.4261

> <Gold.Goldscore.Internal.Correction>
-0.7894

> <Gold.Goldscore.Hbonds>
donor molecule, donor type, donor heavy atom, donor atom, acceptor molecule, acceptor atom, score
      L1  H     8    22       P1 13377  0.24
      L1  H    10    23       P1  8570  1.00

> <Gold.Goldscore.Internal.Vdw.Weighted>
-0.4265

> <Gold.Goldscore.Internal.Torsion.Weighted>
-0.3696

> <Gold.Goldscore.External.Vdw.Weighted>
35.2874

> <Gold.Goldscore.Internal.HBond.Weighted>
0.0000

> <Gold.Goldscore.External.HBond.Weighted>
7.4261

> <Gold.Goldscore.Internal.Correction.Weighted>
-0.7894

> <Gold.Rescore>
     Score     S(PLP)   S(hbond)     S(cho)   S(metal)  DE(clash)   DE(tors)     intcor
     35.54     -31.40       1.39       0.00       0.00       0.00       0.02       ----

> <Gold.PLP.Fitness>
35.5388

> <Gold.PLP.PLP>
-31.4048

> <Gold.PLP.part.hbond>
-1.8636

> <Gold.PLP.part.metal>
0.0000

> <Gold.PLP.part.buried>
1.8877

> <Gold.PLP.part.nonpolar>
-34.9860

> <Gold.PLP.part.repulsive>
1.7030

> <Gold.PLP.ligand.clash>
0.0000

> <Gold.PLP.ligand.torsion>
0.0234

> <Gold.PLP.Chemscore.Hbond>
1.3936

> <Gold.PLP.Chemscore.CHOScore>
0.0000

> <Gold.PLP.Chemscore.Metal>
0.0000

> <Gold.Chemscore.Hbonds>
donor molecule, donor type, donor heavy atom, donor atom, acceptor molecule, acceptor atom, score
      L1  H     8    22       P1 13377  0.67
      L1  H    10    23       P1  8570  1.00

> <Gold.PLP.Chemscore.Internal.Correction>
   9.000000E+99

