#       Name:                CT1002167954
#       Creating user name   hitesit
#       Creation time:       Sun Apr 16 02:24:24 2023


#       File generated by GOLD software.
#

@<TRIPOS>MOLECULE
CT1002167954|ligand_prepared|mol2|1|dock5
    29    30     1
SMALL
NO_CHARGES


@<TRIPOS>ATOM
      1 C1         117.3596 245.6248 324.3999 C.3            1 RES1               0.0000
      2 C2         116.2437 244.7727 325.0383 C.ar           1 RES1               0.0000
      3 C3         118.6467 245.2669 325.1372 C.2            1 RES1               0.0000
      4 C4         117.3724 245.2693 322.9173 C.2            1 RES1               0.0000
      5 C5         117.1301 247.1491 324.5238 C.3            1 RES1               0.0000
      6 C6         115.2905 245.3585 325.8660 C.ar           1 RES1               0.0000
      7 C7         116.1530 243.4027 324.8072 C.ar           1 RES1               0.0000
      8 N8         119.5564 244.4916 324.4804 N.am           1 RES1               0.0000
      9 O9         118.8431 245.6265 326.2915 O.2            1 RES1               0.0000
     10 N10        118.4803 244.6357 322.4185 N.am           1 RES1               0.0000
     11 O11        116.4263 245.5174 322.1801 O.2            1 RES1               0.0000
     12 C12        118.1551 247.9863 323.7751 C.3            1 RES1               0.0000
     13 C13        114.2814 244.6026 326.4395 C.ar           1 RES1               0.0000
     14 C14        115.1433 242.6486 325.3819 C.ar           1 RES1               0.0000
     15 C15        119.5600 244.2032 323.1393 C.2            1 RES1               0.0000
     16 C16        114.2069 243.2475 326.1975 C.ar           1 RES1               0.0000
     17 O17        120.4939 243.5917 322.6283 O.2            1 RES1               0.0000
     18 H18        116.1306 247.3880 324.1399 H              1 RES1               0.0000
     19 H19        117.1564 247.4250 325.5853 H              1 RES1               0.0000
     20 H20        115.3345 246.4231 326.0699 H              1 RES1               0.0000
     21 H21        116.8794 242.9100 324.1698 H              1 RES1               0.0000
     22 H22        120.3029 244.0890 325.0379 H              1 RES1               0.0000
     23 H23        118.5023 244.4713 321.4171 H              1 RES1               0.0000
     24 H24        117.9480 249.0476 323.8950 H              1 RES1               0.0000
     25 H25        119.1585 247.7925 324.1486 H              1 RES1               0.0000
     26 H26        118.1388 247.7558 322.7119 H              1 RES1               0.0000
     27 H27        113.5478 245.0785 327.0817 H              1 RES1               0.0000
     28 H28        115.0888 241.5822 325.1892 H              1 RES1               0.0000
     29 H29        113.4161 242.6556 326.6465 H              1 RES1               0.0000
@<TRIPOS>BOND
    1    1    2 1     
    2    1    3 1     
    3    1    4 1     
    4    1    5 1     
    5    2    6 ar    
    6    2    7 ar    
    7    3    8 1     
    8    3    9 2     
    9    4   10 1     
   10    4   11 2     
   11    5   12 1     
   12    5   18 1     
   13    5   19 1     
   14    6   13 ar    
   15    6   20 1     
   16    7   14 ar    
   17    7   21 1     
   18    8   15 1     
   19    8   22 1     
   20   10   15 1     
   21   10   23 1     
   22   12   24 1     
   23   12   25 1     
   24   12   26 1     
   25   13   16 ar    
   26   13   27 1     
   27   14   16 ar    
   28   14   28 1     
   29   15   17 2     
   30   16   29 1     
@<TRIPOS>SUBSTRUCTURE
      1 RES1           1
@<TRIPOS>SET
DONOR_HYDROGENS      STATIC     ATOMS    <user>   **** ""
2 22 23
ATOM$RED        STATIC     ATOMS    COLORGROUP SYSTEM
2 22 23
@<TRIPOS>COMMENT
> <Gold.Version>
2022.3.0

> <Gold.Id.Protein>
unknown|5uo4_clean|pdb

> <Gold.Protein.RotatedTorsions>
[ 8496 8486 8487 8488 ] final  173.60 input   44.11 | X-H torsion
[ 8524 8508 8509 8510 ] final  -79.36 input   97.60 | X-H torsion
[ 9059 9055 9056 9057 ] final  163.21 input   32.84 | X-H torsion
[ 9093 9079 9080 9081 ] final  -29.14 input   37.99 | X-H torsion
[ 9137 9125 9126 9127 ] final   14.07 input   94.90 | X-H torsion
[ 9145 9136 9135 9133 ] final   -8.49 input   59.99 | X-H torsion
[ 9171 9163 9164 9165 ] final  114.76 input   93.81 | X-H torsion
[ 9249 9240 9241 9242 ] final   21.73 input  122.14 | X-H torsion
[ 3643 3636 3637 3638 ] final -141.04 input   81.24 | X-H torsion
[ 9041 9035 9036 9037 ] final -125.29 input   40.99 | X-H torsion
[ 9197 9193 9194 9195 ] final   78.35 input  127.52 | X-H torsion
[ 4934 4929 4928 4925 ] final  -10.61 input   60.01 | X-H torsion
[ 9045 9040 9039 9036 ] final    7.27 input   60.00 | X-H torsion
[ 9011 9000 9001 9002 ] final  -70.51 input   48.35 | X-H torsion
[ 8550 8539 8540 8541 ] final -175.26 input   52.79 | X-H torsion
[ 3595 3586 3587 3588 ] final    3.20 input   78.24 | X-H torsion
[ 4950 4945 4946 4947 ] final -175.53 input   25.62 | X-H torsion
[ 12935 12926 12925 12923 ] final   73.21 input   60.03 | X-H torsion
[ 8577 8563 8564 8565 ] final -149.54 input   67.96 | X-H torsion
[ 8608 8591 8592 8593 ] final -171.98 input   87.41 | X-H torsion
[ 5599 5589 5588 5585 ] final -151.45 input   60.01 | X-H torsion
[ 12927 12915 12916 12917 ] final -143.51 input  110.33 | X-H torsion
[ 12963 12954 12955 12956 ] final  101.20 input   33.30 | X-H torsion
[ 8644 8625 8626 8627 ] final -169.28 input   62.93 | X-H torsion
[ 12891 12882 12883 12884 ] final  -55.93 input   63.10 | X-H torsion
[ 9549 9544 9543 9540 ] final   12.69 input   60.00 | X-H torsion
[ 3623 3607 3608 3609 ] final  -45.01 input  103.98 | X-H torsion
[ 9277 9269 9270 9271 ] final  -68.47 input   95.60 | X-H torsion
[ 11113 11106 11107 11108 ] final -165.88 input   53.77 | X-H torsion
[ 13521 8463 8462 8461 ] final  -74.22 input    0.00 | X-H torsion
[ 13525 9003 9002 9001 ] final   -0.15 input    0.00 | X-H torsion
[ 13528 9058 9057 9056 ] final   -7.79 input   -0.00 | X-H torsion
[ 13531 9082 9081 9080 ] final -110.27 input   -0.00 | X-H torsion
[ 13534 9128 9127 9126 ] final   39.07 input   -0.00 | X-H torsion
[ 13539 9166 9165 9164 ] final    1.58 input   -0.00 | X-H torsion
[ 13552 9038 9037 9036 ] final -145.90 input    0.00 | X-H torsion
[ 13554 8408 8407 8406 ] final  -96.96 input    0.00 | X-H torsion
[ 13556 8426 8425 8424 ] final  -91.35 input   -0.00 | X-H torsion
[ 13563 8489 8488 8487 ] final  -23.23 input    0.00 | X-H torsion
[ 13565 8511 8510 8509 ] final  -81.95 input    0.00 | X-H torsion
[ 13573 3546 3545 3544 ] final   18.79 input    0.00 | X-H torsion
[ 13575 5587 5586 5585 ] final  146.88 input   -0.00 | X-H torsion
[ 13579 4948 4947 4946 ] final   95.32 input   -0.00 | X-H torsion
[ 13587 8566 8565 8564 ] final  143.77 input   -0.00 | X-H torsion
[ 13589 12885 12884 12883 ] final  -28.89 input   -0.00 | X-H torsion
[ 13594 12957 12956 12955 ] final    5.41 input    0.00 | X-H torsion
[ 13597 12918 12917 12916 ] final   -9.46 input    0.00 | X-H torsion
[ 13601 8542 8541 8540 ] final  -59.59 input    0.00 | X-H torsion
[ 13603 8594 8593 8592 ] final  -50.28 input    0.00 | X-H torsion
[ 13616 6182 6181 6180 ] final  -90.39 input   -0.00 | X-H torsion
[ 13618 9359 9358 9357 ] final -105.84 input   -0.00 | X-H torsion

> <Gold.Protein.ActiveResidues>
 TRP311  MET341  HIS342  TRP414  ALA417  ARG419  CYS420  VAL421  GLY422  LEU429 
 LEU460  SER462  ALA463  ILE464  ARG478  SER482  GLN483  ARG486  ALA502  TYR567 
 GLY568  LEU569  PRO570  ALA571  VAL572  SER573  ASN574  MET575  LEU576  PRO588 
 PHE589  SER590  GLY591  TRP592  TYR593  MET594  GLY595  GLU597  ILE598  ARG601 
 ASP602  ASP605  SER607  ARG608  ILE653  VAL654  TRP683  PHE696  HIS697  PHE709 
 GLU710  TYR711  GLN712  PRO713  ASP714  HEM801  H4B802 

> <Gold.Protein.RotatedAtoms>
  120.8369  252.2107  330.8529 H   0  0  0  0  0  0  0  0  0  0  0  0  # atno 3595 bound_to 3586
  122.6127  249.8809  329.6544 H   0  0  0  0  0  0  0  0  0  0  0  0  # atno 3623 bound_to 3607
  124.4809  247.9103  329.4211 H   0  0  0  0  0  0  0  0  0  0  0  0  # atno 3643 bound_to 3636
  124.8653  245.8435  319.0046 H   0  0  0  0  0  0  0  0  0  0  0  0  # atno 4934 bound_to 4929
  123.8380  247.2646  315.4522 H   0  0  0  0  0  0  0  0  0  0  0  0  # atno 4950 bound_to 4945
  106.2253  243.7402  322.5435 H   0  0  0  0  0  0  0  0  0  0  0  0  # atno 5599 bound_to 5589
  116.5609  242.4778  319.1971 H   0  0  0  0  0  0  0  0  0  0  0  0  # atno 8496 bound_to 8486
  114.4325  245.3883  319.0162 H   0  0  0  0  0  0  0  0  0  0  0  0  # atno 8524 bound_to 8508
  112.4144  247.2275  318.7772 H   0  0  0  0  0  0  0  0  0  0  0  0  # atno 8550 bound_to 8539
  109.5293  249.0612  318.4588 H   0  0  0  0  0  0  0  0  0  0  0  0  # atno 8577 bound_to 8563
  109.8325  251.3708  320.8771 H   0  0  0  0  0  0  0  0  0  0  0  0  # atno 8608 bound_to 8591
  109.9324  255.1252  320.2365 H   0  0  0  0  0  0  0  0  0  0  0  0  # atno 8644 bound_to 8625
  115.6696  248.6281  316.1483 H   0  0  0  0  0  0  0  0  0  0  0  0  # atno 9011 bound_to 9000
  118.1725  247.8121  318.0056 H   0  0  0  0  0  0  0  0  0  0  0  0  # atno 9041 bound_to 9035
  120.6340  245.6549  316.2173 H   0  0  0  0  0  0  0  0  0  0  0  0  # atno 9045 bound_to 9040
  120.6130  245.8446  319.4323 H   0  0  0  0  0  0  0  0  0  0  0  0  # atno 9059 bound_to 9055
  122.1990  243.4252  321.7684 H   0  0  0  0  0  0  0  0  0  0  0  0  # atno 9093 bound_to 9079
  123.1246  239.9504  323.5715 H   0  0  0  0  0  0  0  0  0  0  0  0  # atno 9137 bound_to 9125
  115.0164  238.5121  322.6965 H   0  0  0  0  0  0  0  0  0  0  0  0  # atno 9145 bound_to 9136
  121.5951  241.3398  327.1126 H   0  0  0  0  0  0  0  0  0  0  0  0  # atno 9171 bound_to 9163
  122.8839  238.1253  330.1252 H   0  0  0  0  0  0  0  0  0  0  0  0  # atno 9197 bound_to 9193
  118.3540  237.8281  330.5858 H   0  0  0  0  0  0  0  0  0  0  0  0  # atno 9249 bound_to 9240
  116.1477  237.7918  329.7019 H   0  0  0  0  0  0  0  0  0  0  0  0  # atno 9277 bound_to 9269
  105.0731  238.9241  333.6385 H   0  0  0  0  0  0  0  0  0  0  0  0  # atno 9549 bound_to 9544
  126.5244  238.1642  325.7671 H   0  0  0  0  0  0  0  0  0  0  0  0  # atno 11113 bound_to 11106
  113.1490  256.8484  323.5303 H   0  0  0  0  0  0  0  0  0  0  0  0  # atno 12891 bound_to 12882
  110.5705  256.1889  325.2040 H   0  0  0  0  0  0  0  0  0  0  0  0  # atno 12927 bound_to 12915
  110.7273  252.3575  330.7385 H   0  0  0  0  0  0  0  0  0  0  0  0  # atno 12935 bound_to 12926
  107.2628  255.2573  323.1109 H   0  0  0  0  0  0  0  0  0  0  0  0  # atno 12963 bound_to 12954
  118.2704  244.0615  320.6587 LP  0  0  0  0  0  0  0  0  0  0  0  0  # atno 13521 bound_to 8463
  118.4600  243.6383  318.9899 LP  0  0  0  0  0  0  0  0  0  0  0  0  # atno 13522 bound_to 8463
  115.1748  242.9792  320.1351 LP  0  0  0  0  0  0  0  0  0  0  0  0  # atno 13523 bound_to 8486
  115.4777  246.4255  319.9566 LP  0  0  0  0  0  0  0  0  0  0  0  0  # atno 13524 bound_to 8508
  116.1448  247.8800  318.9152 LP  0  0  0  0  0  0  0  0  0  0  0  0  # atno 13525 bound_to 9003
  117.2271  246.5584  319.2017 LP  0  0  0  0  0  0  0  0  0  0  0  0  # atno 13526 bound_to 9003
  120.4018  244.1543  319.0272 LP  0  0  0  0  0  0  0  0  0  0  0  0  # atno 13527 bound_to 9055
  121.8497  242.6149  318.3680 LP  0  0  0  0  0  0  0  0  0  0  0  0  # atno 13528 bound_to 9058
  122.4835  241.3593  319.3788 LP  0  0  0  0  0  0  0  0  0  0  0  0  # atno 13529 bound_to 9058
  123.4903  243.1208  320.6319 LP  0  0  0  0  0  0  0  0  0  0  0  0  # atno 13530 bound_to 9079
  122.9650  242.4562  324.6493 LP  0  0  0  0  0  0  0  0  0  0  0  0  # atno 13531 bound_to 9082
  121.5983  242.9684  323.7167 LP  0  0  0  0  0  0  0  0  0  0  0  0  # atno 13532 bound_to 9082
  121.5740  240.3279  322.8580 LP  0  0  0  0  0  0  0  0  0  0  0  0  # atno 13533 bound_to 9125
  124.1112  239.3818  325.2106 LP  0  0  0  0  0  0  0  0  0  0  0  0  # atno 13534 bound_to 9128
  123.9270  238.7577  326.8158 LP  0  0  0  0  0  0  0  0  0  0  0  0  # atno 13535 bound_to 9128
  114.9059  239.8870  323.5601 LP  0  0  0  0  0  0  0  0  0  0  0  0  # atno 13536 bound_to 9136
  114.6411  238.4446  324.2785 LP  0  0  0  0  0  0  0  0  0  0  0  0  # atno 13537 bound_to 9136
  122.0956  239.8014  326.4518 LP  0  0  0  0  0  0  0  0  0  0  0  0  # atno 13538 bound_to 9163
  119.9748  239.7495  328.5127 LP  0  0  0  0  0  0  0  0  0  0  0  0  # atno 13539 bound_to 9166
  119.8276  238.1703  329.2087 LP  0  0  0  0  0  0  0  0  0  0  0  0  # atno 13540 bound_to 9166
  118.6212  239.4019  331.2972 LP  0  0  0  0  0  0  0  0  0  0  0  0  # atno 13541 bound_to 9240
  123.9583  249.2671  328.4542 LP  0  0  0  0  0  0  0  0  0  0  0  0  # atno 13550 bound_to 3636
  119.5031  247.7007  316.8797 LP  0  0  0  0  0  0  0  0  0  0  0  0  # atno 13551 bound_to 9035
  122.4673  246.3972  317.9624 LP  0  0  0  0  0  0  0  0  0  0  0  0  # atno 13552 bound_to 9038
  121.2529  247.6320  317.9409 LP  0  0  0  0  0  0  0  0  0  0  0  0  # atno 13553 bound_to 9038
  120.0764  237.8645  320.7931 LP  0  0  0  0  0  0  0  0  0  0  0  0  # atno 13554 bound_to 8408
  121.2296  237.6534  319.5182 LP  0  0  0  0  0  0  0  0  0  0  0  0  # atno 13555 bound_to 8408
  116.0387  240.4222  317.9442 LP  0  0  0  0  0  0  0  0  0  0  0  0  # atno 13556 bound_to 8426
  115.7970  239.0841  319.0171 LP  0  0  0  0  0  0  0  0  0  0  0  0  # atno 13557 bound_to 8426
  122.1227  238.2564  328.5566 LP  0  0  0  0  0  0  0  0  0  0  0  0  # atno 13558 bound_to 9193
  124.8498  247.1990  319.9041 LP  0  0  0  0  0  0  0  0  0  0  0  0  # atno 13559 bound_to 4929
  126.2628  246.6060  319.3397 LP  0  0  0  0  0  0  0  0  0  0  0  0  # atno 13560 bound_to 4929
  119.4692  245.3210  315.1313 LP  0  0  0  0  0  0  0  0  0  0  0  0  # atno 13561 bound_to 9040
  120.3306  244.1097  315.8076 LP  0  0  0  0  0  0  0  0  0  0  0  0  # atno 13562 bound_to 9040
  113.3388  244.2858  317.4904 LP  0  0  0  0  0  0  0  0  0  0  0  0  # atno 13563 bound_to 8489
  112.4911  245.0618  318.7863 LP  0  0  0  0  0  0  0  0  0  0  0  0  # atno 13564 bound_to 8489
  113.8886  249.5152  319.1140 LP  0  0  0  0  0  0  0  0  0  0  0  0  # atno 13565 bound_to 8511
  114.0391  248.4848  317.7300 LP  0  0  0  0  0  0  0  0  0  0  0  0  # atno 13566 bound_to 8511
  115.4705  249.9023  317.3278 LP  0  0  0  0  0  0  0  0  0  0  0  0  # atno 13567 bound_to 9000
  111.1370  247.9044  319.7544 LP  0  0  0  0  0  0  0  0  0  0  0  0  # atno 13568 bound_to 8539
  118.2511  250.0802  331.7018 LP  0  0  0  0  0  0  0  0  0  0  0  0  # atno 13573 bound_to 3546
  119.7814  249.5461  331.0912 LP  0  0  0  0  0  0  0  0  0  0  0  0  # atno 13574 bound_to 3546
  110.7011  245.8106  320.6890 LP  0  0  0  0  0  0  0  0  0  0  0  0  # atno 13575 bound_to 5587
  109.6738  247.1190  320.2065 LP  0  0  0  0  0  0  0  0  0  0  0  0  # atno 13576 bound_to 5587
  119.4350  252.0058  329.8295 LP  0  0  0  0  0  0  0  0  0  0  0  0  # atno 13577 bound_to 3586
  122.4128  247.6707  316.3787 LP  0  0  0  0  0  0  0  0  0  0  0  0  # atno 13578 bound_to 4945
  120.4792  249.2049  316.5518 LP  0  0  0  0  0  0  0  0  0  0  0  0  # atno 13579 bound_to 4948
  119.7388  248.0755  315.4672 LP  0  0  0  0  0  0  0  0  0  0  0  0  # atno 13580 bound_to 4948
  112.0333  252.7587  329.8541 LP  0  0  0  0  0  0  0  0  0  0  0  0  # atno 13581 bound_to 12926
  111.1659  251.4276  329.4769 LP  0  0  0  0  0  0  0  0  0  0  0  0  # atno 13582 bound_to 12926
  110.3954  249.7276  319.8204 LP  0  0  0  0  0  0  0  0  0  0  0  0  # atno 13583 bound_to 8563
  109.9925  252.0707  319.2881 LP  0  0  0  0  0  0  0  0  0  0  0  0  # atno 13584 bound_to 8591
  107.8126  243.6294  322.2025 LP  0  0  0  0  0  0  0  0  0  0  0  0  # atno 13585 bound_to 5589
  106.7071  243.5040  321.0072 LP  0  0  0  0  0  0  0  0  0  0  0  0  # atno 13586 bound_to 5589
  108.0810  253.0841  321.5651 LP  0  0  0  0  0  0  0  0  0  0  0  0  # atno 13587 bound_to 8566
  107.0066  252.6390  320.2816 LP  0  0  0  0  0  0  0  0  0  0  0  0  # atno 13588 bound_to 8566
  110.6481  256.6691  322.2359 LP  0  0  0  0  0  0  0  0  0  0  0  0  # atno 13589 bound_to 12885
  110.0420  255.2888  323.0888 LP  0  0  0  0  0  0  0  0  0  0  0  0  # atno 13590 bound_to 12885
  109.5703  257.6213  325.2721 LP  0  0  0  0  0  0  0  0  0  0  0  0  # atno 13591 bound_to 12915
  106.5933  255.8515  324.6136 LP  0  0  0  0  0  0  0  0  0  0  0  0  # atno 13593 bound_to 12954
  105.3162  253.8646  323.5243 LP  0  0  0  0  0  0  0  0  0  0  0  0  # atno 13594 bound_to 12957
  103.6172  253.5774  323.3484 LP  0  0  0  0  0  0  0  0  0  0  0  0  # atno 13595 bound_to 12957
  111.4159  255.5747  321.0482 LP  0  0  0  0  0  0  0  0  0  0  0  0  # atno 13596 bound_to 8625
  108.0417  258.2872  324.7362 LP  0  0  0  0  0  0  0  0  0  0  0  0  # atno 13597 bound_to 12918
  106.8620  258.2085  323.4704 LP  0  0  0  0  0  0  0  0  0  0  0  0  # atno 13598 bound_to 12918
  109.8132  250.5892  316.4211 LP  0  0  0  0  0  0  0  0  0  0  0  0  # atno 13601 bound_to 8542
  108.3348  249.8357  316.9178 LP  0  0  0  0  0  0  0  0  0  0  0  0  # atno 13602 bound_to 8542
  111.0372  253.6091  318.2096 LP  0  0  0  0  0  0  0  0  0  0  0  0  # atno 13603 bound_to 8594
  109.8489  254.8602  318.0590 LP  0  0  0  0  0  0  0  0  0  0  0  0  # atno 13604 bound_to 8594
  112.9438  258.4397  322.8347 LP  0  0  0  0  0  0  0  0  0  0  0  0  # atno 13605 bound_to 12882
  101.6922  241.5768  325.8501 LP  0  0  0  0  0  0  0  0  0  0  0  0  # atno 13616 bound_to 6182
  103.2847  241.8472  325.2249 LP  0  0  0  0  0  0  0  0  0  0  0  0  # atno 13617 bound_to 6182
  110.4577  236.0566  332.7377 LP  0  0  0  0  0  0  0  0  0  0  0  0  # atno 13618 bound_to 9359
  109.9285  237.6999  332.5980 LP  0  0  0  0  0  0  0  0  0  0  0  0  # atno 13619 bound_to 9359
  104.5055  239.8437  334.8552 LP  0  0  0  0  0  0  0  0  0  0  0  0  # atno 13622 bound_to 9544
  104.1836  240.2455  333.3055 LP  0  0  0  0  0  0  0  0  0  0  0  0  # atno 13623 bound_to 9544

> <Gold.Score>
     Fitness  S(hb_ext) S(vdw_ext)  S(hb_int)    S(int)      intcor
     44.53       1.52      31.80       0.00      -0.73      -0.76

> <Gold.Goldscore.Fitness>
44.5255

> <Gold.Goldscore.Internal.Vdw>
-1.0662

> <Gold.Goldscore.Internal.Torsion>
-0.4181

> <Gold.Goldscore.External.Vdw>
31.8045

> <Gold.Goldscore.Internal.HBond>
0.0000

> <Gold.Goldscore.External.HBond>
1.5201

> <Gold.Goldscore.Internal.Correction>
-0.7585

> <Gold.Goldscore.Hbonds>
donor molecule, donor type, donor heavy atom, donor atom, acceptor molecule, acceptor atom, score
      P1  H  9079  9093       L1    17  0.40
      L1  H    10    23       P1  8463  0.36

> <Gold.Goldscore.Internal.Vdw.Weighted>
-1.0662

> <Gold.Goldscore.Internal.Torsion.Weighted>
-0.4181

> <Gold.Goldscore.External.Vdw.Weighted>
43.7311

> <Gold.Goldscore.Internal.HBond.Weighted>
0.0000

> <Gold.Goldscore.External.HBond.Weighted>
1.5201

> <Gold.Goldscore.Internal.Correction.Weighted>
-0.7585

> <Gold.Rescore>
     Score     S(PLP)   S(hbond)     S(cho)   S(metal)  DE(clash)   DE(tors)     intcor
     37.79     -31.24       1.75       0.00       0.46       0.00       0.73       ----

> <Gold.PLP.Fitness>
37.7891

> <Gold.PLP.PLP>
-31.2382

> <Gold.PLP.part.hbond>
-4.0000

> <Gold.PLP.part.metal>
0.0000

> <Gold.PLP.part.buried>
12.7320

> <Gold.PLP.part.nonpolar>
-43.0728

> <Gold.PLP.part.repulsive>
0.5744

> <Gold.PLP.ligand.clash>
0.0000

> <Gold.PLP.ligand.torsion>
0.7327

> <Gold.PLP.Chemscore.Hbond>
1.7520

> <Gold.PLP.Chemscore.CHOScore>
0.0000

> <Gold.PLP.Chemscore.Metal>
0.4600

> <Gold.Chemscore.Hbonds>
donor molecule, donor type, donor heavy atom, donor atom, acceptor molecule, acceptor atom, score
      L1  H    10    23       P1  8463  1.00
      P1  H  9079  9093       L1    17  0.91

> <Gold.PLP.Chemscore.Internal.Correction>
   9.000000E+99

