#       Name:                CT1002167954
#       Creating user name   hitesit
#       Creation time:       Sun Apr 16 02:24:27 2023


#       File generated by GOLD software.
#

@<TRIPOS>MOLECULE
CT1002167954|ligand_prepared|mol2|1|dock9
    29    30     1
SMALL
NO_CHARGES


@<TRIPOS>ATOM
      1 C1         111.2655 243.4822 328.2084 C.3            1 RES1               0.0000
      2 C2         112.5165 243.6225 327.3174 C.ar           1 RES1               0.0000
      3 C3         111.1877 242.0120 328.6093 C.2            1 RES1               0.0000
      4 C4         111.4670 244.4368 329.3801 C.2            1 RES1               0.0000
      5 C5         109.9467 243.8683 327.4990 C.3            1 RES1               0.0000
      6 C6         112.6267 244.6727 326.4108 C.ar           1 RES1               0.0000
      7 C7         113.5680 242.7129 327.3923 C.ar           1 RES1               0.0000
      8 N8         111.5192 241.6886 329.8921 N.am           1 RES1               0.0000
      9 O9         110.8786 241.1449 327.8015 O.2            1 RES1               0.0000
     10 N10        111.6077 243.8966 330.6315 N.am           1 RES1               0.0000
     11 O11        111.5218 245.6510 329.2286 O.2            1 RES1               0.0000
     12 C12        108.6972 243.4316 328.2475 C.3            1 RES1               0.0000
     13 C13        113.7485 244.8102 325.6103 C.ar           1 RES1               0.0000
     14 C14        114.6889 242.8521 326.5907 C.ar           1 RES1               0.0000
     15 C15        111.6737 242.5644 330.9365 C.2            1 RES1               0.0000
     16 C16        114.7805 243.9004 325.6999 C.ar           1 RES1               0.0000
     17 O17        111.8565 242.1563 332.0799 O.2            1 RES1               0.0000
     18 H18        109.9197 244.9575 327.3721 H              1 RES1               0.0000
     19 H19        109.9368 243.4141 326.5004 H              1 RES1               0.0000
     20 H20        111.8236 245.3970 326.3245 H              1 RES1               0.0000
     21 H21        113.5172 241.8798 328.0851 H              1 RES1               0.0000
     22 H22        111.6657 240.7046 330.0934 H              1 RES1               0.0000
     23 H23        111.6688 244.5479 331.4076 H              1 RES1               0.0000
     24 H24        107.8006 243.7270 327.7068 H              1 RES1               0.0000
     25 H25        108.6786 242.3506 328.3695 H              1 RES1               0.0000
     26 H26        108.6616 243.8849 329.2360 H              1 RES1               0.0000
     27 H27        113.8151 245.6362 324.9099 H              1 RES1               0.0000
     28 H28        115.4984 242.1334 326.6642 H              1 RES1               0.0000
     29 H29        115.6594 244.0086 325.0730 H              1 RES1               0.0000
@<TRIPOS>BOND
    1    1    2 1     
    2    1    3 1     
    3    1    4 1     
    4    1    5 1     
    5    2    6 ar    
    6    2    7 ar    
    7    3    8 1     
    8    3    9 2     
    9    4   10 1     
   10    4   11 2     
   11    5   12 1     
   12    5   18 1     
   13    5   19 1     
   14    6   13 ar    
   15    6   20 1     
   16    7   14 ar    
   17    7   21 1     
   18    8   15 1     
   19    8   22 1     
   20   10   15 1     
   21   10   23 1     
   22   12   24 1     
   23   12   25 1     
   24   12   26 1     
   25   13   16 ar    
   26   13   27 1     
   27   14   16 ar    
   28   14   28 1     
   29   15   17 2     
   30   16   29 1     
@<TRIPOS>SUBSTRUCTURE
      1 RES1           1
@<TRIPOS>SET
DONOR_HYDROGENS      STATIC     ATOMS    <user>   **** ""
2 22 23
ATOM$RED        STATIC     ATOMS    COLORGROUP SYSTEM
2 22 23
@<TRIPOS>COMMENT
> <Gold.Version>
2022.3.0

> <Gold.Id.Protein>
unknown|5uo4_clean|pdb

> <Gold.Protein.RotatedTorsions>
[ 8496 8486 8487 8488 ] final  145.18 input   44.11 | X-H torsion
[ 8524 8508 8509 8510 ] final -166.54 input   97.60 | X-H torsion
[ 9059 9055 9056 9057 ] final  -44.87 input   32.84 | X-H torsion
[ 9093 9079 9080 9081 ] final   89.70 input   37.99 | X-H torsion
[ 9137 9125 9126 9127 ] final   87.73 input   94.90 | X-H torsion
[ 9145 9136 9135 9133 ] final -107.19 input   59.99 | X-H torsion
[ 9171 9163 9164 9165 ] final   38.63 input   93.81 | X-H torsion
[ 9249 9240 9241 9242 ] final   48.95 input  122.14 | X-H torsion
[ 3643 3636 3637 3638 ] final -148.12 input   81.24 | X-H torsion
[ 9041 9035 9036 9037 ] final  -97.01 input   40.99 | X-H torsion
[ 9197 9193 9194 9195 ] final   48.89 input  127.52 | X-H torsion
[ 4934 4929 4928 4925 ] final   43.17 input   60.01 | X-H torsion
[ 9045 9040 9039 9036 ] final -149.68 input   60.00 | X-H torsion
[ 9011 9000 9001 9002 ] final -148.60 input   48.35 | X-H torsion
[ 8550 8539 8540 8541 ] final  -37.35 input   52.79 | X-H torsion
[ 3595 3586 3587 3588 ] final  -55.48 input   78.24 | X-H torsion
[ 4950 4945 4946 4947 ] final  -76.84 input   25.62 | X-H torsion
[ 12935 12926 12925 12923 ] final  -77.75 input   60.03 | X-H torsion
[ 8577 8563 8564 8565 ] final   -4.92 input   67.96 | X-H torsion
[ 8608 8591 8592 8593 ] final   93.42 input   87.41 | X-H torsion
[ 5599 5589 5588 5585 ] final -176.53 input   60.01 | X-H torsion
[ 12927 12915 12916 12917 ] final    6.49 input  110.33 | X-H torsion
[ 12963 12954 12955 12956 ] final  -90.32 input   33.30 | X-H torsion
[ 8644 8625 8626 8627 ] final -163.34 input   62.93 | X-H torsion
[ 12891 12882 12883 12884 ] final  119.24 input   63.10 | X-H torsion
[ 9549 9544 9543 9540 ] final  119.34 input   60.00 | X-H torsion
[ 3623 3607 3608 3609 ] final  173.11 input  103.98 | X-H torsion
[ 9277 9269 9270 9271 ] final  111.50 input   95.60 | X-H torsion
[ 11113 11106 11107 11108 ] final  -58.52 input   53.77 | X-H torsion
[ 13521 8463 8462 8461 ] final   24.02 input    0.00 | X-H torsion
[ 13525 9003 9002 9001 ] final   91.53 input    0.00 | X-H torsion
[ 13528 9058 9057 9056 ] final    6.03 input   -0.00 | X-H torsion
[ 13531 9082 9081 9080 ] final  -25.36 input   -0.00 | X-H torsion
[ 13534 9128 9127 9126 ] final   97.29 input   -0.00 | X-H torsion
[ 13539 9166 9165 9164 ] final   52.03 input   -0.00 | X-H torsion
[ 13552 9038 9037 9036 ] final    0.71 input    0.00 | X-H torsion
[ 13554 8408 8407 8406 ] final  -53.20 input    0.00 | X-H torsion
[ 13556 8426 8425 8424 ] final  -50.50 input   -0.00 | X-H torsion
[ 13563 8489 8488 8487 ] final  123.91 input    0.00 | X-H torsion
[ 13565 8511 8510 8509 ] final  -85.53 input    0.00 | X-H torsion
[ 13573 3546 3545 3544 ] final  -67.86 input    0.00 | X-H torsion
[ 13575 5587 5586 5585 ] final  123.20 input   -0.00 | X-H torsion
[ 13579 4948 4947 4946 ] final   17.69 input   -0.00 | X-H torsion
[ 13587 8566 8565 8564 ] final -100.04 input   -0.00 | X-H torsion
[ 13589 12885 12884 12883 ] final  -99.77 input   -0.00 | X-H torsion
[ 13594 12957 12956 12955 ] final   51.41 input    0.00 | X-H torsion
[ 13597 12918 12917 12916 ] final -174.50 input    0.00 | X-H torsion
[ 13601 8542 8541 8540 ] final   79.57 input    0.00 | X-H torsion
[ 13603 8594 8593 8592 ] final -102.00 input    0.00 | X-H torsion
[ 13616 6182 6181 6180 ] final  127.40 input   -0.00 | X-H torsion
[ 13618 9359 9358 9357 ] final  -99.25 input   -0.00 | X-H torsion

> <Gold.Protein.ActiveResidues>
 TRP311  MET341  HIS342  TRP414  ALA417  ARG419  CYS420  VAL421  GLY422  LEU429 
 LEU460  SER462  ALA463  ILE464  ARG478  SER482  GLN483  ARG486  ALA502  TYR567 
 GLY568  LEU569  PRO570  ALA571  VAL572  SER573  ASN574  MET575  LEU576  PRO588 
 PHE589  SER590  GLY591  TRP592  TYR593  MET594  GLY595  GLU597  ILE598  ARG601 
 ASP602  ASP605  SER607  ARG608  ILE653  VAL654  TRP683  PHE696  HIS697  PHE709 
 GLU710  TYR711  GLN712  PRO713  ASP714  HEM801  H4B802 

> <Gold.Protein.RotatedAtoms>
  120.2272  251.6371  331.0776 H   0  0  0  0  0  0  0  0  0  0  0  0  # atno 3595 bound_to 3586
  121.8576  249.3371  331.0543 H   0  0  0  0  0  0  0  0  0  0  0  0  # atno 3623 bound_to 3607
  124.3989  247.8550  329.3758 H   0  0  0  0  0  0  0  0  0  0  0  0  # atno 3643 bound_to 3636
  125.7065  245.8578  318.9111 H   0  0  0  0  0  0  0  0  0  0  0  0  # atno 4934 bound_to 4929
  123.4044  248.2229  316.2864 H   0  0  0  0  0  0  0  0  0  0  0  0  # atno 4950 bound_to 4945
  106.5590  243.7599  322.7751 H   0  0  0  0  0  0  0  0  0  0  0  0  # atno 5599 bound_to 5589
  116.2238  242.2952  318.9948 H   0  0  0  0  0  0  0  0  0  0  0  0  # atno 8496 bound_to 8486
  114.8838  245.3241  320.1452 H   0  0  0  0  0  0  0  0  0  0  0  0  # atno 8524 bound_to 8508
  111.6389  248.2793  319.7687 H   0  0  0  0  0  0  0  0  0  0  0  0  # atno 8550 bound_to 8539
  110.5068  250.0420  319.4075 H   0  0  0  0  0  0  0  0  0  0  0  0  # atno 8577 bound_to 8563
  110.7525  251.4906  319.9839 H   0  0  0  0  0  0  0  0  0  0  0  0  # atno 8608 bound_to 8591
  109.9849  255.0795  320.1763 H   0  0  0  0  0  0  0  0  0  0  0  0  # atno 8644 bound_to 8625
  115.7575  249.7302  316.0123 H   0  0  0  0  0  0  0  0  0  0  0  0  # atno 9011 bound_to 9000
  118.5090  247.9685  318.2246 H   0  0  0  0  0  0  0  0  0  0  0  0  # atno 9041 bound_to 9035
  119.5018  244.7268  315.1123 H   0  0  0  0  0  0  0  0  0  0  0  0  # atno 9045 bound_to 9040
  120.5866  244.2939  318.6690 H   0  0  0  0  0  0  0  0  0  0  0  0  # atno 9059 bound_to 9055
  123.6876  243.3577  321.4656 H   0  0  0  0  0  0  0  0  0  0  0  0  # atno 9093 bound_to 9079
  122.4415  239.2654  323.1348 H   0  0  0  0  0  0  0  0  0  0  0  0  # atno 9137 bound_to 9125
  114.9826  239.8300  323.2262 H   0  0  0  0  0  0  0  0  0  0  0  0  # atno 9145 bound_to 9136
  121.0173  240.4187  327.0429 H   0  0  0  0  0  0  0  0  0  0  0  0  # atno 9171 bound_to 9163
  122.5065  238.3594  330.2002 H   0  0  0  0  0  0  0  0  0  0  0  0  # atno 9197 bound_to 9193
  118.6070  238.0166  330.3144 H   0  0  0  0  0  0  0  0  0  0  0  0  # atno 9249 bound_to 9240
  117.5710  237.2226  328.7855 H   0  0  0  0  0  0  0  0  0  0  0  0  # atno 9277 bound_to 9269
  104.2708  240.1023  333.1653 H   0  0  0  0  0  0  0  0  0  0  0  0  # atno 9549 bound_to 9544
  125.8968  237.2298  326.6392 H   0  0  0  0  0  0  0  0  0  0  0  0  # atno 11113 bound_to 11106
  112.8848  258.4332  322.7823 H   0  0  0  0  0  0  0  0  0  0  0  0  # atno 12891 bound_to 12882
  109.6417  257.5747  324.8271 H   0  0  0  0  0  0  0  0  0  0  0  0  # atno 12927 bound_to 12915
  112.0547  252.4000  329.5041 H   0  0  0  0  0  0  0  0  0  0  0  0  # atno 12935 bound_to 12926
  106.6696  256.0109  324.5928 H   0  0  0  0  0  0  0  0  0  0  0  0  # atno 12963 bound_to 12954
  118.8816  243.1626  319.9285 LP  0  0  0  0  0  0  0  0  0  0  0  0  # atno 13521 bound_to 8463
  117.8488  244.5373  319.7200 LP  0  0  0  0  0  0  0  0  0  0  0  0  # atno 13522 bound_to 8463
  115.5047  243.1579  320.3331 LP  0  0  0  0  0  0  0  0  0  0  0  0  # atno 13523 bound_to 8486
  115.0361  246.4885  318.8516 LP  0  0  0  0  0  0  0  0  0  0  0  0  # atno 13524 bound_to 8508
  116.3173  246.7482  318.4321 LP  0  0  0  0  0  0  0  0  0  0  0  0  # atno 13525 bound_to 9003
  117.0546  247.6901  319.6848 LP  0  0  0  0  0  0  0  0  0  0  0  0  # atno 13526 bound_to 9003
  120.4273  245.6509  319.7639 LP  0  0  0  0  0  0  0  0  0  0  0  0  # atno 13527 bound_to 9055
  122.0479  242.6300  318.3054 LP  0  0  0  0  0  0  0  0  0  0  0  0  # atno 13528 bound_to 9058
  122.2853  241.3442  319.4414 LP  0  0  0  0  0  0  0  0  0  0  0  0  # atno 13529 bound_to 9058
  122.0342  243.1868  320.9281 LP  0  0  0  0  0  0  0  0  0  0  0  0  # atno 13530 bound_to 9079
  122.8679  243.1114  323.6859 LP  0  0  0  0  0  0  0  0  0  0  0  0  # atno 13531 bound_to 9082
  121.6954  242.3133  324.6801 LP  0  0  0  0  0  0  0  0  0  0  0  0  # atno 13532 bound_to 9082
  122.2397  240.9955  323.2836 LP  0  0  0  0  0  0  0  0  0  0  0  0  # atno 13533 bound_to 9125
  124.3847  239.8403  325.8626 LP  0  0  0  0  0  0  0  0  0  0  0  0  # atno 13534 bound_to 9128
  123.6535  238.2993  326.1638 LP  0  0  0  0  0  0  0  0  0  0  0  0  # atno 13535 bound_to 9128
  114.6328  238.7680  324.4085 LP  0  0  0  0  0  0  0  0  0  0  0  0  # atno 13536 bound_to 9136
  114.9482  238.2367  322.8969 LP  0  0  0  0  0  0  0  0  0  0  0  0  # atno 13537 bound_to 9136
  122.6604  240.7019  326.5199 LP  0  0  0  0  0  0  0  0  0  0  0  0  # atno 13538 bound_to 9163
  119.9745  239.1914  328.0294 LP  0  0  0  0  0  0  0  0  0  0  0  0  # atno 13539 bound_to 9166
  119.8279  238.7283  329.6919 LP  0  0  0  0  0  0  0  0  0  0  0  0  # atno 13540 bound_to 9166
  118.3742  239.2179  331.5622 LP  0  0  0  0  0  0  0  0  0  0  0  0  # atno 13541 bound_to 9240
  124.0389  249.3213  328.4987 LP  0  0  0  0  0  0  0  0  0  0  0  0  # atno 13550 bound_to 3636
  119.1731  247.5473  316.6649 LP  0  0  0  0  0  0  0  0  0  0  0  0  # atno 13551 bound_to 9035
  121.2426  247.4136  317.4939 LP  0  0  0  0  0  0  0  0  0  0  0  0  # atno 13552 bound_to 9038
  122.4776  246.6157  318.4094 LP  0  0  0  0  0  0  0  0  0  0  0  0  # atno 13553 bound_to 9038
  120.4065  237.3134  320.8562 LP  0  0  0  0  0  0  0  0  0  0  0  0  # atno 13554 bound_to 8408
  120.8995  238.2044  319.4551 LP  0  0  0  0  0  0  0  0  0  0  0  0  # atno 13555 bound_to 8408
  116.1415  239.9004  317.6570 LP  0  0  0  0  0  0  0  0  0  0  0  0  # atno 13556 bound_to 8426
  115.6942  239.6060  319.3042 LP  0  0  0  0  0  0  0  0  0  0  0  0  # atno 13557 bound_to 8426
  122.4903  238.0284  328.4835 LP  0  0  0  0  0  0  0  0  0  0  0  0  # atno 13558 bound_to 9193
  124.3917  246.5741  319.5475 LP  0  0  0  0  0  0  0  0  0  0  0  0  # atno 13559 bound_to 4929
  125.8732  247.2164  319.7905 LP  0  0  0  0  0  0  0  0  0  0  0  0  # atno 13560 bound_to 4929
  120.6996  244.4122  316.1677 LP  0  0  0  0  0  0  0  0  0  0  0  0  # atno 13561 bound_to 9040
  120.2409  245.9536  315.8844 LP  0  0  0  0  0  0  0  0  0  0  0  0  # atno 13562 bound_to 9040
  112.5594  244.5967  318.9242 LP  0  0  0  0  0  0  0  0  0  0  0  0  # atno 13563 bound_to 8489
  113.2706  244.7509  317.3524 LP  0  0  0  0  0  0  0  0  0  0  0  0  # atno 13564 bound_to 8489
  113.8467  249.5392  319.0894 LP  0  0  0  0  0  0  0  0  0  0  0  0  # atno 13565 bound_to 8511
  114.0810  248.4608  317.7545 LP  0  0  0  0  0  0  0  0  0  0  0  0  # atno 13566 bound_to 8511
  115.3846  248.8259  317.4606 LP  0  0  0  0  0  0  0  0  0  0  0  0  # atno 13567 bound_to 9000
  111.9013  246.8677  318.7772 LP  0  0  0  0  0  0  0  0  0  0  0  0  # atno 13568 bound_to 8539
  119.3265  249.9563  332.1922 LP  0  0  0  0  0  0  0  0  0  0  0  0  # atno 13573 bound_to 3546
  118.7060  249.6700  330.6007 LP  0  0  0  0  0  0  0  0  0  0  0  0  # atno 13574 bound_to 3546
  110.5360  245.8898  320.9936 LP  0  0  0  0  0  0  0  0  0  0  0  0  # atno 13575 bound_to 5587
  109.8390  247.0397  319.9019 LP  0  0  0  0  0  0  0  0  0  0  0  0  # atno 13576 bound_to 5587
  120.0301  252.5657  329.6101 LP  0  0  0  0  0  0  0  0  0  0  0  0  # atno 13577 bound_to 3586
  122.8357  246.7360  315.5651 LP  0  0  0  0  0  0  0  0  0  0  0  0  # atno 13578 bound_to 4945
  120.7663  248.1804  316.3359 LP  0  0  0  0  0  0  0  0  0  0  0  0  # atno 13579 bound_to 4948
  119.4517  249.1001  315.6831 LP  0  0  0  0  0  0  0  0  0  0  0  0  # atno 13580 bound_to 4948
  110.7974  251.4158  329.8195 LP  0  0  0  0  0  0  0  0  0  0  0  0  # atno 13581 bound_to 12926
  111.0654  252.7277  330.7542 LP  0  0  0  0  0  0  0  0  0  0  0  0  # atno 13582 bound_to 12926
  109.4355  248.7646  318.8890 LP  0  0  0  0  0  0  0  0  0  0  0  0  # atno 13583 bound_to 8563
  109.0816  251.9521  320.1724 LP  0  0  0  0  0  0  0  0  0  0  0  0  # atno 13584 bound_to 8591
  107.8469  243.5713  321.7985 LP  0  0  0  0  0  0  0  0  0  0  0  0  # atno 13585 bound_to 5589
  106.3367  243.5423  321.1778 LP  0  0  0  0  0  0  0  0  0  0  0  0  # atno 13586 bound_to 5589
  107.5683  253.3587  320.2146 LP  0  0  0  0  0  0  0  0  0  0  0  0  # atno 13587 bound_to 8566
  107.5193  252.3645  321.6321 LP  0  0  0  0  0  0  0  0  0  0  0  0  # atno 13588 bound_to 8566
  109.6796  256.4773  322.4200 LP  0  0  0  0  0  0  0  0  0  0  0  0  # atno 13589 bound_to 12885
  111.0106  255.4806  322.9048 LP  0  0  0  0  0  0  0  0  0  0  0  0  # atno 13590 bound_to 12885
  110.4758  256.2704  325.6395 LP  0  0  0  0  0  0  0  0  0  0  0  0  # atno 13591 bound_to 12915
  107.1697  255.1192  323.1737 LP  0  0  0  0  0  0  0  0  0  0  0  0  # atno 13593 bound_to 12954
  104.9724  253.9505  324.1009 LP  0  0  0  0  0  0  0  0  0  0  0  0  # atno 13594 bound_to 12957
  103.9610  253.4916  322.7718 LP  0  0  0  0  0  0  0  0  0  0  0  0  # atno 13595 bound_to 12957
  111.3650  255.6191  321.1066 LP  0  0  0  0  0  0  0  0  0  0  0  0  # atno 13596 bound_to 8625
  106.7183  258.2210  323.6437 LP  0  0  0  0  0  0  0  0  0  0  0  0  # atno 13597 bound_to 12918
  108.1854  258.2747  324.5629 LP  0  0  0  0  0  0  0  0  0  0  0  0  # atno 13598 bound_to 12918
  108.6321  249.4809  316.5294 LP  0  0  0  0  0  0  0  0  0  0  0  0  # atno 13601 bound_to 8542
  109.5158  250.9440  316.8095 LP  0  0  0  0  0  0  0  0  0  0  0  0  # atno 13602 bound_to 8542
  111.3037  254.3008  318.0644 LP  0  0  0  0  0  0  0  0  0  0  0  0  # atno 13603 bound_to 8594
  109.5824  254.1685  318.2043 LP  0  0  0  0  0  0  0  0  0  0  0  0  # atno 13604 bound_to 8594
  113.2006  256.8997  323.5615 LP  0  0  0  0  0  0  0  0  0  0  0  0  # atno 13605 bound_to 12882
  102.9431  241.7148  324.8004 LP  0  0  0  0  0  0  0  0  0  0  0  0  # atno 13616 bound_to 6182
  102.0339  241.7093  326.2746 LP  0  0  0  0  0  0  0  0  0  0  0  0  # atno 13617 bound_to 6182
  110.4819  236.0784  332.8319 LP  0  0  0  0  0  0  0  0  0  0  0  0  # atno 13618 bound_to 9359
  109.9043  237.6780  332.5039 LP  0  0  0  0  0  0  0  0  0  0  0  0  # atno 13619 bound_to 9359
  105.1085  238.8872  333.8510 LP  0  0  0  0  0  0  0  0  0  0  0  0  # atno 13622 bound_to 9544
  104.3883  240.0157  334.7861 LP  0  0  0  0  0  0  0  0  0  0  0  0  # atno 13623 bound_to 9544

> <Gold.Score>
     Fitness  S(hb_ext) S(vdw_ext)  S(hb_int)    S(int)      intcor
     30.45       7.02      17.75       0.00      -0.97      -0.76

> <Gold.Goldscore.Fitness>
30.4514

> <Gold.Goldscore.Internal.Vdw>
-1.0792

> <Gold.Goldscore.Internal.Torsion>
-0.6541

> <Gold.Goldscore.External.Vdw>
17.7496

> <Gold.Goldscore.Internal.HBond>
0.0000

> <Gold.Goldscore.External.HBond>
7.0204

> <Gold.Goldscore.Internal.Correction>
-0.7585

> <Gold.Goldscore.Hbonds>
donor molecule, donor type, donor heavy atom, donor atom, acceptor molecule, acceptor atom, score
      P1  H  9575  9586       L1     9  0.17
      L1  H    10    23       P1 13479  1.00

> <Gold.Goldscore.Internal.Vdw.Weighted>
-1.0792

> <Gold.Goldscore.Internal.Torsion.Weighted>
-0.6541

> <Gold.Goldscore.External.Vdw.Weighted>
24.4057

> <Gold.Goldscore.Internal.HBond.Weighted>
0.0000

> <Gold.Goldscore.External.HBond.Weighted>
7.0204

> <Gold.Goldscore.Internal.Correction.Weighted>
-0.7585

> <Gold.Rescore>
     Score     S(PLP)   S(hbond)     S(cho)   S(metal)  DE(clash)   DE(tors)     intcor
     14.25     -14.11       0.77       0.00       0.00       0.99       0.59       ----

> <Gold.PLP.Fitness>
14.2522

> <Gold.PLP.PLP>
-14.1150

> <Gold.PLP.part.hbond>
-3.3903

> <Gold.PLP.part.metal>
0.0000

> <Gold.PLP.part.buried>
-1.1751

> <Gold.PLP.part.nonpolar>
-14.1893

> <Gold.PLP.part.repulsive>
4.5279

> <Gold.PLP.ligand.clash>
0.9900

> <Gold.PLP.ligand.torsion>
0.5912

> <Gold.PLP.Chemscore.Hbond>
0.7699

> <Gold.PLP.Chemscore.CHOScore>
0.0000

> <Gold.PLP.Chemscore.Metal>
0.0000

> <Gold.Chemscore.Hbonds>
donor molecule, donor type, donor heavy atom, donor atom, acceptor molecule, acceptor atom, score
      L1  H    10    23       P1 13479  0.36
      P1  H  9575  9586       L1     9  1.00

> <Gold.PLP.Chemscore.Internal.Correction>
   9.000000E+99

