#       Name:                CT1002167954
#       Creating user name   hitesit
#       Creation time:       Sun Apr 16 02:24:23 2023


#       File generated by GOLD software.
#

@<TRIPOS>MOLECULE
CT1002167954|ligand_prepared|mol2|1|dock3
    29    30     1
SMALL
NO_CHARGES


@<TRIPOS>ATOM
      1 C1         117.8159 245.6771 324.2934 C.3            1 RES1               0.0000
      2 C2         116.7102 246.3257 325.1511 C.ar           1 RES1               0.0000
      3 C3         117.1194 245.0886 323.0700 C.2            1 RES1               0.0000
      4 C4         118.8104 246.7864 323.9695 C.2            1 RES1               0.0000
      5 C5         118.5823 244.5440 325.0147 C.3            1 RES1               0.0000
      6 C6         116.5668 247.7093 325.1941 C.ar           1 RES1               0.0000
      7 C7         115.8261 245.5548 325.9012 C.ar           1 RES1               0.0000
      8 N8         117.2767 245.7369 321.8805 N.am           1 RES1               0.0000
      9 O9         116.4106 244.0933 323.1554 O.2            1 RES1               0.0000
     10 N10        118.9389 247.1715 322.6607 N.am           1 RES1               0.0000
     11 O11        119.4718 247.3420 324.8379 O.2            1 RES1               0.0000
     12 C12        119.7898 244.0334 324.2443 C.3            1 RES1               0.0000
     13 C13        115.5736 248.3008 325.9570 C.ar           1 RES1               0.0000
     14 C14        114.8337 246.1484 326.6636 C.ar           1 RES1               0.0000
     15 C15        118.1949 246.7182 321.6056 C.2            1 RES1               0.0000
     16 C16        114.7062 247.5208 326.6918 C.ar           1 RES1               0.0000
     17 O17        118.3315 247.1525 320.4655 O.2            1 RES1               0.0000
     18 H18        118.9170 244.9111 325.9928 H              1 RES1               0.0000
     19 H19        117.8945 243.7072 325.1881 H              1 RES1               0.0000
     20 H20        117.2416 248.3393 324.6243 H              1 RES1               0.0000
     21 H21        115.9083 244.4732 325.8950 H              1 RES1               0.0000
     22 H22        116.6541 245.4671 321.1256 H              1 RES1               0.0000
     23 H23        119.6557 247.8598 322.4537 H              1 RES1               0.0000
     24 H24        120.2910 243.2399 324.7945 H              1 RES1               0.0000
     25 H25        119.4904 243.6376 323.2760 H              1 RES1               0.0000
     26 H26        120.5068 244.8343 324.0760 H              1 RES1               0.0000
     27 H27        115.4783 249.3814 325.9769 H              1 RES1               0.0000
     28 H28        114.1537 245.5307 327.2409 H              1 RES1               0.0000
     29 H29        113.9280 247.9844 327.2891 H              1 RES1               0.0000
@<TRIPOS>BOND
    1    1    2 1     
    2    1    3 1     
    3    1    4 1     
    4    1    5 1     
    5    2    6 ar    
    6    2    7 ar    
    7    3    8 1     
    8    3    9 2     
    9    4   10 1     
   10    4   11 2     
   11    5   12 1     
   12    5   18 1     
   13    5   19 1     
   14    6   13 ar    
   15    6   20 1     
   16    7   14 ar    
   17    7   21 1     
   18    8   15 1     
   19    8   22 1     
   20   10   15 1     
   21   10   23 1     
   22   12   24 1     
   23   12   25 1     
   24   12   26 1     
   25   13   16 ar    
   26   13   27 1     
   27   14   16 ar    
   28   14   28 1     
   29   15   17 2     
   30   16   29 1     
@<TRIPOS>SUBSTRUCTURE
      1 RES1           1
@<TRIPOS>SET
DONOR_HYDROGENS      STATIC     ATOMS    <user>   **** ""
2 22 23
ATOM$RED        STATIC     ATOMS    COLORGROUP SYSTEM
2 22 23
@<TRIPOS>COMMENT
> <Gold.Version>
2022.3.0

> <Gold.Id.Protein>
unknown|5uo4_clean|pdb

> <Gold.Protein.RotatedTorsions>
[ 8496 8486 8487 8488 ] final    9.91 input   44.11 | X-H torsion
[ 8524 8508 8509 8510 ] final  -16.99 input   97.60 | X-H torsion
[ 9059 9055 9056 9057 ] final  123.62 input   32.84 | X-H torsion
[ 9093 9079 9080 9081 ] final    7.91 input   37.99 | X-H torsion
[ 9137 9125 9126 9127 ] final   51.40 input   94.90 | X-H torsion
[ 9145 9136 9135 9133 ] final -160.41 input   59.99 | X-H torsion
[ 9171 9163 9164 9165 ] final -127.21 input   93.81 | X-H torsion
[ 9249 9240 9241 9242 ] final  -66.42 input  122.14 | X-H torsion
[ 3643 3636 3637 3638 ] final -119.59 input   81.24 | X-H torsion
[ 9041 9035 9036 9037 ] final  -44.00 input   40.99 | X-H torsion
[ 9197 9193 9194 9195 ] final -156.36 input  127.52 | X-H torsion
[ 4934 4929 4928 4925 ] final  -37.87 input   60.01 | X-H torsion
[ 9045 9040 9039 9036 ] final -133.61 input   60.00 | X-H torsion
[ 9011 9000 9001 9002 ] final   78.86 input   48.35 | X-H torsion
[ 8550 8539 8540 8541 ] final  104.90 input   52.79 | X-H torsion
[ 3595 3586 3587 3588 ] final   43.13 input   78.24 | X-H torsion
[ 4950 4945 4946 4947 ] final -134.71 input   25.62 | X-H torsion
[ 12935 12926 12925 12923 ] final  101.86 input   60.03 | X-H torsion
[ 8577 8563 8564 8565 ] final  -88.02 input   67.96 | X-H torsion
[ 8608 8591 8592 8593 ] final  -26.38 input   87.41 | X-H torsion
[ 5599 5589 5588 5585 ] final -173.26 input   60.01 | X-H torsion
[ 12927 12915 12916 12917 ] final -124.36 input  110.33 | X-H torsion
[ 12963 12954 12955 12956 ] final   52.83 input   33.30 | X-H torsion
[ 8644 8625 8626 8627 ] final -155.11 input   62.93 | X-H torsion
[ 12891 12882 12883 12884 ] final  -17.05 input   63.10 | X-H torsion
[ 9549 9544 9543 9540 ] final -152.43 input   60.00 | X-H torsion
[ 3623 3607 3608 3609 ] final -132.35 input  103.98 | X-H torsion
[ 9277 9269 9270 9271 ] final  -11.31 input   95.60 | X-H torsion
[ 11113 11106 11107 11108 ] final  170.47 input   53.77 | X-H torsion
[ 13521 8463 8462 8461 ] final   49.35 input    0.00 | X-H torsion
[ 13525 9003 9002 9001 ] final -167.37 input    0.00 | X-H torsion
[ 13528 9058 9057 9056 ] final  179.94 input   -0.00 | X-H torsion
[ 13531 9082 9081 9080 ] final -166.22 input   -0.00 | X-H torsion
[ 13534 9128 9127 9126 ] final -164.83 input   -0.00 | X-H torsion
[ 13539 9166 9165 9164 ] final  129.37 input   -0.00 | X-H torsion
[ 13552 9038 9037 9036 ] final   58.85 input    0.00 | X-H torsion
[ 13554 8408 8407 8406 ] final  -66.16 input    0.00 | X-H torsion
[ 13556 8426 8425 8424 ] final  -98.51 input   -0.00 | X-H torsion
[ 13563 8489 8488 8487 ] final  -26.82 input    0.00 | X-H torsion
[ 13565 8511 8510 8509 ] final  -44.53 input    0.00 | X-H torsion
[ 13573 3546 3545 3544 ] final  -99.44 input    0.00 | X-H torsion
[ 13575 5587 5586 5585 ] final   18.76 input   -0.00 | X-H torsion
[ 13579 4948 4947 4946 ] final  143.81 input   -0.00 | X-H torsion
[ 13587 8566 8565 8564 ] final   27.20 input   -0.00 | X-H torsion
[ 13589 12885 12884 12883 ] final -118.94 input   -0.00 | X-H torsion
[ 13594 12957 12956 12955 ] final  128.57 input    0.00 | X-H torsion
[ 13597 12918 12917 12916 ] final -110.52 input    0.00 | X-H torsion
[ 13601 8542 8541 8540 ] final   98.78 input    0.00 | X-H torsion
[ 13603 8594 8593 8592 ] final   39.78 input    0.00 | X-H torsion
[ 13616 6182 6181 6180 ] final -138.99 input   -0.00 | X-H torsion
[ 13618 9359 9358 9357 ] final  -38.96 input   -0.00 | X-H torsion

> <Gold.Protein.ActiveResidues>
 TRP311  MET341  HIS342  TRP414  ALA417  ARG419  CYS420  VAL421  GLY422  LEU429 
 LEU460  SER462  ALA463  ILE464  ARG478  SER482  GLN483  ARG486  ALA502  TYR567 
 GLY568  LEU569  PRO570  ALA571  VAL572  SER573  ASN574  MET575  LEU576  PRO588 
 PHE589  SER590  GLY591  TRP592  TYR593  MET594  GLY595  GLU597  ILE598  ARG601 
 ASP602  ASP605  SER607  ARG608  ILE653  VAL654  TRP683  PHE696  HIS697  PHE709 
 GLU710  TYR711  GLN712  PRO713  ASP714  HEM801  H4B802 

> <Gold.Protein.RotatedAtoms>
  120.8746  252.5786  330.3754 H   0  0  0  0  0  0  0  0  0  0  0  0  # atno 3595 bound_to 3586
  122.2027  250.0309  330.8022 H   0  0  0  0  0  0  0  0  0  0  0  0  # atno 3623 bound_to 3607
  124.7000  248.1372  329.5109 H   0  0  0  0  0  0  0  0  0  0  0  0  # atno 3643 bound_to 3636
  124.5455  246.0774  319.1982 H   0  0  0  0  0  0  0  0  0  0  0  0  # atno 4934 bound_to 4929
  123.9259  247.7906  315.7626 H   0  0  0  0  0  0  0  0  0  0  0  0  # atno 4950 bound_to 4945
  106.5101  243.7587  322.7534 H   0  0  0  0  0  0  0  0  0  0  0  0  # atno 5599 bound_to 5589
  115.0387  242.8503  319.9718 H   0  0  0  0  0  0  0  0  0  0  0  0  # atno 8496 bound_to 8486
  114.7597  246.1694  318.6709 H   0  0  0  0  0  0  0  0  0  0  0  0  # atno 8524 bound_to 8508
  111.3823  246.8291  318.9964 H   0  0  0  0  0  0  0  0  0  0  0  0  # atno 8550 bound_to 8539
  110.0360  249.8005  318.3656 H   0  0  0  0  0  0  0  0  0  0  0  0  # atno 8577 bound_to 8563
  109.5019  252.1442  319.4298 H   0  0  0  0  0  0  0  0  0  0  0  0  # atno 8608 bound_to 8591
  110.0698  255.0212  320.1014 H   0  0  0  0  0  0  0  0  0  0  0  0  # atno 8644 bound_to 8625
  115.4010  249.5195  317.5773 H   0  0  0  0  0  0  0  0  0  0  0  0  # atno 9011 bound_to 9000
  119.2773  248.1050  318.1215 H   0  0  0  0  0  0  0  0  0  0  0  0  # atno 9041 bound_to 9035
  119.4542  244.9831  315.0912 H   0  0  0  0  0  0  0  0  0  0  0  0  # atno 9045 bound_to 9040
  120.3827  245.5485  319.9049 H   0  0  0  0  0  0  0  0  0  0  0  0  # atno 9059 bound_to 9055
  122.6891  243.5063  322.0295 H   0  0  0  0  0  0  0  0  0  0  0  0  # atno 9093 bound_to 9079
  122.8892  239.4700  323.3845 H   0  0  0  0  0  0  0  0  0  0  0  0  # atno 9137 bound_to 9125
  114.7872  239.7195  324.0344 H   0  0  0  0  0  0  0  0  0  0  0  0  # atno 9145 bound_to 9136
  122.6687  240.4949  326.4575 H   0  0  0  0  0  0  0  0  0  0  0  0  # atno 9171 bound_to 9163
  122.8147  237.8482  328.5779 H   0  0  0  0  0  0  0  0  0  0  0  0  # atno 9197 bound_to 9193
  117.9619  238.3808  331.6124 H   0  0  0  0  0  0  0  0  0  0  0  0  # atno 9249 bound_to 9240
  116.7473  237.3441  330.1143 H   0  0  0  0  0  0  0  0  0  0  0  0  # atno 9277 bound_to 9269
  104.1644  240.3286  334.4447 H   0  0  0  0  0  0  0  0  0  0  0  0  # atno 9549 bound_to 9544
  126.3655  238.4893  325.7559 H   0  0  0  0  0  0  0  0  0  0  0  0  # atno 11113 bound_to 11106
  112.7903  256.8136  323.0627 H   0  0  0  0  0  0  0  0  0  0  0  0  # atno 12891 bound_to 12882
  110.5570  256.2529  324.9167 H   0  0  0  0  0  0  0  0  0  0  0  0  # atno 12927 bound_to 12915
  110.5597  251.9701  330.5473 H   0  0  0  0  0  0  0  0  0  0  0  0  # atno 12935 bound_to 12926
  106.8117  254.7923  323.4405 H   0  0  0  0  0  0  0  0  0  0  0  0  # atno 12963 bound_to 12954
  118.8410  243.1797  319.5513 LP  0  0  0  0  0  0  0  0  0  0  0  0  # atno 13521 bound_to 8463
  117.8894  244.5201  320.0972 LP  0  0  0  0  0  0  0  0  0  0  0  0  # atno 13522 bound_to 8463
  116.6645  242.6146  319.3769 LP  0  0  0  0  0  0  0  0  0  0  0  0  # atno 13523 bound_to 8486
  115.1575  245.6612  320.2945 LP  0  0  0  0  0  0  0  0  0  0  0  0  # atno 13524 bound_to 8508
  117.2988  246.6746  319.3376 LP  0  0  0  0  0  0  0  0  0  0  0  0  # atno 13525 bound_to 9003
  116.0732  247.7637  318.7792 LP  0  0  0  0  0  0  0  0  0  0  0  0  # atno 13526 bound_to 9003
  120.6242  244.4401  318.5711 LP  0  0  0  0  0  0  0  0  0  0  0  0  # atno 13527 bound_to 9055
  122.3741  241.3463  319.4177 LP  0  0  0  0  0  0  0  0  0  0  0  0  # atno 13528 bound_to 9058
  121.9590  242.6279  318.3291 LP  0  0  0  0  0  0  0  0  0  0  0  0  # atno 13529 bound_to 9058
  123.0110  243.0415  320.3766 LP  0  0  0  0  0  0  0  0  0  0  0  0  # atno 13530 bound_to 9079
  122.2271  242.2181  324.8920 LP  0  0  0  0  0  0  0  0  0  0  0  0  # atno 13531 bound_to 9082
  122.3363  243.2066  323.4740 LP  0  0  0  0  0  0  0  0  0  0  0  0  # atno 13532 bound_to 9082
  121.8034  240.7961  323.0402 LP  0  0  0  0  0  0  0  0  0  0  0  0  # atno 13533 bound_to 9125
  124.0860  239.0734  326.8766 LP  0  0  0  0  0  0  0  0  0  0  0  0  # atno 13534 bound_to 9128
  123.9522  239.0661  325.1498 LP  0  0  0  0  0  0  0  0  0  0  0  0  # atno 13535 bound_to 9128
  114.7065  238.1001  323.8967 LP  0  0  0  0  0  0  0  0  0  0  0  0  # atno 13536 bound_to 9136
  115.0713  239.0159  322.5949 LP  0  0  0  0  0  0  0  0  0  0  0  0  # atno 13537 bound_to 9136
  121.0460  240.6273  327.0923 LP  0  0  0  0  0  0  0  0  0  0  0  0  # atno 13538 bound_to 9163
  119.8832  238.1981  328.4492 LP  0  0  0  0  0  0  0  0  0  0  0  0  # atno 13539 bound_to 9166
  119.9192  239.7217  329.2722 LP  0  0  0  0  0  0  0  0  0  0  0  0  # atno 13540 bound_to 9166
  119.0041  238.8623  330.2947 LP  0  0  0  0  0  0  0  0  0  0  0  0  # atno 13541 bound_to 9240
  123.7432  249.0442  328.3660 LP  0  0  0  0  0  0  0  0  0  0  0  0  # atno 13550 bound_to 3636
  118.4197  247.4135  316.7660 LP  0  0  0  0  0  0  0  0  0  0  0  0  # atno 13551 bound_to 9035
  121.3928  247.6639  318.2833 LP  0  0  0  0  0  0  0  0  0  0  0  0  # atno 13552 bound_to 9038
  122.3274  246.3653  317.6200 LP  0  0  0  0  0  0  0  0  0  0  0  0  # atno 13553 bound_to 9038
  120.2835  237.4634  320.8810 LP  0  0  0  0  0  0  0  0  0  0  0  0  # atno 13554 bound_to 8408
  121.0225  238.0545  319.4303 LP  0  0  0  0  0  0  0  0  0  0  0  0  # atno 13555 bound_to 8408
  116.0126  240.4853  318.0279 LP  0  0  0  0  0  0  0  0  0  0  0  0  # atno 13556 bound_to 8426
  115.8231  239.0210  318.9333 LP  0  0  0  0  0  0  0  0  0  0  0  0  # atno 13557 bound_to 8426
  122.1901  238.5263  330.0636 LP  0  0  0  0  0  0  0  0  0  0  0  0  # atno 13558 bound_to 9193
  125.2730  247.3299  319.9388 LP  0  0  0  0  0  0  0  0  0  0  0  0  # atno 13559 bound_to 4929
  126.1619  246.2394  319.1099 LP  0  0  0  0  0  0  0  0  0  0  0  0  # atno 13560 bound_to 4929
  120.5593  244.2399  316.0259 LP  0  0  0  0  0  0  0  0  0  0  0  0  # atno 13561 bound_to 9040
  120.4292  245.8676  316.0475 LP  0  0  0  0  0  0  0  0  0  0  0  0  # atno 13562 bound_to 9040
  113.3380  244.3330  317.4638 LP  0  0  0  0  0  0  0  0  0  0  0  0  # atno 13563 bound_to 8489
  112.4920  245.0145  318.8129 LP  0  0  0  0  0  0  0  0  0  0  0  0  # atno 13564 bound_to 8489
  114.3129  249.1662  319.1969 LP  0  0  0  0  0  0  0  0  0  0  0  0  # atno 13565 bound_to 8511
  113.6148  248.8337  317.6470 LP  0  0  0  0  0  0  0  0  0  0  0  0  # atno 13566 bound_to 8511
  115.7328  249.0317  315.9322 LP  0  0  0  0  0  0  0  0  0  0  0  0  # atno 13567 bound_to 9000
  112.1542  248.2971  319.5384 LP  0  0  0  0  0  0  0  0  0  0  0  0  # atno 13568 bound_to 8539
  119.6915  249.7994  331.9387 LP  0  0  0  0  0  0  0  0  0  0  0  0  # atno 13573 bound_to 3546
  118.3411  249.8268  330.8543 LP  0  0  0  0  0  0  0  0  0  0  0  0  # atno 13574 bound_to 3546
  109.6317  246.9160  320.9351 LP  0  0  0  0  0  0  0  0  0  0  0  0  # atno 13575 bound_to 5587
  110.7432  246.0136  319.9603 LP  0  0  0  0  0  0  0  0  0  0  0  0  # atno 13576 bound_to 5587
  119.3982  251.6467  330.2955 LP  0  0  0  0  0  0  0  0  0  0  0  0  # atno 13577 bound_to 3586
  122.3272  247.1577  316.0759 LP  0  0  0  0  0  0  0  0  0  0  0  0  # atno 13578 bound_to 4945
  119.9113  249.4597  316.2077 LP  0  0  0  0  0  0  0  0  0  0  0  0  # atno 13579 bound_to 4948
  120.3067  247.8207  315.8112 LP  0  0  0  0  0  0  0  0  0  0  0  0  # atno 13580 bound_to 4948
  111.8224  252.9454  330.2259 LP  0  0  0  0  0  0  0  0  0  0  0  0  # atno 13581 bound_to 12926
  111.5455  251.6309  329.2975 LP  0  0  0  0  0  0  0  0  0  0  0  0  # atno 13582 bound_to 12926
  109.8978  249.0017  319.9120 LP  0  0  0  0  0  0  0  0  0  0  0  0  # atno 13583 bound_to 8563
  110.3198  251.3050  320.7210 LP  0  0  0  0  0  0  0  0  0  0  0  0  # atno 13584 bound_to 8591
  107.8526  243.5786  321.8516 LP  0  0  0  0  0  0  0  0  0  0  0  0  # atno 13585 bound_to 5589
  106.3803  243.5362  321.1466 LP  0  0  0  0  0  0  0  0  0  0  0  0  # atno 13586 bound_to 5589
  107.0427  252.1686  321.0604 LP  0  0  0  0  0  0  0  0  0  0  0  0  # atno 13587 bound_to 8566
  108.0449  253.5545  320.7863 LP  0  0  0  0  0  0  0  0  0  0  0  0  # atno 13588 bound_to 8566
  109.5354  256.2665  322.5540 LP  0  0  0  0  0  0  0  0  0  0  0  0  # atno 13589 bound_to 12885
  111.1548  255.6913  322.7707 LP  0  0  0  0  0  0  0  0  0  0  0  0  # atno 13590 bound_to 12885
  109.5835  257.5589  325.5522 LP  0  0  0  0  0  0  0  0  0  0  0  0  # atno 13591 bound_to 12915
  107.0316  256.3034  324.2934 LP  0  0  0  0  0  0  0  0  0  0  0  0  # atno 13593 bound_to 12954
  103.9039  253.7935  324.0905 LP  0  0  0  0  0  0  0  0  0  0  0  0  # atno 13594 bound_to 12957
  105.0296  253.6486  322.7822 LP  0  0  0  0  0  0  0  0  0  0  0  0  # atno 13595 bound_to 12957
  111.2826  255.6756  321.1794 LP  0  0  0  0  0  0  0  0  0  0  0  0  # atno 13596 bound_to 8625
  106.7164  258.2828  324.5592 LP  0  0  0  0  0  0  0  0  0  0  0  0  # atno 13597 bound_to 12918
  108.1873  258.2129  323.6474 LP  0  0  0  0  0  0  0  0  0  0  0  0  # atno 13598 bound_to 12918
  108.4530  249.6105  316.7154 LP  0  0  0  0  0  0  0  0  0  0  0  0  # atno 13601 bound_to 8542
  109.6949  250.8144  316.6235 LP  0  0  0  0  0  0  0  0  0  0  0  0  # atno 13602 bound_to 8542
  109.8149  253.6573  318.2828 LP  0  0  0  0  0  0  0  0  0  0  0  0  # atno 13603 bound_to 8594
  111.0712  254.8120  317.9859 LP  0  0  0  0  0  0  0  0  0  0  0  0  # atno 13604 bound_to 8594
  113.2924  258.4735  323.2891 LP  0  0  0  0  0  0  0  0  0  0  0  0  # atno 13605 bound_to 12882
  101.7480  241.4951  325.1442 LP  0  0  0  0  0  0  0  0  0  0  0  0  # atno 13616 bound_to 6182
  103.2289  241.9289  325.9308 LP  0  0  0  0  0  0  0  0  0  0  0  0  # atno 13617 bound_to 6182
  110.5047  236.6869  333.4529 LP  0  0  0  0  0  0  0  0  0  0  0  0  # atno 13618 bound_to 9359
  109.8815  237.0695  331.8828 LP  0  0  0  0  0  0  0  0  0  0  0  0  # atno 13619 bound_to 9359
  104.5376  239.6984  332.9914 LP  0  0  0  0  0  0  0  0  0  0  0  0  # atno 13622 bound_to 9544
  105.0663  238.9768  334.3576 LP  0  0  0  0  0  0  0  0  0  0  0  0  # atno 13623 bound_to 9544

> <Gold.Score>
     Fitness  S(hb_ext) S(vdw_ext)  S(hb_int)    S(int)      intcor
     49.95       0.27      37.36       0.00      -1.68      -0.76

> <Gold.Goldscore.Fitness>
49.9496

> <Gold.Goldscore.Internal.Vdw>
-1.9771

> <Gold.Goldscore.Internal.Torsion>
-0.4622

> <Gold.Goldscore.External.Vdw>
37.3552

> <Gold.Goldscore.Internal.HBond>
0.0000

> <Gold.Goldscore.External.HBond>
0.2672

> <Gold.Goldscore.Internal.Correction>
-0.7585

> <Gold.Goldscore.Hbonds>
donor molecule, donor type, donor heavy atom, donor atom, acceptor molecule, acceptor atom, score
      P1  H  9055  9059       L1    17  0.03
      L1  H     8    22       P1  8508  0.04

> <Gold.Goldscore.Internal.Vdw.Weighted>
-1.9771

> <Gold.Goldscore.Internal.Torsion.Weighted>
-0.4622

> <Gold.Goldscore.External.Vdw.Weighted>
51.3634

> <Gold.Goldscore.Internal.HBond.Weighted>
0.0000

> <Gold.Goldscore.External.HBond.Weighted>
0.2672

> <Gold.Goldscore.Internal.Correction.Weighted>
-0.7585

> <Gold.Rescore>
     Score     S(PLP)   S(hbond)     S(cho)   S(metal)  DE(clash)   DE(tors)     intcor
     50.74     -46.96       0.00       0.00       1.00       1.87       0.18       ----

> <Gold.PLP.Fitness>
50.7372

> <Gold.PLP.PLP>
-46.9570

> <Gold.PLP.part.hbond>
-1.9575

> <Gold.PLP.part.metal>
-0.9709

> <Gold.PLP.part.buried>
8.7874

> <Gold.PLP.part.nonpolar>
-62.4106

> <Gold.PLP.part.repulsive>
6.5135

> <Gold.PLP.ligand.clash>
1.8686

> <Gold.PLP.ligand.torsion>
0.1756

> <Gold.PLP.Chemscore.Hbond>
0.0000

> <Gold.PLP.Chemscore.CHOScore>
0.0000

> <Gold.PLP.Chemscore.Metal>
1.0000

> <Gold.Chemscore.Hbonds>
donor molecule, donor type, donor heavy atom, donor atom, acceptor molecule, acceptor atom, score
      P1  M 13387 13387       L1    11  1.00

> <Gold.PLP.Chemscore.Internal.Correction>
   9.000000E+99

