#       Name:                CT1002167954
#       Creating user name   hitesit
#       Creation time:       Sun Apr 16 02:24:28 2023


#       File generated by GOLD software.
#

@<TRIPOS>MOLECULE
CT1002167954|ligand_prepared|mol2|1|dock10
    29    30     1
SMALL
NO_CHARGES


@<TRIPOS>ATOM
      1 C1         112.4795 242.7957 327.9995 C.3            1 RES1               0.0000
      2 C2         111.8057 244.0414 327.3886 C.ar           1 RES1               0.0000
      3 C3         111.7739 241.5862 327.3934 C.2            1 RES1               0.0000
      4 C4         113.9593 242.8945 327.6458 C.2            1 RES1               0.0000
      5 C5         112.3609 242.7130 329.5392 C.3            1 RES1               0.0000
      6 C6         110.7556 244.6738 328.0474 C.ar           1 RES1               0.0000
      7 C7         112.2242 244.5703 326.1706 C.ar           1 RES1               0.0000
      8 N8         112.4486 240.8678 326.4508 N.am           1 RES1               0.0000
      9 O9         110.6278 241.2907 327.7088 O.2            1 RES1               0.0000
     10 N10        114.4824 241.9494 326.8027 N.am           1 RES1               0.0000
     11 O11        114.6731 243.7920 328.0762 O.2            1 RES1               0.0000
     12 C12        113.2922 241.6910 330.1719 C.3            1 RES1               0.0000
     13 C13        110.1477 245.7961 327.5095 C.ar           1 RES1               0.0000
     14 C14        111.6148 245.6926 325.6343 C.ar           1 RES1               0.0000
     15 C15        113.7872 240.9584 326.1648 C.2            1 RES1               0.0000
     16 C16        110.5771 246.3064 326.3030 C.ar           1 RES1               0.0000
     17 O17        114.3181 240.1796 325.3782 O.2            1 RES1               0.0000
     18 H18        112.5796 243.7006 329.9638 H              1 RES1               0.0000
     19 H19        111.3265 242.4574 329.8004 H              1 RES1               0.0000
     20 H20        110.4024 244.2851 328.9968 H              1 RES1               0.0000
     21 H21        113.0380 244.1032 325.6263 H              1 RES1               0.0000
     22 H22        111.9080 240.2017 325.9083 H              1 RES1               0.0000
     23 H23        115.4828 241.9880 326.6353 H              1 RES1               0.0000
     24 H24        113.1686 241.6736 331.2527 H              1 RES1               0.0000
     25 H25        113.0855 240.6930 329.7910 H              1 RES1               0.0000
     26 H26        114.3312 241.9288 329.9534 H              1 RES1               0.0000
     27 H27        109.3306 246.2747 328.0391 H              1 RES1               0.0000
     28 H28        111.9556 246.0904 324.6842 H              1 RES1               0.0000
     29 H29        110.1010 247.1858 325.8820 H              1 RES1               0.0000
@<TRIPOS>BOND
    1    1    2 1     
    2    1    3 1     
    3    1    4 1     
    4    1    5 1     
    5    2    6 ar    
    6    2    7 ar    
    7    3    8 1     
    8    3    9 2     
    9    4   10 1     
   10    4   11 2     
   11    5   12 1     
   12    5   18 1     
   13    5   19 1     
   14    6   13 ar    
   15    6   20 1     
   16    7   14 ar    
   17    7   21 1     
   18    8   15 1     
   19    8   22 1     
   20   10   15 1     
   21   10   23 1     
   22   12   24 1     
   23   12   25 1     
   24   12   26 1     
   25   13   16 ar    
   26   13   27 1     
   27   14   16 ar    
   28   14   28 1     
   29   15   17 2     
   30   16   29 1     
@<TRIPOS>SUBSTRUCTURE
      1 RES1           1
@<TRIPOS>SET
DONOR_HYDROGENS      STATIC     ATOMS    <user>   **** ""
2 22 23
ATOM$RED        STATIC     ATOMS    COLORGROUP SYSTEM
2 22 23
@<TRIPOS>COMMENT
> <Gold.Version>
2022.3.0

> <Gold.Id.Protein>
unknown|5uo4_clean|pdb

> <Gold.Protein.RotatedTorsions>
[ 8496 8486 8487 8488 ] final  148.61 input   44.11 | X-H torsion
[ 8524 8508 8509 8510 ] final  114.36 input   97.60 | X-H torsion
[ 9059 9055 9056 9057 ] final   87.91 input   32.84 | X-H torsion
[ 9093 9079 9080 9081 ] final -165.60 input   37.99 | X-H torsion
[ 9137 9125 9126 9127 ] final   -0.95 input   94.90 | X-H torsion
[ 9145 9136 9135 9133 ] final  178.35 input   59.99 | X-H torsion
[ 9171 9163 9164 9165 ] final -100.37 input   93.81 | X-H torsion
[ 9249 9240 9241 9242 ] final -139.51 input  122.14 | X-H torsion
[ 3643 3636 3637 3638 ] final -105.75 input   81.24 | X-H torsion
[ 9041 9035 9036 9037 ] final  101.34 input   40.99 | X-H torsion
[ 9197 9193 9194 9195 ] final  122.67 input  127.52 | X-H torsion
[ 4934 4929 4928 4925 ] final   47.55 input   60.01 | X-H torsion
[ 9045 9040 9039 9036 ] final  -29.56 input   60.00 | X-H torsion
[ 9011 9000 9001 9002 ] final  136.90 input   48.35 | X-H torsion
[ 8550 8539 8540 8541 ] final -100.73 input   52.79 | X-H torsion
[ 3595 3586 3587 3588 ] final -118.93 input   78.24 | X-H torsion
[ 4950 4945 4946 4947 ] final -140.61 input   25.62 | X-H torsion
[ 12935 12926 12925 12923 ] final   41.13 input   60.03 | X-H torsion
[ 8577 8563 8564 8565 ] final   84.61 input   67.96 | X-H torsion
[ 8608 8591 8592 8593 ] final   98.59 input   87.41 | X-H torsion
[ 5599 5589 5588 5585 ] final   13.49 input   60.01 | X-H torsion
[ 12927 12915 12916 12917 ] final   86.34 input  110.33 | X-H torsion
[ 12963 12954 12955 12956 ] final -129.88 input   33.30 | X-H torsion
[ 8644 8625 8626 8627 ] final  150.09 input   62.93 | X-H torsion
[ 12891 12882 12883 12884 ] final   65.52 input   63.10 | X-H torsion
[ 9549 9544 9543 9540 ] final  123.64 input   60.00 | X-H torsion
[ 3623 3607 3608 3609 ] final -136.27 input  103.98 | X-H torsion
[ 9277 9269 9270 9271 ] final  -93.93 input   95.60 | X-H torsion
[ 11113 11106 11107 11108 ] final  -92.20 input   53.77 | X-H torsion
[ 13521 8463 8462 8461 ] final   -4.04 input    0.00 | X-H torsion
[ 13525 9003 9002 9001 ] final  161.47 input    0.00 | X-H torsion
[ 13528 9058 9057 9056 ] final   96.95 input   -0.00 | X-H torsion
[ 13531 9082 9081 9080 ] final   68.72 input   -0.00 | X-H torsion
[ 13534 9128 9127 9126 ] final -122.42 input   -0.00 | X-H torsion
[ 13539 9166 9165 9164 ] final  164.63 input   -0.00 | X-H torsion
[ 13552 9038 9037 9036 ] final   52.06 input    0.00 | X-H torsion
[ 13554 8408 8407 8406 ] final  134.43 input    0.00 | X-H torsion
[ 13556 8426 8425 8424 ] final  -33.84 input   -0.00 | X-H torsion
[ 13563 8489 8488 8487 ] final  -12.88 input    0.00 | X-H torsion
[ 13565 8511 8510 8509 ] final   99.33 input    0.00 | X-H torsion
[ 13573 3546 3545 3544 ] final  -22.92 input    0.00 | X-H torsion
[ 13575 5587 5586 5585 ] final  144.29 input   -0.00 | X-H torsion
[ 13579 4948 4947 4946 ] final -142.31 input   -0.00 | X-H torsion
[ 13587 8566 8565 8564 ] final  160.16 input   -0.00 | X-H torsion
[ 13589 12885 12884 12883 ] final -145.10 input   -0.00 | X-H torsion
[ 13594 12957 12956 12955 ] final  126.58 input    0.00 | X-H torsion
[ 13597 12918 12917 12916 ] final  -53.51 input    0.00 | X-H torsion
[ 13601 8542 8541 8540 ] final  -29.68 input    0.00 | X-H torsion
[ 13603 8594 8593 8592 ] final -111.43 input    0.00 | X-H torsion
[ 13616 6182 6181 6180 ] final   78.10 input   -0.00 | X-H torsion
[ 13618 9359 9358 9357 ] final  109.45 input   -0.00 | X-H torsion

> <Gold.Protein.ActiveResidues>
 TRP311  MET341  HIS342  TRP414  ALA417  ARG419  CYS420  VAL421  GLY422  LEU429 
 LEU460  SER462  ALA463  ILE464  ARG478  SER482  GLN483  ARG486  ALA502  TYR567 
 GLY568  LEU569  PRO570  ALA571  VAL572  SER573  ASN574  MET575  LEU576  PRO588 
 PHE589  SER590  GLY591  TRP592  TYR593  MET594  GLY595  GLU597  ILE598  ARG601 
 ASP602  ASP605  SER607  ARG608  ILE653  VAL654  TRP683  PHE696  HIS697  PHE709 
 GLU710  TYR711  GLN712  PRO713  ASP714  HEM801  H4B802 

> <Gold.Protein.RotatedAtoms>
  119.4852  251.5299  330.5269 H   0  0  0  0  0  0  0  0  0  0  0  0  # atno 3595 bound_to 3586
  122.1741  249.9951  330.8421 H   0  0  0  0  0  0  0  0  0  0  0  0  # atno 3623 bound_to 3607
  124.8073  248.3196  329.5268 H   0  0  0  0  0  0  0  0  0  0  0  0  # atno 3643 bound_to 3636
  125.7702  245.8879  318.9232 H   0  0  0  0  0  0  0  0  0  0  0  0  # atno 4934 bound_to 4929
  123.9388  247.7184  315.7088 H   0  0  0  0  0  0  0  0  0  0  0  0  # atno 4950 bound_to 4945
  107.4130  243.4970  321.1381 H   0  0  0  0  0  0  0  0  0  0  0  0  # atno 5599 bound_to 5589
  116.2711  242.3123  319.0112 H   0  0  0  0  0  0  0  0  0  0  0  0  # atno 8496 bound_to 8486
  115.4601  246.2892  320.1147 H   0  0  0  0  0  0  0  0  0  0  0  0  # atno 8524 bound_to 8508
  112.4366  248.1395  319.3254 H   0  0  0  0  0  0  0  0  0  0  0  0  # atno 8550 bound_to 8539
  109.9673  249.0738  319.9653 H   0  0  0  0  0  0  0  0  0  0  0  0  # atno 8577 bound_to 8563
  110.7481  251.4587  320.0560 H   0  0  0  0  0  0  0  0  0  0  0  0  # atno 8608 bound_to 8591
  109.8096  255.4777  320.7274 H   0  0  0  0  0  0  0  0  0  0  0  0  # atno 8644 bound_to 8625
  115.5626  250.1226  316.9889 H   0  0  0  0  0  0  0  0  0  0  0  0  # atno 9011 bound_to 9000
  118.9121  247.4682  316.6063 H   0  0  0  0  0  0  0  0  0  0  0  0  # atno 9041 bound_to 9035
  120.2403  245.9464  315.8858 H   0  0  0  0  0  0  0  0  0  0  0  0  # atno 9045 bound_to 9040
  120.2252  245.0518  320.0692 H   0  0  0  0  0  0  0  0  0  0  0  0  # atno 9059 bound_to 9055
  122.9154  243.0276  320.3474 H   0  0  0  0  0  0  0  0  0  0  0  0  # atno 9093 bound_to 9079
  123.1293  240.1788  323.6080 H   0  0  0  0  0  0  0  0  0  0  0  0  # atno 9137 bound_to 9125
  114.7162  239.4769  324.2692 H   0  0  0  0  0  0  0  0  0  0  0  0  # atno 9145 bound_to 9136
  122.5130  240.1199  326.3998 H   0  0  0  0  0  0  0  0  0  0  0  0  # atno 9171 bound_to 9163
  123.2383  237.8218  329.6469 H   0  0  0  0  0  0  0  0  0  0  0  0  # atno 9197 bound_to 9193
  118.4449  239.3100  331.5023 H   0  0  0  0  0  0  0  0  0  0  0  0  # atno 9249 bound_to 9240
  116.0766  237.9266  329.3390 H   0  0  0  0  0  0  0  0  0  0  0  0  # atno 9277 bound_to 9269
  104.2407  240.1497  333.2077 H   0  0  0  0  0  0  0  0  0  0  0  0  # atno 9549 bound_to 9544
  126.2871  237.2875  326.3129 H   0  0  0  0  0  0  0  0  0  0  0  0  # atno 11113 bound_to 11106
  112.5273  257.7877  322.4695 H   0  0  0  0  0  0  0  0  0  0  0  0  # atno 12891 bound_to 12882
  109.6980  257.3223  325.9337 H   0  0  0  0  0  0  0  0  0  0  0  0  # atno 12927 bound_to 12915
  111.0800  252.7362  330.7443 H   0  0  0  0  0  0  0  0  0  0  0  0  # atno 12935 bound_to 12926
  107.0502  256.3427  324.2681 H   0  0  0  0  0  0  0  0  0  0  0  0  # atno 12963 bound_to 12954
  118.8110  243.2972  320.3199 LP  0  0  0  0  0  0  0  0  0  0  0  0  # atno 13521 bound_to 8463
  117.9194  244.4027  319.3286 LP  0  0  0  0  0  0  0  0  0  0  0  0  # atno 13522 bound_to 8463
  115.4585  243.1411  320.3170 LP  0  0  0  0  0  0  0  0  0  0  0  0  # atno 13523 bound_to 8486
  114.4720  245.5440  318.8815 LP  0  0  0  0  0  0  0  0  0  0  0  0  # atno 13524 bound_to 8508
  117.0782  246.4496  318.9954 LP  0  0  0  0  0  0  0  0  0  0  0  0  # atno 13525 bound_to 9003
  116.2937  247.9887  319.1214 LP  0  0  0  0  0  0  0  0  0  0  0  0  # atno 13526 bound_to 9003
  120.7761  244.9195  318.4125 LP  0  0  0  0  0  0  0  0  0  0  0  0  # atno 13527 bound_to 9055
  123.0125  241.9619  318.6894 LP  0  0  0  0  0  0  0  0  0  0  0  0  # atno 13528 bound_to 9058
  121.3207  242.0123  319.0574 LP  0  0  0  0  0  0  0  0  0  0  0  0  # atno 13529 bound_to 9058
  122.7895  243.5097  322.0218 LP  0  0  0  0  0  0  0  0  0  0  0  0  # atno 13530 bound_to 9079
  121.6078  242.9759  323.7072 LP  0  0  0  0  0  0  0  0  0  0  0  0  # atno 13531 bound_to 9082
  122.9556  242.4488  324.6588 LP  0  0  0  0  0  0  0  0  0  0  0  0  # atno 13532 bound_to 9082
  121.5694  240.1053  322.8225 LP  0  0  0  0  0  0  0  0  0  0  0  0  # atno 13533 bound_to 9125
  123.8133  238.5475  326.6727 LP  0  0  0  0  0  0  0  0  0  0  0  0  # atno 13534 bound_to 9128
  124.2249  239.5921  325.3538 LP  0  0  0  0  0  0  0  0  0  0  0  0  # atno 13535 bound_to 9128
  114.7766  238.0092  323.5688 LP  0  0  0  0  0  0  0  0  0  0  0  0  # atno 13536 bound_to 9136
  115.0727  239.3510  322.6864 LP  0  0  0  0  0  0  0  0  0  0  0  0  # atno 13537 bound_to 9136
  121.1982  240.9940  327.1487 LP  0  0  0  0  0  0  0  0  0  0  0  0  # atno 13538 bound_to 9163
  119.8408  238.1020  328.9632 LP  0  0  0  0  0  0  0  0  0  0  0  0  # atno 13539 bound_to 9166
  119.9617  239.8177  328.7582 LP  0  0  0  0  0  0  0  0  0  0  0  0  # atno 13540 bound_to 9166
  118.5324  237.9549  330.4022 LP  0  0  0  0  0  0  0  0  0  0  0  0  # atno 13541 bound_to 9240
  123.6379  248.8651  328.3504 LP  0  0  0  0  0  0  0  0  0  0  0  0  # atno 13550 bound_to 3636
  118.7778  248.0380  318.2519 LP  0  0  0  0  0  0  0  0  0  0  0  0  # atno 13551 bound_to 9035
  121.3445  247.6672  318.1929 LP  0  0  0  0  0  0  0  0  0  0  0  0  # atno 13552 bound_to 9038
  122.3758  246.3620  317.7104 LP  0  0  0  0  0  0  0  0  0  0  0  0  # atno 13553 bound_to 9038
  120.8208  238.2825  319.4865 LP  0  0  0  0  0  0  0  0  0  0  0  0  # atno 13554 bound_to 8408
  120.4852  237.2354  320.8248 LP  0  0  0  0  0  0  0  0  0  0  0  0  # atno 13555 bound_to 8408
  116.1533  239.6496  317.6537 LP  0  0  0  0  0  0  0  0  0  0  0  0  # atno 13556 bound_to 8426
  115.6824  239.8567  319.3076 LP  0  0  0  0  0  0  0  0  0  0  0  0  # atno 13557 bound_to 8426
  121.7775  238.5519  329.0224 LP  0  0  0  0  0  0  0  0  0  0  0  0  # atno 13558 bound_to 9193
  124.3872  246.5139  319.5083 LP  0  0  0  0  0  0  0  0  0  0  0  0  # atno 13559 bound_to 4929
  125.8135  247.2463  319.8175 LP  0  0  0  0  0  0  0  0  0  0  0  0  # atno 13560 bound_to 4929
  119.4978  244.7264  315.1062 LP  0  0  0  0  0  0  0  0  0  0  0  0  # atno 13561 bound_to 9040
  120.6987  244.4106  316.1667 LP  0  0  0  0  0  0  0  0  0  0  0  0  # atno 13562 bound_to 9040
  113.3321  244.1586  317.5810 LP  0  0  0  0  0  0  0  0  0  0  0  0  # atno 13563 bound_to 8489
  112.4979  245.1889  318.6957 LP  0  0  0  0  0  0  0  0  0  0  0  0  # atno 13564 bound_to 8489
  114.0241  248.4938  317.7219 LP  0  0  0  0  0  0  0  0  0  0  0  0  # atno 13565 bound_to 8511
  113.9036  249.5062  319.1221 LP  0  0  0  0  0  0  0  0  0  0  0  0  # atno 13566 bound_to 8511
  115.5750  248.4427  316.5068 LP  0  0  0  0  0  0  0  0  0  0  0  0  # atno 13567 bound_to 9000
  111.1151  247.0055  319.2141 LP  0  0  0  0  0  0  0  0  0  0  0  0  # atno 13568 bound_to 8539
  118.6817  250.0975  332.1429 LP  0  0  0  0  0  0  0  0  0  0  0  0  # atno 13573 bound_to 3546
  119.3508  249.5288  330.6500 LP  0  0  0  0  0  0  0  0  0  0  0  0  # atno 13574 bound_to 3546
  110.6869  245.8140  320.7252 LP  0  0  0  0  0  0  0  0  0  0  0  0  # atno 13575 bound_to 5587
  109.6881  247.1156  320.1702 LP  0  0  0  0  0  0  0  0  0  0  0  0  # atno 13576 bound_to 5587
  120.7543  252.6702  330.1476 LP  0  0  0  0  0  0  0  0  0  0  0  0  # atno 13577 bound_to 3586
  122.3146  247.2281  316.1284 LP  0  0  0  0  0  0  0  0  0  0  0  0  # atno 13578 bound_to 4945
  119.4111  248.8401  315.5374 LP  0  0  0  0  0  0  0  0  0  0  0  0  # atno 13579 bound_to 4948
  120.8069  248.4403  316.4816 LP  0  0  0  0  0  0  0  0  0  0  0  0  # atno 13580 bound_to 4948
  112.0578  252.3853  329.4914 LP  0  0  0  0  0  0  0  0  0  0  0  0  # atno 13581 bound_to 12926
  110.7863  251.4196  329.8337 LP  0  0  0  0  0  0  0  0  0  0  0  0  # atno 13582 bound_to 12926
  109.9653  249.7152  318.3414 LP  0  0  0  0  0  0  0  0  0  0  0  0  # atno 13583 bound_to 8563
  109.0860  251.9837  320.1010 LP  0  0  0  0  0  0  0  0  0  0  0  0  # atno 13584 bound_to 8591
  105.9719  243.6546  321.8772 LP  0  0  0  0  0  0  0  0  0  0  0  0  # atno 13585 bound_to 5589
  107.3514  243.7239  322.7483 LP  0  0  0  0  0  0  0  0  0  0  0  0  # atno 13586 bound_to 5589
  108.1414  253.2622  321.4053 LP  0  0  0  0  0  0  0  0  0  0  0  0  # atno 13587 bound_to 8566
  106.9462  252.4609  320.4414 LP  0  0  0  0  0  0  0  0  0  0  0  0  # atno 13588 bound_to 8566
  109.4851  255.9326  322.7532 LP  0  0  0  0  0  0  0  0  0  0  0  0  # atno 13589 bound_to 12885
  111.2051  256.0252  322.5715 LP  0  0  0  0  0  0  0  0  0  0  0  0  # atno 13590 bound_to 12885
  110.4209  256.5165  324.5608 LP  0  0  0  0  0  0  0  0  0  0  0  0  # atno 13591 bound_to 12915
  106.7998  254.7968  323.4892 LP  0  0  0  0  0  0  0  0  0  0  0  0  # atno 13593 bound_to 12954
  103.9267  253.8010  324.1086 LP  0  0  0  0  0  0  0  0  0  0  0  0  # atno 13594 bound_to 12957
  105.0068  253.6410  322.7641 LP  0  0  0  0  0  0  0  0  0  0  0  0  # atno 13595 bound_to 12957
  111.5350  255.2327  320.5721 LP  0  0  0  0  0  0  0  0  0  0  0  0  # atno 13596 bound_to 8625
  107.4349  258.3062  324.9672 LP  0  0  0  0  0  0  0  0  0  0  0  0  # atno 13597 bound_to 12918
  107.4688  258.1895  323.2394 LP  0  0  0  0  0  0  0  0  0  0  0  0  # atno 13598 bound_to 12918
  109.8042  250.1985  316.2040 LP  0  0  0  0  0  0  0  0  0  0  0  0  # atno 13601 bound_to 8542
  108.3438  250.2264  317.1349 LP  0  0  0  0  0  0  0  0  0  0  0  0  # atno 13602 bound_to 8542
  111.2794  254.4392  318.0406 LP  0  0  0  0  0  0  0  0  0  0  0  0  # atno 13603 bound_to 8594
  109.6068  254.0302  318.2281 LP  0  0  0  0  0  0  0  0  0  0  0  0  # atno 13604 bound_to 8594
  113.5479  257.5270  323.8655 LP  0  0  0  0  0  0  0  0  0  0  0  0  # atno 13605 bound_to 12882
  103.3256  241.8784  325.3908 LP  0  0  0  0  0  0  0  0  0  0  0  0  # atno 13616 bound_to 6182
  101.6513  241.5456  325.6842 LP  0  0  0  0  0  0  0  0  0  0  0  0  # atno 13617 bound_to 6182
  109.8467  237.4664  332.1349 LP  0  0  0  0  0  0  0  0  0  0  0  0  # atno 13618 bound_to 9359
  110.5395  236.2900  333.2008 LP  0  0  0  0  0  0  0  0  0  0  0  0  # atno 13619 bound_to 9359
  105.1019  238.8934  333.7807 LP  0  0  0  0  0  0  0  0  0  0  0  0  # atno 13622 bound_to 9544
  104.4252  239.9619  334.8136 LP  0  0  0  0  0  0  0  0  0  0  0  0  # atno 13623 bound_to 9544

> <Gold.Score>
     Fitness  S(hb_ext) S(vdw_ext)  S(hb_int)    S(int)      intcor
     29.80       5.58      18.03       0.00      -0.57      -0.76

> <Gold.Goldscore.Fitness>
29.8014

> <Gold.Goldscore.Internal.Vdw>
-0.6699

> <Gold.Goldscore.Internal.Torsion>
-0.6624

> <Gold.Goldscore.External.Vdw>
18.0309

> <Gold.Goldscore.Internal.HBond>
0.0000

> <Gold.Goldscore.External.HBond>
5.5827

> <Gold.Goldscore.Internal.Correction>
-0.7585

> <Gold.Goldscore.Hbonds>
donor molecule, donor type, donor heavy atom, donor atom, acceptor molecule, acceptor atom, score
      P1  H  5616  5632       L1    17  0.03
      P1  H  9136  9145       L1    17  0.82
      P1  H  9575  9586       L1     9  0.46
      L1  H    10    23       P1  9247  0.18

> <Gold.Goldscore.Internal.Vdw.Weighted>
-0.6699

> <Gold.Goldscore.Internal.Torsion.Weighted>
-0.6624

> <Gold.Goldscore.External.Vdw.Weighted>
24.7926

> <Gold.Goldscore.Internal.HBond.Weighted>
0.0000

> <Gold.Goldscore.External.HBond.Weighted>
5.5827

> <Gold.Goldscore.Internal.Correction.Weighted>
-0.7585

> <Gold.Rescore>
     Score     S(PLP)   S(hbond)     S(cho)   S(metal)  DE(clash)   DE(tors)     intcor
     18.29     -15.60       1.57       0.00       0.00       0.01       1.01       ----

> <Gold.PLP.Fitness>
18.2851

> <Gold.PLP.PLP>
-15.5985

> <Gold.PLP.part.hbond>
-5.0695

> <Gold.PLP.part.metal>
0.0000

> <Gold.PLP.part.buried>
-2.1229

> <Gold.PLP.part.nonpolar>
-15.3657

> <Gold.PLP.part.repulsive>
5.9735

> <Gold.PLP.ligand.clash>
0.0065

> <Gold.PLP.ligand.torsion>
1.0054

> <Gold.PLP.Chemscore.Hbond>
1.5680

> <Gold.PLP.Chemscore.CHOScore>
0.0000

> <Gold.PLP.Chemscore.Metal>
0.0000

> <Gold.Chemscore.Hbonds>
donor molecule, donor type, donor heavy atom, donor atom, acceptor molecule, acceptor atom, score
      L1  H    10    23       P1  9247  0.25
      P1  H  9136  9145       L1    17  0.42
      P1  H  9575  9586       L1     9  0.98

> <Gold.PLP.Chemscore.Internal.Correction>
   9.000000E+99

