#       Name:                CT1002167954
#       Creating user name   hitesit
#       Creation time:       Sun Apr 16 02:24:22 2023


#       File generated by GOLD software.
#

@<TRIPOS>MOLECULE
CT1002167954|ligand_prepared|mol2|1|dock2
    29    30     1
SMALL
NO_CHARGES


@<TRIPOS>ATOM
      1 C1         116.9973 245.8647 324.5352 C.3            1 RES1               0.0000
      2 C2         116.0505 247.0665 324.7308 C.ar           1 RES1               0.0000
      3 C3         116.8010 244.9626 325.7501 C.2            1 RES1               0.0000
      4 C4         116.6010 245.2205 323.2114 C.2            1 RES1               0.0000
      5 C5         118.4914 246.2541 324.4488 C.3            1 RES1               0.0000
      6 C6         114.8845 246.9355 325.4792 C.ar           1 RES1               0.0000
      7 C7         116.3304 248.3107 324.1722 C.ar           1 RES1               0.0000
      8 N8         116.1079 243.8020 325.5698 N.am           1 RES1               0.0000
      9 O9         117.2139 245.2835 326.8577 O.2            1 RES1               0.0000
     10 N10        116.0746 243.9558 323.2449 N.am           1 RES1               0.0000
     11 O11        116.7245 245.8031 322.1410 O.2            1 RES1               0.0000
     12 C12        119.4329 245.0618 324.3837 C.3            1 RES1               0.0000
     13 C13        114.0308 248.0102 325.6650 C.ar           1 RES1               0.0000
     14 C14        115.4752 249.3841 324.3590 C.ar           1 RES1               0.0000
     15 C15        115.7815 243.2293 324.3668 C.2            1 RES1               0.0000
     16 C16        114.3257 249.2352 325.1055 C.ar           1 RES1               0.0000
     17 O17        115.2581 242.1199 324.3178 O.2            1 RES1               0.0000
     18 H18        118.6438 246.8735 323.5563 H              1 RES1               0.0000
     19 H19        118.7497 246.8604 325.3258 H              1 RES1               0.0000
     20 H20        114.6346 245.9786 325.9251 H              1 RES1               0.0000
     21 H21        117.2285 248.4508 323.5802 H              1 RES1               0.0000
     22 H22        115.8041 243.3148 326.4069 H              1 RES1               0.0000
     23 H23        115.8835 243.5150 322.3507 H              1 RES1               0.0000
     24 H24        120.4683 245.3908 324.3242 H              1 RES1               0.0000
     25 H25        119.3261 244.4372 325.2681 H              1 RES1               0.0000
     26 H26        119.2209 244.4502 323.5091 H              1 RES1               0.0000
     27 H27        113.1267 247.8874 326.2522 H              1 RES1               0.0000
     28 H28        115.7110 250.3462 323.9163 H              1 RES1               0.0000
     29 H29        113.6570 250.0770 325.2516 H              1 RES1               0.0000
@<TRIPOS>BOND
    1    1    2 1     
    2    1    3 1     
    3    1    4 1     
    4    1    5 1     
    5    2    6 ar    
    6    2    7 ar    
    7    3    8 1     
    8    3    9 2     
    9    4   10 1     
   10    4   11 2     
   11    5   12 1     
   12    5   18 1     
   13    5   19 1     
   14    6   13 ar    
   15    6   20 1     
   16    7   14 ar    
   17    7   21 1     
   18    8   15 1     
   19    8   22 1     
   20   10   15 1     
   21   10   23 1     
   22   12   24 1     
   23   12   25 1     
   24   12   26 1     
   25   13   16 ar    
   26   13   27 1     
   27   14   16 ar    
   28   14   28 1     
   29   15   17 2     
   30   16   29 1     
@<TRIPOS>SUBSTRUCTURE
      1 RES1           1
@<TRIPOS>SET
DONOR_HYDROGENS      STATIC     ATOMS    <user>   **** ""
2 22 23
ATOM$RED        STATIC     ATOMS    COLORGROUP SYSTEM
2 22 23
@<TRIPOS>COMMENT
> <Gold.Version>
2022.3.0

> <Gold.Id.Protein>
unknown|5uo4_clean|pdb

> <Gold.Protein.RotatedTorsions>
[ 8496 8486 8487 8488 ] final  -32.27 input   44.11 | X-H torsion
[ 8524 8508 8509 8510 ] final   30.76 input   97.60 | X-H torsion
[ 9059 9055 9056 9057 ] final  112.41 input   32.84 | X-H torsion
[ 9093 9079 9080 9081 ] final  -22.04 input   37.99 | X-H torsion
[ 9137 9125 9126 9127 ] final -123.67 input   94.90 | X-H torsion
[ 9145 9136 9135 9133 ] final  116.56 input   59.99 | X-H torsion
[ 9171 9163 9164 9165 ] final   50.24 input   93.81 | X-H torsion
[ 9249 9240 9241 9242 ] final -124.73 input  122.14 | X-H torsion
[ 3643 3636 3637 3638 ] final -174.06 input   81.24 | X-H torsion
[ 9041 9035 9036 9037 ] final   63.93 input   40.99 | X-H torsion
[ 9197 9193 9194 9195 ] final  126.21 input  127.52 | X-H torsion
[ 4934 4929 4928 4925 ] final -122.37 input   60.01 | X-H torsion
[ 9045 9040 9039 9036 ] final -170.13 input   60.00 | X-H torsion
[ 9011 9000 9001 9002 ] final   10.82 input   48.35 | X-H torsion
[ 8550 8539 8540 8541 ] final   64.39 input   52.79 | X-H torsion
[ 3595 3586 3587 3588 ] final   36.11 input   78.24 | X-H torsion
[ 4950 4945 4946 4947 ] final -139.00 input   25.62 | X-H torsion
[ 12935 12926 12925 12923 ] final  -35.24 input   60.03 | X-H torsion
[ 8577 8563 8564 8565 ] final  156.25 input   67.96 | X-H torsion
[ 8608 8591 8592 8593 ] final -132.11 input   87.41 | X-H torsion
[ 5599 5589 5588 5585 ] final -127.33 input   60.01 | X-H torsion
[ 12927 12915 12916 12917 ] final   24.63 input  110.33 | X-H torsion
[ 12963 12954 12955 12956 ] final  150.06 input   33.30 | X-H torsion
[ 8644 8625 8626 8627 ] final -152.96 input   62.93 | X-H torsion
[ 12891 12882 12883 12884 ] final  -63.83 input   63.10 | X-H torsion
[ 9549 9544 9543 9540 ] final  -67.09 input   60.00 | X-H torsion
[ 3623 3607 3608 3609 ] final  136.98 input  103.98 | X-H torsion
[ 9277 9269 9270 9271 ] final -142.82 input   95.60 | X-H torsion
[ 11113 11106 11107 11108 ] final   16.94 input   53.77 | X-H torsion
[ 13521 8463 8462 8461 ] final   71.79 input    0.00 | X-H torsion
[ 13525 9003 9002 9001 ] final  -49.84 input    0.00 | X-H torsion
[ 13528 9058 9057 9056 ] final  -38.26 input   -0.00 | X-H torsion
[ 13531 9082 9081 9080 ] final -153.58 input   -0.00 | X-H torsion
[ 13534 9128 9127 9126 ] final   13.38 input   -0.00 | X-H torsion
[ 13539 9166 9165 9164 ] final   14.19 input   -0.00 | X-H torsion
[ 13552 9038 9037 9036 ] final  120.18 input    0.00 | X-H torsion
[ 13554 8408 8407 8406 ] final -160.64 input    0.00 | X-H torsion
[ 13556 8426 8425 8424 ] final  -39.50 input   -0.00 | X-H torsion
[ 13563 8489 8488 8487 ] final  148.23 input    0.00 | X-H torsion
[ 13565 8511 8510 8509 ] final  -26.59 input    0.00 | X-H torsion
[ 13573 3546 3545 3544 ] final  112.11 input    0.00 | X-H torsion
[ 13575 5587 5586 5585 ] final   65.91 input   -0.00 | X-H torsion
[ 13579 4948 4947 4946 ] final  -65.49 input   -0.00 | X-H torsion
[ 13587 8566 8565 8564 ] final   57.33 input   -0.00 | X-H torsion
[ 13589 12885 12884 12883 ] final   33.83 input   -0.00 | X-H torsion
[ 13594 12957 12956 12955 ] final  -16.74 input    0.00 | X-H torsion
[ 13597 12918 12917 12916 ] final  115.40 input    0.00 | X-H torsion
[ 13601 8542 8541 8540 ] final  -28.32 input    0.00 | X-H torsion
[ 13603 8594 8593 8592 ] final   34.84 input    0.00 | X-H torsion
[ 13616 6182 6181 6180 ] final  129.49 input   -0.00 | X-H torsion
[ 13618 9359 9358 9357 ] final  122.33 input   -0.00 | X-H torsion

> <Gold.Protein.ActiveResidues>
 TRP311  MET341  HIS342  TRP414  ALA417  ARG419  CYS420  VAL421  GLY422  LEU429 
 LEU460  SER462  ALA463  ILE464  ARG478  SER482  GLN483  ARG486  ALA502  TYR567 
 GLY568  LEU569  PRO570  ALA571  VAL572  SER573  ASN574  MET575  LEU576  PRO588 
 PHE589  SER590  GLY591  TRP592  TYR593  MET594  GLY595  GLU597  ILE598  ARG601 
 ASP602  ASP605  SER607  ARG608  ILE653  VAL654  TRP683  PHE696  HIS697  PHE709 
 GLU710  TYR711  GLN712  PRO713  ASP714  HEM801  H4B802 

> <Gold.Protein.RotatedAtoms>
  120.8949  252.5261  330.4679 H   0  0  0  0  0  0  0  0  0  0  0  0  # atno 3595 bound_to 3586
  121.7746  248.8409  330.8282 H   0  0  0  0  0  0  0  0  0  0  0  0  # atno 3623 bound_to 3607
  124.0844  247.7535  329.1584 H   0  0  0  0  0  0  0  0  0  0  0  0  # atno 3643 bound_to 3636
  124.7429  247.1253  319.8660 H   0  0  0  0  0  0  0  0  0  0  0  0  # atno 4934 bound_to 4929
  123.9361  247.7385  315.7233 H   0  0  0  0  0  0  0  0  0  0  0  0  # atno 4950 bound_to 4945
  106.0264  243.7008  322.2090 H   0  0  0  0  0  0  0  0  0  0  0  0  # atno 5599 bound_to 5589
  115.4614  243.1564  320.3342 H   0  0  0  0  0  0  0  0  0  0  0  0  # atno 8496 bound_to 8486
  115.1882  246.6231  319.0192 H   0  0  0  0  0  0  0  0  0  0  0  0  # atno 8524 bound_to 8508
  111.0068  247.1437  319.3573 H   0  0  0  0  0  0  0  0  0  0  0  0  # atno 8550 bound_to 8539
  109.4547  248.6804  319.1617 H   0  0  0  0  0  0  0  0  0  0  0  0  # atno 8577 bound_to 8563
  109.3135  251.6138  320.7084 H   0  0  0  0  0  0  0  0  0  0  0  0  # atno 8608 bound_to 8591
  110.0942  255.0070  320.0835 H   0  0  0  0  0  0  0  0  0  0  0  0  # atno 8644 bound_to 8625
  115.4190  248.5787  317.2719 H   0  0  0  0  0  0  0  0  0  0  0  0  # atno 9011 bound_to 9000
  119.4205  247.6464  316.7786 H   0  0  0  0  0  0  0  0  0  0  0  0  # atno 9041 bound_to 9035
  119.6342  244.4372  315.2074 H   0  0  0  0  0  0  0  0  0  0  0  0  # atno 9045 bound_to 9040
  120.3243  245.4077  319.9890 H   0  0  0  0  0  0  0  0  0  0  0  0  # atno 9059 bound_to 9055
  122.2775  243.4471  321.8414 H   0  0  0  0  0  0  0  0  0  0  0  0  # atno 9093 bound_to 9079
  121.8367  240.8580  323.0765 H   0  0  0  0  0  0  0  0  0  0  0  0  # atno 9137 bound_to 9125
  114.6406  238.5194  324.3149 H   0  0  0  0  0  0  0  0  0  0  0  0  # atno 9145 bound_to 9136
  121.0230  240.5900  327.0934 H   0  0  0  0  0  0  0  0  0  0  0  0  # atno 9171 bound_to 9163
  123.2496  237.8049  329.5960 H   0  0  0  0  0  0  0  0  0  0  0  0  # atno 9197 bound_to 9193
  118.3096  239.1690  331.6188 H   0  0  0  0  0  0  0  0  0  0  0  0  # atno 9249 bound_to 9240
  116.3534  237.9478  328.6541 H   0  0  0  0  0  0  0  0  0  0  0  0  # atno 9277 bound_to 9269
  104.8548  239.3095  334.7548 H   0  0  0  0  0  0  0  0  0  0  0  0  # atno 9549 bound_to 9544
  125.1700  237.9908  326.8881 H   0  0  0  0  0  0  0  0  0  0  0  0  # atno 11113 bound_to 11106
  113.2212  256.9029  323.6125 H   0  0  0  0  0  0  0  0  0  0  0  0  # atno 12891 bound_to 12882
  109.5711  257.6346  325.0905 H   0  0  0  0  0  0  0  0  0  0  0  0  # atno 12927 bound_to 12915
  111.9620  252.8512  330.0028 H   0  0  0  0  0  0  0  0  0  0  0  0  # atno 12935 bound_to 12926
  107.4826  255.9327  323.2950 H   0  0  0  0  0  0  0  0  0  0  0  0  # atno 12963 bound_to 12954
  118.7278  243.3033  319.2589 LP  0  0  0  0  0  0  0  0  0  0  0  0  # atno 13521 bound_to 8463
  118.0025  244.3966  320.3897 LP  0  0  0  0  0  0  0  0  0  0  0  0  # atno 13522 bound_to 8463
  116.2509  242.3151  319.0222 LP  0  0  0  0  0  0  0  0  0  0  0  0  # atno 13523 bound_to 8486
  114.7381  245.2172  319.9536 LP  0  0  0  0  0  0  0  0  0  0  0  0  # atno 13524 bound_to 8508
  116.6292  247.9911  319.4468 LP  0  0  0  0  0  0  0  0  0  0  0  0  # atno 13525 bound_to 9003
  116.7427  246.4472  318.6701 LP  0  0  0  0  0  0  0  0  0  0  0  0  # atno 13526 bound_to 9003
  120.6804  244.5760  318.4900 LP  0  0  0  0  0  0  0  0  0  0  0  0  # atno 13527 bound_to 9055
  121.4923  242.4577  318.6017 LP  0  0  0  0  0  0  0  0  0  0  0  0  # atno 13528 bound_to 9058
  122.8409  241.5165  319.1451 LP  0  0  0  0  0  0  0  0  0  0  0  0  # atno 13529 bound_to 9058
  123.4135  243.0994  320.5606 LP  0  0  0  0  0  0  0  0  0  0  0  0  # atno 13530 bound_to 9079
  122.4169  242.2355  324.8932 LP  0  0  0  0  0  0  0  0  0  0  0  0  # atno 13531 bound_to 9082
  122.1465  243.1892  323.4728 LP  0  0  0  0  0  0  0  0  0  0  0  0  # atno 13532 bound_to 9082
  122.8291  239.4434  323.3404 LP  0  0  0  0  0  0  0  0  0  0  0  0  # atno 13533 bound_to 9125
  123.9405  239.0419  325.1512 LP  0  0  0  0  0  0  0  0  0  0  0  0  # atno 13534 bound_to 9128
  124.0978  239.0977  326.8752 LP  0  0  0  0  0  0  0  0  0  0  0  0  # atno 13535 bound_to 9128
  115.0007  238.4376  322.7300 LP  0  0  0  0  0  0  0  0  0  0  0  0  # atno 13536 bound_to 9136
  114.9247  239.8866  323.4793 LP  0  0  0  0  0  0  0  0  0  0  0  0  # atno 13537 bound_to 9136
  122.6548  240.5343  326.4706 LP  0  0  0  0  0  0  0  0  0  0  0  0  # atno 13538 bound_to 9163
  119.9806  239.6536  328.3484 LP  0  0  0  0  0  0  0  0  0  0  0  0  # atno 13539 bound_to 9166
  119.8218  238.2661  329.3730 LP  0  0  0  0  0  0  0  0  0  0  0  0  # atno 13540 bound_to 9166
  118.6646  238.0926  330.2885 LP  0  0  0  0  0  0  0  0  0  0  0  0  # atno 13541 bound_to 9240
  124.3477  249.4210  328.7122 LP  0  0  0  0  0  0  0  0  0  0  0  0  # atno 13550 bound_to 3636
  118.2792  247.8631  318.0830 LP  0  0  0  0  0  0  0  0  0  0  0  0  # atno 13551 bound_to 9035
  122.0190  247.2680  318.7644 LP  0  0  0  0  0  0  0  0  0  0  0  0  # atno 13552 bound_to 9038
  121.7012  246.7613  317.1389 LP  0  0  0  0  0  0  0  0  0  0  0  0  # atno 13553 bound_to 9038
  120.1770  238.4819  320.1271 LP  0  0  0  0  0  0  0  0  0  0  0  0  # atno 13554 bound_to 8408
  121.1290  237.0360  320.1843 LP  0  0  0  0  0  0  0  0  0  0  0  0  # atno 13555 bound_to 8408
  116.1515  239.7349  317.6469 LP  0  0  0  0  0  0  0  0  0  0  0  0  # atno 13556 bound_to 8426
  115.6842  239.7715  319.3143 LP  0  0  0  0  0  0  0  0  0  0  0  0  # atno 13557 bound_to 8426
  121.7665  238.5684  329.0719 LP  0  0  0  0  0  0  0  0  0  0  0  0  # atno 13558 bound_to 9193
  126.2521  246.7181  319.4150 LP  0  0  0  0  0  0  0  0  0  0  0  0  # atno 13559 bound_to 4929
  124.9838  245.7952  318.9607 LP  0  0  0  0  0  0  0  0  0  0  0  0  # atno 13560 bound_to 4929
  120.8145  244.6990  316.2964 LP  0  0  0  0  0  0  0  0  0  0  0  0  # atno 13561 bound_to 9040
  119.9927  245.9585  315.6600 LP  0  0  0  0  0  0  0  0  0  0  0  0  # atno 13562 bound_to 9040
  112.4959  244.9472  318.8452 LP  0  0  0  0  0  0  0  0  0  0  0  0  # atno 13563 bound_to 8489
  113.3340  244.4004  317.4315 LP  0  0  0  0  0  0  0  0  0  0  0  0  # atno 13564 bound_to 8489
  114.4745  248.9639  319.1205 LP  0  0  0  0  0  0  0  0  0  0  0  0  # atno 13565 bound_to 8511
  113.4531  249.0360  317.7235 LP  0  0  0  0  0  0  0  0  0  0  0  0  # atno 13566 bound_to 8511
  115.7153  249.9505  316.2304 LP  0  0  0  0  0  0  0  0  0  0  0  0  # atno 13567 bound_to 9000
  112.5243  247.9870  319.1826 LP  0  0  0  0  0  0  0  0  0  0  0  0  # atno 13568 bound_to 8539
  118.7056  249.6701  330.6009 LP  0  0  0  0  0  0  0  0  0  0  0  0  # atno 13573 bound_to 3546
  119.3270  249.9561  332.1921 LP  0  0  0  0  0  0  0  0  0  0  0  0  # atno 13574 bound_to 3546
  109.9685  246.4215  321.2845 LP  0  0  0  0  0  0  0  0  0  0  0  0  # atno 13575 bound_to 5587
  110.4065  246.5081  319.6110 LP  0  0  0  0  0  0  0  0  0  0  0  0  # atno 13576 bound_to 5587
  119.3784  251.6980  330.2052 LP  0  0  0  0  0  0  0  0  0  0  0  0  # atno 13577 bound_to 3586
  122.3172  247.2085  316.1142 LP  0  0  0  0  0  0  0  0  0  0  0  0  # atno 13578 bound_to 4945
  119.9539  247.9114  315.5681 LP  0  0  0  0  0  0  0  0  0  0  0  0  # atno 13579 bound_to 4948
  120.2641  249.3690  316.4509 LP  0  0  0  0  0  0  0  0  0  0  0  0  # atno 13580 bound_to 4948
  111.3199  251.4891  329.3851 LP  0  0  0  0  0  0  0  0  0  0  0  0  # atno 13581 bound_to 12926
  110.6362  252.2001  330.6865 LP  0  0  0  0  0  0  0  0  0  0  0  0  # atno 13582 bound_to 12926
  110.4685  250.1015  319.1304 LP  0  0  0  0  0  0  0  0  0  0  0  0  # atno 13583 bound_to 8563
  110.5063  251.8302  319.4551 LP  0  0  0  0  0  0  0  0  0  0  0  0  # atno 13584 bound_to 8591
  107.6193  243.6845  322.5413 LP  0  0  0  0  0  0  0  0  0  0  0  0  # atno 13585 bound_to 5589
  107.1007  243.4886  321.0053 LP  0  0  0  0  0  0  0  0  0  0  0  0  # atno 13586 bound_to 5589
  107.2861  252.2132  321.4364 LP  0  0  0  0  0  0  0  0  0  0  0  0  # atno 13587 bound_to 8566
  107.8015  253.5099  320.4103 LP  0  0  0  0  0  0  0  0  0  0  0  0  # atno 13588 bound_to 8566
  111.2034  256.0391  322.5636 LP  0  0  0  0  0  0  0  0  0  0  0  0  # atno 13589 bound_to 12885
  109.4868  255.9188  322.7612 LP  0  0  0  0  0  0  0  0  0  0  0  0  # atno 13590 bound_to 12885
  110.5446  256.2120  325.3828 LP  0  0  0  0  0  0  0  0  0  0  0  0  # atno 13591 bound_to 12915
  106.3797  255.1953  324.4348 LP  0  0  0  0  0  0  0  0  0  0  0  0  # atno 13593 bound_to 12954
  105.2978  253.7860  323.2015 LP  0  0  0  0  0  0  0  0  0  0  0  0  # atno 13594 bound_to 12957
  103.6357  253.6561  323.6712 LP  0  0  0  0  0  0  0  0  0  0  0  0  # atno 13595 bound_to 12957
  111.2589  255.6894  321.1967 LP  0  0  0  0  0  0  0  0  0  0  0  0  # atno 13596 bound_to 8625
  107.6350  258.1898  323.2589 LP  0  0  0  0  0  0  0  0  0  0  0  0  # atno 13597 bound_to 12918
  107.2687  258.3059  324.9478 LP  0  0  0  0  0  0  0  0  0  0  0  0  # atno 13598 bound_to 12918
  109.7990  250.1801  316.1968 LP  0  0  0  0  0  0  0  0  0  0  0  0  # atno 13601 bound_to 8542
  108.3490  250.2448  317.1421 LP  0  0  0  0  0  0  0  0  0  0  0  0  # atno 13602 bound_to 8542
  109.8684  253.6055  318.2887 LP  0  0  0  0  0  0  0  0  0  0  0  0  # atno 13603 bound_to 8594
  111.0178  254.8638  317.9799 LP  0  0  0  0  0  0  0  0  0  0  0  0  # atno 13604 bound_to 8594
  112.8736  258.3868  322.7549 LP  0  0  0  0  0  0  0  0  0  0  0  0  # atno 13605 bound_to 12882
  102.9167  241.7068  324.7848 LP  0  0  0  0  0  0  0  0  0  0  0  0  # atno 13616 bound_to 6182
  102.0603  241.7172  326.2902 LP  0  0  0  0  0  0  0  0  0  0  0  0  # atno 13617 bound_to 6182
  109.8484  237.3198  332.0075 LP  0  0  0  0  0  0  0  0  0  0  0  0  # atno 13618 bound_to 9359
  110.5378  236.4366  333.3283 LP  0  0  0  0  0  0  0  0  0  0  0  0  # atno 13619 bound_to 9359
  104.0658  240.4536  333.9082 LP  0  0  0  0  0  0  0  0  0  0  0  0  # atno 13622 bound_to 9544
  104.8431  239.2475  333.1287 LP  0  0  0  0  0  0  0  0  0  0  0  0  # atno 13623 bound_to 9544

> <Gold.Score>
     Fitness  S(hb_ext) S(vdw_ext)  S(hb_int)    S(int)      intcor
     36.34       0.00      27.25       0.00      -1.12      -0.77

> <Gold.Goldscore.Fitness>
36.3397

> <Gold.Goldscore.Internal.Vdw>
-1.4765

> <Gold.Goldscore.Internal.Torsion>
-0.4130

> <Gold.Goldscore.External.Vdw>
27.2465

> <Gold.Goldscore.Internal.HBond>
0.0000

> <Gold.Goldscore.External.HBond>
0.0000

> <Gold.Goldscore.Internal.Correction>
-0.7653

> <Gold.Goldscore.Internal.Vdw.Weighted>
-1.4765

> <Gold.Goldscore.Internal.Torsion.Weighted>
-0.4130

> <Gold.Goldscore.External.Vdw.Weighted>
37.4640

> <Gold.Goldscore.Internal.HBond.Weighted>
0.0000

> <Gold.Goldscore.External.HBond.Weighted>
0.0000

> <Gold.Goldscore.Internal.Correction.Weighted>
-0.7653

> <Gold.Rescore>
     Score     S(PLP)   S(hbond)     S(cho)   S(metal)  DE(clash)   DE(tors)     intcor
     42.00     -43.41       0.30       0.00       0.00       1.27       0.53       ----

> <Gold.PLP.Fitness>
42.0048

> <Gold.PLP.PLP>
-43.4135

> <Gold.PLP.part.hbond>
-2.8714

> <Gold.PLP.part.metal>
0.0000

> <Gold.PLP.part.buried>
7.1991

> <Gold.PLP.part.nonpolar>
-54.4028

> <Gold.PLP.part.repulsive>
5.9825

> <Gold.PLP.ligand.clash>
1.2678

> <Gold.PLP.ligand.torsion>
0.5264

> <Gold.PLP.Chemscore.Hbond>
0.3040

> <Gold.PLP.Chemscore.CHOScore>
0.0000

> <Gold.PLP.Chemscore.Metal>
0.0000

> <Gold.Chemscore.Hbonds>
donor molecule, donor type, donor heavy atom, donor atom, acceptor molecule, acceptor atom, score
      L1  H     8    22       P1  9247  0.03

> <Gold.PLP.Chemscore.Internal.Correction>
   9.000000E+99

