#       Name:                CT1002167954
#       Creating user name   hitesit
#       Creation time:       Sun Apr 16 02:24:25 2023


#       File generated by GOLD software.
#

@<TRIPOS>MOLECULE
CT1002167954|ligand_prepared|mol2|1|dock6
    29    30     1
SMALL
NO_CHARGES


@<TRIPOS>ATOM
      1 C1         112.7015 242.8211 327.7478 C.3            1 RES1               0.0000
      2 C2         113.4660 243.9998 327.1114 C.ar           1 RES1               0.0000
      3 C3         111.4766 242.5812 326.8701 C.2            1 RES1               0.0000
      4 C4         113.6777 241.6507 327.7869 C.2            1 RES1               0.0000
      5 C5         112.2242 243.0937 329.1933 C.3            1 RES1               0.0000
      6 C6         113.0005 245.3039 327.2500 C.ar           1 RES1               0.0000
      7 C7         114.6377 243.7993 326.3863 C.ar           1 RES1               0.0000
      8 N8         111.4841 241.4831 326.0613 N.am           1 RES1               0.0000
      9 O9         110.5353 243.3648 326.8585 O.2            1 RES1               0.0000
     10 N10        113.3972 240.5544 327.0141 N.am           1 RES1               0.0000
     11 O11        114.6960 241.6746 328.4672 O.2            1 RES1               0.0000
     12 C12        111.6519 241.8698 329.8910 C.3            1 RES1               0.0000
     13 C13        113.6830 246.3694 326.6868 C.ar           1 RES1               0.0000
     14 C14        115.3186 244.8662 325.8237 C.ar           1 RES1               0.0000
     15 C15        112.3606 240.4301 326.1296 C.2            1 RES1               0.0000
     16 C16        114.8426 246.1514 325.9738 C.ar           1 RES1               0.0000
     17 O17        112.2052 239.4338 325.4292 O.2            1 RES1               0.0000
     18 H18        113.0712 243.4706 329.7796 H              1 RES1               0.0000
     19 H19        111.4572 243.8776 329.1700 H              1 RES1               0.0000
     20 H20        112.0883 245.4946 327.8056 H              1 RES1               0.0000
     21 H21        115.0302 242.7967 326.2545 H              1 RES1               0.0000
     22 H22        110.7724 241.4410 325.3389 H              1 RES1               0.0000
     23 H23        114.0185 239.7571 327.1069 H              1 RES1               0.0000
     24 H24        111.3323 242.1160 330.9014 H              1 RES1               0.0000
     25 H25        110.7918 241.4833 329.3483 H              1 RES1               0.0000
     26 H26        112.3962 241.0787 329.9543 H              1 RES1               0.0000
     27 H27        113.3035 247.3788 326.8066 H              1 RES1               0.0000
     28 H28        116.2305 244.6899 325.2629 H              1 RES1               0.0000
     29 H29        115.3773 246.9863 325.5330 H              1 RES1               0.0000
@<TRIPOS>BOND
    1    1    2 1     
    2    1    3 1     
    3    1    4 1     
    4    1    5 1     
    5    2    6 ar    
    6    2    7 ar    
    7    3    8 1     
    8    3    9 2     
    9    4   10 1     
   10    4   11 2     
   11    5   12 1     
   12    5   18 1     
   13    5   19 1     
   14    6   13 ar    
   15    6   20 1     
   16    7   14 ar    
   17    7   21 1     
   18    8   15 1     
   19    8   22 1     
   20   10   15 1     
   21   10   23 1     
   22   12   24 1     
   23   12   25 1     
   24   12   26 1     
   25   13   16 ar    
   26   13   27 1     
   27   14   16 ar    
   28   14   28 1     
   29   15   17 2     
   30   16   29 1     
@<TRIPOS>SUBSTRUCTURE
      1 RES1           1
@<TRIPOS>SET
DONOR_HYDROGENS      STATIC     ATOMS    <user>   **** ""
2 22 23
ATOM$RED        STATIC     ATOMS    COLORGROUP SYSTEM
2 22 23
@<TRIPOS>COMMENT
> <Gold.Version>
2022.3.0

> <Gold.Id.Protein>
unknown|5uo4_clean|pdb

> <Gold.Protein.RotatedTorsions>
[ 8496 8486 8487 8488 ] final   46.38 input   44.11 | X-H torsion
[ 8524 8508 8509 8510 ] final  -43.71 input   97.60 | X-H torsion
[ 9059 9055 9056 9057 ] final   99.65 input   32.84 | X-H torsion
[ 9093 9079 9080 9081 ] final -157.13 input   37.99 | X-H torsion
[ 9137 9125 9126 9127 ] final  -72.04 input   94.90 | X-H torsion
[ 9145 9136 9135 9133 ] final  158.68 input   59.99 | X-H torsion
[ 9171 9163 9164 9165 ] final   81.52 input   93.81 | X-H torsion
[ 9249 9240 9241 9242 ] final  149.24 input  122.14 | X-H torsion
[ 3643 3636 3637 3638 ] final  105.53 input   81.24 | X-H torsion
[ 9041 9035 9036 9037 ] final  -33.26 input   40.99 | X-H torsion
[ 9197 9193 9194 9195 ] final  109.69 input  127.52 | X-H torsion
[ 4934 4929 4928 4925 ] final  -35.26 input   60.01 | X-H torsion
[ 9045 9040 9039 9036 ] final  -27.03 input   60.00 | X-H torsion
[ 9011 9000 9001 9002 ] final   86.48 input   48.35 | X-H torsion
[ 8550 8539 8540 8541 ] final  -38.86 input   52.79 | X-H torsion
[ 3595 3586 3587 3588 ] final  -85.02 input   78.24 | X-H torsion
[ 4950 4945 4946 4947 ] final  163.34 input   25.62 | X-H torsion
[ 12935 12926 12925 12923 ] final  -38.83 input   60.03 | X-H torsion
[ 8577 8563 8564 8565 ] final -175.40 input   67.96 | X-H torsion
[ 8608 8591 8592 8593 ] final -111.07 input   87.41 | X-H torsion
[ 5599 5589 5588 5585 ] final  128.66 input   60.01 | X-H torsion
[ 12927 12915 12916 12917 ] final  164.95 input  110.33 | X-H torsion
[ 12963 12954 12955 12956 ] final  179.33 input   33.30 | X-H torsion
[ 8644 8625 8626 8627 ] final  145.71 input   62.93 | X-H torsion
[ 12891 12882 12883 12884 ] final   67.32 input   63.10 | X-H torsion
[ 9549 9544 9543 9540 ] final -163.49 input   60.00 | X-H torsion
[ 3623 3607 3608 3609 ] final -132.34 input  103.98 | X-H torsion
[ 9277 9269 9270 9271 ] final -139.45 input   95.60 | X-H torsion
[ 11113 11106 11107 11108 ] final  -46.25 input   53.77 | X-H torsion
[ 13521 8463 8462 8461 ] final -134.96 input    0.00 | X-H torsion
[ 13525 9003 9002 9001 ] final   19.55 input    0.00 | X-H torsion
[ 13528 9058 9057 9056 ] final   34.77 input   -0.00 | X-H torsion
[ 13531 9082 9081 9080 ] final  157.16 input   -0.00 | X-H torsion
[ 13534 9128 9127 9126 ] final -150.95 input   -0.00 | X-H torsion
[ 13539 9166 9165 9164 ] final   28.09 input   -0.00 | X-H torsion
[ 13552 9038 9037 9036 ] final   65.94 input    0.00 | X-H torsion
[ 13554 8408 8407 8406 ] final   69.73 input    0.00 | X-H torsion
[ 13556 8426 8425 8424 ] final -126.61 input   -0.00 | X-H torsion
[ 13563 8489 8488 8487 ] final   78.42 input    0.00 | X-H torsion
[ 13565 8511 8510 8509 ] final   -5.76 input    0.00 | X-H torsion
[ 13573 3546 3545 3544 ] final   91.50 input    0.00 | X-H torsion
[ 13575 5587 5586 5585 ] final -164.62 input   -0.00 | X-H torsion
[ 13579 4948 4947 4946 ] final  118.00 input   -0.00 | X-H torsion
[ 13587 8566 8565 8564 ] final  143.38 input   -0.00 | X-H torsion
[ 13589 12885 12884 12883 ] final  179.42 input   -0.00 | X-H torsion
[ 13594 12957 12956 12955 ] final  111.93 input    0.00 | X-H torsion
[ 13597 12918 12917 12916 ] final -171.98 input    0.00 | X-H torsion
[ 13601 8542 8541 8540 ] final   63.12 input    0.00 | X-H torsion
[ 13603 8594 8593 8592 ] final  -56.42 input    0.00 | X-H torsion
[ 13616 6182 6181 6180 ] final  -50.72 input   -0.00 | X-H torsion
[ 13618 9359 9358 9357 ] final   41.61 input   -0.00 | X-H torsion

> <Gold.Protein.ActiveResidues>
 TRP311  MET341  HIS342  TRP414  ALA417  ARG419  CYS420  VAL421  GLY422  LEU429 
 LEU460  SER462  ALA463  ILE464  ARG478  SER482  GLN483  ARG486  ALA502  TYR567 
 GLY568  LEU569  PRO570  ALA571  VAL572  SER573  ASN574  MET575  LEU576  PRO588 
 PHE589  SER590  GLY591  TRP592  TYR593  MET594  GLY595  GLU597  ILE598  ARG601 
 ASP602  ASP605  SER607  ARG608  ILE653  VAL654  TRP683  PHE696  HIS697  PHE709 
 GLU710  TYR711  GLN712  PRO713  ASP714  HEM801  H4B802 

> <Gold.Protein.RotatedAtoms>
  119.8354  251.4963  330.9043 H   0  0  0  0  0  0  0  0  0  0  0  0  # atno 3595 bound_to 3586
  122.2028  250.0310  330.8021 H   0  0  0  0  0  0  0  0  0  0  0  0  # atno 3623 bound_to 3607
  123.5156  248.4174  328.4309 H   0  0  0  0  0  0  0  0  0  0  0  0  # atno 3643 bound_to 3636
  124.5695  246.0494  319.1767 H   0  0  0  0  0  0  0  0  0  0  0  0  # atno 4934 bound_to 4929
  123.6440  247.0164  315.3747 H   0  0  0  0  0  0  0  0  0  0  0  0  # atno 4950 bound_to 4945
  107.4165  243.7168  322.7033 H   0  0  0  0  0  0  0  0  0  0  0  0  # atno 5599 bound_to 5589
  115.0137  242.5291  319.5229 H   0  0  0  0  0  0  0  0  0  0  0  0  # atno 8496 bound_to 8486
  114.5606  245.8154  318.7104 H   0  0  0  0  0  0  0  0  0  0  0  0  # atno 8524 bound_to 8508
  111.6604  248.2866  319.7635 H   0  0  0  0  0  0  0  0  0  0  0  0  # atno 8550 bound_to 8539
  109.4353  248.8151  318.7522 H   0  0  0  0  0  0  0  0  0  0  0  0  # atno 8577 bound_to 8563
  109.1404  251.7700  320.4893 H   0  0  0  0  0  0  0  0  0  0  0  0  # atno 8608 bound_to 8591
  109.8225  255.5154  320.7824 H   0  0  0  0  0  0  0  0  0  0  0  0  # atno 8644 bound_to 8625
  115.4152  249.6297  317.5392 H   0  0  0  0  0  0  0  0  0  0  0  0  # atno 9011 bound_to 9000
  119.4087  248.0983  318.0219 H   0  0  0  0  0  0  0  0  0  0  0  0  # atno 9041 bound_to 9035
  120.2706  245.9375  315.9124 H   0  0  0  0  0  0  0  0  0  0  0  0  # atno 9045 bound_to 9040
  120.2671  245.2281  320.0494 H   0  0  0  0  0  0  0  0  0  0  0  0  # atno 9059 bound_to 9055
  122.7849  243.0261  320.3481 H   0  0  0  0  0  0  0  0  0  0  0  0  # atno 9093 bound_to 9079
  122.5125  240.9826  323.4260 H   0  0  0  0  0  0  0  0  0  0  0  0  # atno 9137 bound_to 9125
  114.6672  239.1870  324.3952 H   0  0  0  0  0  0  0  0  0  0  0  0  # atno 9145 bound_to 9136
  121.2014  241.0264  327.1615 H   0  0  0  0  0  0  0  0  0  0  0  0  # atno 9171 bound_to 9163
  123.1733  237.8953  329.8215 H   0  0  0  0  0  0  0  0  0  0  0  0  # atno 9197 bound_to 9193
  118.9807  239.2847  330.6229 H   0  0  0  0  0  0  0  0  0  0  0  0  # atno 9249 bound_to 9240
  116.3191  237.9571  328.6928 H   0  0  0  0  0  0  0  0  0  0  0  0  # atno 9277 bound_to 9269
  104.1141  240.3957  334.2850 H   0  0  0  0  0  0  0  0  0  0  0  0  # atno 9549 bound_to 9544
  125.7435  237.2798  326.7374 H   0  0  0  0  0  0  0  0  0  0  0  0  # atno 11113 bound_to 11106
  112.5334  257.8149  322.4707 H   0  0  0  0  0  0  0  0  0  0  0  0  # atno 12891 bound_to 12882
  110.3428  256.4050  325.9069 H   0  0  0  0  0  0  0  0  0  0  0  0  # atno 12927 bound_to 12915
  111.9852  252.8243  329.9561 H   0  0  0  0  0  0  0  0  0  0  0  0  # atno 12935 bound_to 12926
  107.4278  256.2413  323.6154 H   0  0  0  0  0  0  0  0  0  0  0  0  # atno 12963 bound_to 12954
  117.8756  244.5325  320.0348 LP  0  0  0  0  0  0  0  0  0  0  0  0  # atno 13521 bound_to 8463
  118.8548  243.1673  319.6137 LP  0  0  0  0  0  0  0  0  0  0  0  0  # atno 13522 bound_to 8463
  116.6890  242.9290  319.8163 LP  0  0  0  0  0  0  0  0  0  0  0  0  # atno 13523 bound_to 8486
  115.3524  246.0076  320.2559 LP  0  0  0  0  0  0  0  0  0  0  0  0  # atno 13524 bound_to 8508
  116.0468  247.6890  318.7109 LP  0  0  0  0  0  0  0  0  0  0  0  0  # atno 13525 bound_to 9003
  117.3251  246.7493  319.4059 LP  0  0  0  0  0  0  0  0  0  0  0  0  # atno 13526 bound_to 9003
  120.7357  244.7493  318.4317 LP  0  0  0  0  0  0  0  0  0  0  0  0  # atno 13527 bound_to 9055
  122.4684  242.5436  318.2825 LP  0  0  0  0  0  0  0  0  0  0  0  0  # atno 13528 bound_to 9058
  121.8648  241.4305  319.4643 LP  0  0  0  0  0  0  0  0  0  0  0  0  # atno 13529 bound_to 9058
  122.9172  243.5112  322.0212 LP  0  0  0  0  0  0  0  0  0  0  0  0  # atno 13530 bound_to 9079
  121.7239  242.3008  324.7022 LP  0  0  0  0  0  0  0  0  0  0  0  0  # atno 13531 bound_to 9082
  122.8395  243.1238  323.6639 LP  0  0  0  0  0  0  0  0  0  0  0  0  # atno 13532 bound_to 9082
  122.1705  239.3220  322.9998 LP  0  0  0  0  0  0  0  0  0  0  0  0  # atno 13533 bound_to 9125
  123.9933  238.8866  326.8593 LP  0  0  0  0  0  0  0  0  0  0  0  0  # atno 13534 bound_to 9128
  124.0449  239.2529  325.1672 LP  0  0  0  0  0  0  0  0  0  0  0  0  # atno 13535 bound_to 9128
  114.8511  238.0387  323.2569 LP  0  0  0  0  0  0  0  0  0  0  0  0  # atno 13536 bound_to 9136
  115.0475  239.6134  322.8715 LP  0  0  0  0  0  0  0  0  0  0  0  0  # atno 13537 bound_to 9136
  122.4804  240.1077  326.4040 LP  0  0  0  0  0  0  0  0  0  0  0  0  # atno 13538 bound_to 9163
  119.9824  239.5094  328.1963 LP  0  0  0  0  0  0  0  0  0  0  0  0  # atno 13539 bound_to 9166
  119.8200  238.4103  329.5251 LP  0  0  0  0  0  0  0  0  0  0  0  0  # atno 13540 bound_to 9166
  118.0092  237.9795  331.2609 LP  0  0  0  0  0  0  0  0  0  0  0  0  # atno 13541 bound_to 9240
  124.9063  248.7691  329.4266 LP  0  0  0  0  0  0  0  0  0  0  0  0  # atno 13550 bound_to 3636
  118.2908  247.4200  316.8637 LP  0  0  0  0  0  0  0  0  0  0  0  0  # atno 13551 bound_to 9035
  121.4502  247.6508  318.3727 LP  0  0  0  0  0  0  0  0  0  0  0  0  # atno 13552 bound_to 9038
  122.2700  246.3784  317.5306 LP  0  0  0  0  0  0  0  0  0  0  0  0  # atno 13553 bound_to 9038
  121.2707  237.4825  319.6153 LP  0  0  0  0  0  0  0  0  0  0  0  0  # atno 13554 bound_to 8408
  120.0353  238.0354  320.6960 LP  0  0  0  0  0  0  0  0  0  0  0  0  # atno 13555 bound_to 8408
  115.8998  240.6162  318.4114 LP  0  0  0  0  0  0  0  0  0  0  0  0  # atno 13556 bound_to 8426
  115.9359  238.8901  318.5499 LP  0  0  0  0  0  0  0  0  0  0  0  0  # atno 13557 bound_to 8426
  121.8408  238.4804  328.8523 LP  0  0  0  0  0  0  0  0  0  0  0  0  # atno 13558 bound_to 9193
  125.2304  247.3247  319.9406 LP  0  0  0  0  0  0  0  0  0  0  0  0  # atno 13559 bound_to 4929
  126.1803  246.2727  319.1297 LP  0  0  0  0  0  0  0  0  0  0  0  0  # atno 13560 bound_to 4929
  119.4868  244.7660  315.0996 LP  0  0  0  0  0  0  0  0  0  0  0  0  # atno 13561 bound_to 9040
  120.6792  244.3800  316.1464 LP  0  0  0  0  0  0  0  0  0  0  0  0  # atno 13562 bound_to 9040
  112.8302  244.0247  318.7054 LP  0  0  0  0  0  0  0  0  0  0  0  0  # atno 13563 bound_to 8489
  112.9998  245.3229  317.5713 LP  0  0  0  0  0  0  0  0  0  0  0  0  # atno 13564 bound_to 8489
  114.5992  248.7347  318.9473 LP  0  0  0  0  0  0  0  0  0  0  0  0  # atno 13565 bound_to 8511
  113.3285  249.2653  317.8967 LP  0  0  0  0  0  0  0  0  0  0  0  0  # atno 13566 bound_to 8511
  115.7189  248.9240  315.9694 LP  0  0  0  0  0  0  0  0  0  0  0  0  # atno 13567 bound_to 9000
  111.8801  246.8606  318.7823 LP  0  0  0  0  0  0  0  0  0  0  0  0  # atno 13568 bound_to 8539
  118.4494  249.7705  330.7432 LP  0  0  0  0  0  0  0  0  0  0  0  0  # atno 13573 bound_to 3546
  119.5832  249.8558  332.0498 LP  0  0  0  0  0  0  0  0  0  0  0  0  # atno 13574 bound_to 3546
  110.7550  245.9862  320.0018 LP  0  0  0  0  0  0  0  0  0  0  0  0  # atno 13575 bound_to 5587
  109.6199  246.9433  320.8937 LP  0  0  0  0  0  0  0  0  0  0  0  0  # atno 13576 bound_to 5587
  120.4125  252.7031  329.7794 LP  0  0  0  0  0  0  0  0  0  0  0  0  # atno 13577 bound_to 3586
  122.6021  247.9128  316.4543 LP  0  0  0  0  0  0  0  0  0  0  0  0  # atno 13578 bound_to 4945
  120.2224  249.3905  316.4268 LP  0  0  0  0  0  0  0  0  0  0  0  0  # atno 13579 bound_to 4948
  119.9956  247.8899  315.5922 LP  0  0  0  0  0  0  0  0  0  0  0  0  # atno 13580 bound_to 4948
  111.2718  251.4669  329.4110 LP  0  0  0  0  0  0  0  0  0  0  0  0  # atno 13581 bound_to 12926
  110.6610  252.2494  330.7076 LP  0  0  0  0  0  0  0  0  0  0  0  0  # atno 13582 bound_to 12926
  110.4876  249.9692  319.5324 LP  0  0  0  0  0  0  0  0  0  0  0  0  # atno 13583 bound_to 8563
  110.6778  251.6755  319.6721 LP  0  0  0  0  0  0  0  0  0  0  0  0  # atno 13584 bound_to 8591
  107.3477  243.4914  321.0931 LP  0  0  0  0  0  0  0  0  0  0  0  0  # atno 13585 bound_to 5589
  105.9721  243.6656  321.9556 LP  0  0  0  0  0  0  0  0  0  0  0  0  # atno 13586 bound_to 5589
  108.0790  253.0796  321.5683 LP  0  0  0  0  0  0  0  0  0  0  0  0  # atno 13587 bound_to 8566
  107.0086  252.6435  320.2784 LP  0  0  0  0  0  0  0  0  0  0  0  0  # atno 13588 bound_to 8566
  109.6945  255.5080  322.9863 LP  0  0  0  0  0  0  0  0  0  0  0  0  # atno 13589 bound_to 12885
  110.9957  256.4499  322.3385 LP  0  0  0  0  0  0  0  0  0  0  0  0  # atno 13590 bound_to 12885
  109.7923  257.4107  324.5869 LP  0  0  0  0  0  0  0  0  0  0  0  0  # atno 13591 bound_to 12915
  106.4329  254.8954  324.1234 LP  0  0  0  0  0  0  0  0  0  0  0  0  # atno 13593 bound_to 12954
  104.1127  253.8531  324.2156 LP  0  0  0  0  0  0  0  0  0  0  0  0  # atno 13594 bound_to 12957
  104.8208  253.5890  322.6571 LP  0  0  0  0  0  0  0  0  0  0  0  0  # atno 13595 bound_to 12957
  111.5225  255.1962  320.5188 LP  0  0  0  0  0  0  0  0  0  0  0  0  # atno 13596 bound_to 8625
  106.6988  258.2233  323.6764 LP  0  0  0  0  0  0  0  0  0  0  0  0  # atno 13597 bound_to 12918
  108.2049  258.2724  324.5303 LP  0  0  0  0  0  0  0  0  0  0  0  0  # atno 13598 bound_to 12918
  108.8255  249.4343  316.3816 LP  0  0  0  0  0  0  0  0  0  0  0  0  # atno 13601 bound_to 8542
  109.3224  250.9906  316.9572 LP  0  0  0  0  0  0  0  0  0  0  0  0  # atno 13602 bound_to 8542
  111.1008  253.6744  318.1934 LP  0  0  0  0  0  0  0  0  0  0  0  0  # atno 13603 bound_to 8594
  109.7853  254.7949  318.0753 LP  0  0  0  0  0  0  0  0  0  0  0  0  # atno 13604 bound_to 8594
  113.5421  257.5005  323.8643 LP  0  0  0  0  0  0  0  0  0  0  0  0  # atno 13605 bound_to 12882
  102.0576  241.7164  326.2887 LP  0  0  0  0  0  0  0  0  0  0  0  0  # atno 13616 bound_to 6182
  102.9194  241.7076  324.7863 LP  0  0  0  0  0  0  0  0  0  0  0  0  # atno 13617 bound_to 6182
  110.0915  237.6477  333.0521 LP  0  0  0  0  0  0  0  0  0  0  0  0  # atno 13618 bound_to 9359
  110.2947  236.1088  332.2836 LP  0  0  0  0  0  0  0  0  0  0  0  0  # atno 13619 bound_to 9359
  104.6385  239.5475  332.9989 LP  0  0  0  0  0  0  0  0  0  0  0  0  # atno 13622 bound_to 9544
  105.0161  239.0601  334.5110 LP  0  0  0  0  0  0  0  0  0  0  0  0  # atno 13623 bound_to 9544

> <Gold.Score>
     Fitness  S(hb_ext) S(vdw_ext)  S(hb_int)    S(int)      intcor
     30.31       0.77      22.38       0.00      -1.23      -0.76

> <Gold.Goldscore.Fitness>
30.3091

> <Gold.Goldscore.Internal.Vdw>
-1.5153

> <Gold.Goldscore.Internal.Torsion>
-0.4754

> <Gold.Goldscore.External.Vdw>
22.3792

> <Gold.Goldscore.Internal.HBond>
0.0000

> <Gold.Goldscore.External.HBond>
0.7699

> <Gold.Goldscore.Internal.Correction>
-0.7585

> <Gold.Goldscore.Hbonds>
donor molecule, donor type, donor heavy atom, donor atom, acceptor molecule, acceptor atom, score
      P1  H  5616  5632       L1    17  0.03
      P1  H  9136  9145       L1    17  0.02
      P1  H  5731  5744       L1    17  0.06
      P1  H  9576  9588       L1    17  0.05

> <Gold.Goldscore.Internal.Vdw.Weighted>
-1.5153

> <Gold.Goldscore.Internal.Torsion.Weighted>
-0.4754

> <Gold.Goldscore.External.Vdw.Weighted>
30.7714

> <Gold.Goldscore.Internal.HBond.Weighted>
0.0000

> <Gold.Goldscore.External.HBond.Weighted>
0.7699

> <Gold.Goldscore.Internal.Correction.Weighted>
-0.7585

> <Gold.Rescore>
     Score     S(PLP)   S(hbond)     S(cho)   S(metal)  DE(clash)   DE(tors)     intcor
      8.82      -8.09       0.85       0.00       0.00       1.02       0.39       ----

> <Gold.PLP.Fitness>
8.8244

> <Gold.PLP.PLP>
-8.0924

> <Gold.PLP.part.hbond>
-4.4378

> <Gold.PLP.part.metal>
0.0000

> <Gold.PLP.part.buried>
13.2660

> <Gold.PLP.part.nonpolar>
-24.5439

> <Gold.PLP.part.repulsive>
7.2709

> <Gold.PLP.ligand.clash>
1.0236

> <Gold.PLP.ligand.torsion>
0.3942

> <Gold.PLP.Chemscore.Hbond>
0.8480

> <Gold.PLP.Chemscore.CHOScore>
0.0000

> <Gold.PLP.Chemscore.Metal>
0.0000

> <Gold.PLP.Chemscore.Internal.Correction>
   9.000000E+99

