#       Name:                CT1002167954
#       Creating user name   hitesit
#       Creation time:       Sun Apr 16 02:24:24 2023


#       File generated by GOLD software.
#

@<TRIPOS>MOLECULE
CT1002167954|ligand_prepared|mol2|1|dock4
    29    30     1
SMALL
NO_CHARGES


@<TRIPOS>ATOM
      1 C1         112.4273 247.4181 326.2217 C.3            1 RES1               0.0000
      2 C2         113.9314 247.4004 325.8810 C.ar           1 RES1               0.0000
      3 C3         112.2508 248.4544 327.3278 C.2            1 RES1               0.0000
      4 C4         111.7004 247.7611 324.9261 C.2            1 RES1               0.0000
      5 C5         111.8855 246.0613 326.7288 C.3            1 RES1               0.0000
      6 C6         114.7225 246.3075 326.2223 C.ar           1 RES1               0.0000
      7 C7         114.5405 248.4665 325.2244 C.ar           1 RES1               0.0000
      8 N8         111.6745 249.6441 326.9928 N.am           1 RES1               0.0000
      9 O9         112.6471 248.2460 328.4678 O.2            1 RES1               0.0000
     10 N10        111.0257 248.9522 324.8643 N.am           1 RES1               0.0000
     11 O11        111.7196 247.0182 323.9525 O.2            1 RES1               0.0000
     12 C12        110.3742 246.0275 326.8933 C.3            1 RES1               0.0000
     13 C13        116.0729 246.2799 325.9157 C.ar           1 RES1               0.0000
     14 C14        115.8912 248.4370 324.9190 C.ar           1 RES1               0.0000
     15 C15        111.0054 249.9232 325.8282 C.2            1 RES1               0.0000
     16 C16        116.6580 247.3443 325.2636 C.ar           1 RES1               0.0000
     17 O17        110.4206 250.9920 325.6775 O.2            1 RES1               0.0000
     18 H18        112.1814 245.2765 326.0218 H              1 RES1               0.0000
     19 H19        112.3511 245.8343 327.6958 H              1 RES1               0.0000
     20 H20        114.2801 245.4617 326.7380 H              1 RES1               0.0000
     21 H21        113.9570 249.3370 324.9446 H              1 RES1               0.0000
     22 H22        111.7478 250.3959 327.6708 H              1 RES1               0.0000
     23 H23        110.4888 249.1316 324.0218 H              1 RES1               0.0000
     24 H24        110.0469 245.0535 327.2511 H              1 RES1               0.0000
     25 H25        110.0472 246.7788 327.6091 H              1 RES1               0.0000
     26 H26        109.8785 246.2243 325.9450 H              1 RES1               0.0000
     27 H27        116.6723 245.4182 326.1903 H              1 RES1               0.0000
     28 H28        116.3476 249.2772 324.4061 H              1 RES1               0.0000
     29 H29        117.7158 247.3223 325.0232 H              1 RES1               0.0000
@<TRIPOS>BOND
    1    1    2 1     
    2    1    3 1     
    3    1    4 1     
    4    1    5 1     
    5    2    6 ar    
    6    2    7 ar    
    7    3    8 1     
    8    3    9 2     
    9    4   10 1     
   10    4   11 2     
   11    5   12 1     
   12    5   18 1     
   13    5   19 1     
   14    6   13 ar    
   15    6   20 1     
   16    7   14 ar    
   17    7   21 1     
   18    8   15 1     
   19    8   22 1     
   20   10   15 1     
   21   10   23 1     
   22   12   24 1     
   23   12   25 1     
   24   12   26 1     
   25   13   16 ar    
   26   13   27 1     
   27   14   16 ar    
   28   14   28 1     
   29   15   17 2     
   30   16   29 1     
@<TRIPOS>SUBSTRUCTURE
      1 RES1           1
@<TRIPOS>SET
DONOR_HYDROGENS      STATIC     ATOMS    <user>   **** ""
2 22 23
ATOM$RED        STATIC     ATOMS    COLORGROUP SYSTEM
2 22 23
@<TRIPOS>COMMENT
> <Gold.Version>
2022.3.0

> <Gold.Id.Protein>
unknown|5uo4_clean|pdb

> <Gold.Protein.RotatedTorsions>
[ 8496 8486 8487 8488 ] final -127.77 input   44.11 | X-H torsion
[ 8524 8508 8509 8510 ] final  -17.13 input   97.60 | X-H torsion
[ 9059 9055 9056 9057 ] final   38.17 input   32.84 | X-H torsion
[ 9093 9079 9080 9081 ] final  -55.76 input   37.99 | X-H torsion
[ 9137 9125 9126 9127 ] final  -73.55 input   94.90 | X-H torsion
[ 9145 9136 9135 9133 ] final  148.14 input   59.99 | X-H torsion
[ 9171 9163 9164 9165 ] final   -1.68 input   93.81 | X-H torsion
[ 9249 9240 9241 9242 ] final   37.89 input  122.14 | X-H torsion
[ 3643 3636 3637 3638 ] final  -38.95 input   81.24 | X-H torsion
[ 9041 9035 9036 9037 ] final  146.37 input   40.99 | X-H torsion
[ 9197 9193 9194 9195 ] final  -76.34 input  127.52 | X-H torsion
[ 4934 4929 4928 4925 ] final   51.58 input   60.01 | X-H torsion
[ 9045 9040 9039 9036 ] final  -58.17 input   60.00 | X-H torsion
[ 9011 9000 9001 9002 ] final  150.97 input   48.35 | X-H torsion
[ 8550 8539 8540 8541 ] final  -54.24 input   52.79 | X-H torsion
[ 3595 3586 3587 3588 ] final   31.64 input   78.24 | X-H torsion
[ 4950 4945 4946 4947 ] final   36.54 input   25.62 | X-H torsion
[ 12935 12926 12925 12923 ] final  152.70 input   60.03 | X-H torsion
[ 8577 8563 8564 8565 ] final    8.37 input   67.96 | X-H torsion
[ 8608 8591 8592 8593 ] final -156.25 input   87.41 | X-H torsion
[ 5599 5589 5588 5585 ] final   62.49 input   60.01 | X-H torsion
[ 12927 12915 12916 12917 ] final   74.90 input  110.33 | X-H torsion
[ 12963 12954 12955 12956 ] final -111.88 input   33.30 | X-H torsion
[ 8644 8625 8626 8627 ] final  -89.43 input   62.93 | X-H torsion
[ 12891 12882 12883 12884 ] final -126.99 input   63.10 | X-H torsion
[ 9549 9544 9543 9540 ] final -162.58 input   60.00 | X-H torsion
[ 3623 3607 3608 3609 ] final   67.05 input  103.98 | X-H torsion
[ 9277 9269 9270 9271 ] final  -17.30 input   95.60 | X-H torsion
[ 11113 11106 11107 11108 ] final -147.79 input   53.77 | X-H torsion
[ 13521 8463 8462 8461 ] final  123.33 input    0.00 | X-H torsion
[ 13525 9003 9002 9001 ] final   93.83 input    0.00 | X-H torsion
[ 13528 9058 9057 9056 ] final -149.38 input   -0.00 | X-H torsion
[ 13531 9082 9081 9080 ] final  100.90 input   -0.00 | X-H torsion
[ 13534 9128 9127 9126 ] final  -93.09 input   -0.00 | X-H torsion
[ 13539 9166 9165 9164 ] final  138.77 input   -0.00 | X-H torsion
[ 13552 9038 9037 9036 ] final   74.07 input    0.00 | X-H torsion
[ 13554 8408 8407 8406 ] final   16.47 input    0.00 | X-H torsion
[ 13556 8426 8425 8424 ] final  170.99 input   -0.00 | X-H torsion
[ 13563 8489 8488 8487 ] final  161.18 input    0.00 | X-H torsion
[ 13565 8511 8510 8509 ] final  130.23 input    0.00 | X-H torsion
[ 13573 3546 3545 3544 ] final  -55.37 input    0.00 | X-H torsion
[ 13575 5587 5586 5585 ] final  -89.08 input   -0.00 | X-H torsion
[ 13579 4948 4947 4946 ] final    5.01 input   -0.00 | X-H torsion
[ 13587 8566 8565 8564 ] final  -20.30 input   -0.00 | X-H torsion
[ 13589 12885 12884 12883 ] final  -37.46 input   -0.00 | X-H torsion
[ 13594 12957 12956 12955 ] final   28.59 input    0.00 | X-H torsion
[ 13597 12918 12917 12916 ] final   15.94 input    0.00 | X-H torsion
[ 13601 8542 8541 8540 ] final    2.23 input    0.00 | X-H torsion
[ 13603 8594 8593 8592 ] final  -17.52 input    0.00 | X-H torsion
[ 13616 6182 6181 6180 ] final -112.17 input   -0.00 | X-H torsion
[ 13618 9359 9358 9357 ] final -148.80 input   -0.00 | X-H torsion

> <Gold.Protein.ActiveResidues>
 TRP311  MET341  HIS342  TRP414  ALA417  ARG419  CYS420  VAL421  GLY422  LEU429 
 LEU460  SER462  ALA463  ILE464  ARG478  SER482  GLN483  ARG486  ALA502  TYR567 
 GLY568  LEU569  PRO570  ALA571  VAL572  SER573  ASN574  MET575  LEU576  PRO588 
 PHE589  SER590  GLY591  TRP592  TYR593  MET594  GLY595  GLU597  ILE598  ARG601 
 ASP602  ASP605  SER607  ARG608  ILE653  VAL654  TRP683  PHE696  HIS697  PHE709 
 GLU710  TYR711  GLN712  PRO713  ASP714  HEM801  H4B802 

> <Gold.Protein.RotatedAtoms>
  120.9019  252.4893  330.5258 H   0  0  0  0  0  0  0  0  0  0  0  0  # atno 3595 bound_to 3586
  122.0460  248.5403  329.8931 H   0  0  0  0  0  0  0  0  0  0  0  0  # atno 3623 bound_to 3607
  124.7956  249.2185  329.1627 H   0  0  0  0  0  0  0  0  0  0  0  0  # atno 3643 bound_to 3636
  125.8266  245.9191  318.9369 H   0  0  0  0  0  0  0  0  0  0  0  0  # atno 4934 bound_to 4929
  122.2880  247.2625  316.1519 H   0  0  0  0  0  0  0  0  0  0  0  0  # atno 4950 bound_to 4945
  107.8380  243.5713  321.7837 H   0  0  0  0  0  0  0  0  0  0  0  0  # atno 5599 bound_to 5589
  116.6783  242.9824  319.8894 H   0  0  0  0  0  0  0  0  0  0  0  0  # atno 8496 bound_to 8486
  114.7585  246.1676  318.6707 H   0  0  0  0  0  0  0  0  0  0  0  0  # atno 8524 bound_to 8508
  111.8799  248.3310  319.6922 H   0  0  0  0  0  0  0  0  0  0  0  0  # atno 8550 bound_to 8539
  110.4914  249.9492  319.5884 H   0  0  0  0  0  0  0  0  0  0  0  0  # atno 8577 bound_to 8563
  109.6083  251.4526  320.8545 H   0  0  0  0  0  0  0  0  0  0  0  0  # atno 8608 bound_to 8591
  111.0133  254.8713  319.9786 H   0  0  0  0  0  0  0  0  0  0  0  0  # atno 8644 bound_to 8625
  115.6104  250.1552  316.7802 H   0  0  0  0  0  0  0  0  0  0  0  0  # atno 9011 bound_to 9000
  118.2838  247.4142  316.8482 H   0  0  0  0  0  0  0  0  0  0  0  0  # atno 9041 bound_to 9035
  119.8991  245.9212  315.5745 H   0  0  0  0  0  0  0  0  0  0  0  0  # atno 9045 bound_to 9040
  120.1944  244.3607  319.7812 H   0  0  0  0  0  0  0  0  0  0  0  0  # atno 9059 bound_to 9055
  122.0017  243.3250  321.4273 H   0  0  0  0  0  0  0  0  0  0  0  0  # atno 9093 bound_to 9079
  122.4920  240.9888  323.4169 H   0  0  0  0  0  0  0  0  0  0  0  0  # atno 9137 bound_to 9125
  114.6498  239.0177  324.4207 H   0  0  0  0  0  0  0  0  0  0  0  0  # atno 9145 bound_to 9136
  121.2509  239.9111  326.8010 H   0  0  0  0  0  0  0  0  0  0  0  0  # atno 9171 bound_to 9163
  121.8605  238.4402  328.7683 H   0  0  0  0  0  0  0  0  0  0  0  0  # atno 9197 bound_to 9193
  118.5043  237.9206  330.4106 H   0  0  0  0  0  0  0  0  0  0  0  0  # atno 9249 bound_to 9240
  116.6670  237.3914  330.1078 H   0  0  0  0  0  0  0  0  0  0  0  0  # atno 9277 bound_to 9269
  104.1176  240.3911  334.2987 H   0  0  0  0  0  0  0  0  0  0  0  0  # atno 9549 bound_to 9544
  126.5706  237.9001  325.8403 H   0  0  0  0  0  0  0  0  0  0  0  0  # atno 11113 bound_to 11106
  113.5787  257.7164  323.8832 H   0  0  0  0  0  0  0  0  0  0  0  0  # atno 12891 bound_to 12882
  109.6336  257.4331  325.8124 H   0  0  0  0  0  0  0  0  0  0  0  0  # atno 12927 bound_to 12915
  110.7118  251.4638  329.9416 H   0  0  0  0  0  0  0  0  0  0  0  0  # atno 12935 bound_to 12926
  106.8737  256.2303  324.4505 H   0  0  0  0  0  0  0  0  0  0  0  0  # atno 12963 bound_to 12954
  118.3024  243.8483  318.9605 LP  0  0  0  0  0  0  0  0  0  0  0  0  # atno 13521 bound_to 8463
  118.4280  243.8516  320.6880 LP  0  0  0  0  0  0  0  0  0  0  0  0  # atno 13522 bound_to 8463
  115.0600  242.4854  319.4575 LP  0  0  0  0  0  0  0  0  0  0  0  0  # atno 13523 bound_to 8486
  115.1587  245.6629  320.2947 LP  0  0  0  0  0  0  0  0  0  0  0  0  # atno 13524 bound_to 8508
  116.3397  246.7227  318.4391 LP  0  0  0  0  0  0  0  0  0  0  0  0  # atno 13525 bound_to 9003
  117.0322  247.7156  319.6778 LP  0  0  0  0  0  0  0  0  0  0  0  0  # atno 13526 bound_to 9003
  120.8058  245.5864  318.6905 LP  0  0  0  0  0  0  0  0  0  0  0  0  # atno 13527 bound_to 9055
  121.9232  241.4087  319.4703 LP  0  0  0  0  0  0  0  0  0  0  0  0  # atno 13528 bound_to 9058
  122.4099  242.5655  318.2765 LP  0  0  0  0  0  0  0  0  0  0  0  0  # atno 13529 bound_to 9058
  123.6833  243.2188  320.9656 LP  0  0  0  0  0  0  0  0  0  0  0  0  # atno 13530 bound_to 9079
  121.4239  242.7123  324.0638 LP  0  0  0  0  0  0  0  0  0  0  0  0  # atno 13531 bound_to 9082
  123.1395  242.7123  324.3022 LP  0  0  0  0  0  0  0  0  0  0  0  0  # atno 13532 bound_to 9082
  122.1905  239.3159  323.0087 LP  0  0  0  0  0  0  0  0  0  0  0  0  # atno 13533 bound_to 9125
  123.6808  238.3317  326.3146 LP  0  0  0  0  0  0  0  0  0  0  0  0  # atno 13534 bound_to 9128
  124.3574  239.8078  325.7118 LP  0  0  0  0  0  0  0  0  0  0  0  0  # atno 13535 bound_to 9128
  114.8918  238.0989  323.0996 LP  0  0  0  0  0  0  0  0  0  0  0  0  # atno 13536 bound_to 9136
  115.0244  239.7236  323.0031 LP  0  0  0  0  0  0  0  0  0  0  0  0  # atno 13537 bound_to 9136
  122.4321  241.1981  326.7564 LP  0  0  0  0  0  0  0  0  0  0  0  0  # atno 13538 bound_to 9163
  119.8705  238.1416  328.5787 LP  0  0  0  0  0  0  0  0  0  0  0  0  # atno 13539 bound_to 9166
  119.9319  239.7781  329.1426 LP  0  0  0  0  0  0  0  0  0  0  0  0  # atno 13540 bound_to 9166
  118.4745  239.3116  331.4682 LP  0  0  0  0  0  0  0  0  0  0  0  0  # atno 13541 bound_to 9240
  123.6493  247.9824  328.7079 LP  0  0  0  0  0  0  0  0  0  0  0  0  # atno 13550 bound_to 3636
  119.3939  248.0909  318.0147 LP  0  0  0  0  0  0  0  0  0  0  0  0  # atno 13551 bound_to 9035
  121.5238  247.6238  318.4672 LP  0  0  0  0  0  0  0  0  0  0  0  0  # atno 13552 bound_to 9038
  122.1965  246.4055  317.4361 LP  0  0  0  0  0  0  0  0  0  0  0  0  # atno 13553 bound_to 9038
  121.1078  237.0248  320.2209 LP  0  0  0  0  0  0  0  0  0  0  0  0  # atno 13554 bound_to 8408
  120.1982  238.4931  320.0905 LP  0  0  0  0  0  0  0  0  0  0  0  0  # atno 13555 bound_to 8408
  115.7014  240.2079  319.1852 LP  0  0  0  0  0  0  0  0  0  0  0  0  # atno 13556 bound_to 8426
  116.1343  239.2984  317.7761 LP  0  0  0  0  0  0  0  0  0  0  0  0  # atno 13557 bound_to 8426
  123.1194  237.9497  329.8781 LP  0  0  0  0  0  0  0  0  0  0  0  0  # atno 13558 bound_to 9193
  124.3879  246.4586  319.4717 LP  0  0  0  0  0  0  0  0  0  0  0  0  # atno 13559 bound_to 4929
  125.7560  247.2702  319.8403 LP  0  0  0  0  0  0  0  0  0  0  0  0  # atno 13560 bound_to 4929
  119.7032  244.3370  315.2588 LP  0  0  0  0  0  0  0  0  0  0  0  0  # atno 13561 bound_to 9040
  120.8371  244.8254  316.3276 LP  0  0  0  0  0  0  0  0  0  0  0  0  # atno 13562 bound_to 9040
  112.4923  245.1177  318.7501 LP  0  0  0  0  0  0  0  0  0  0  0  0  # atno 13563 bound_to 8489
  113.3377  244.2299  317.5265 LP  0  0  0  0  0  0  0  0  0  0  0  0  # atno 13564 bound_to 8489
  113.6693  248.7768  317.6388 LP  0  0  0  0  0  0  0  0  0  0  0  0  # atno 13565 bound_to 8511
  114.2584  249.2232  319.2052 LP  0  0  0  0  0  0  0  0  0  0  0  0  # atno 13566 bound_to 8511
  115.5283  248.4108  316.7106 LP  0  0  0  0  0  0  0  0  0  0  0  0  # atno 13567 bound_to 9000
  111.6637  246.8168  318.8525 LP  0  0  0  0  0  0  0  0  0  0  0  0  # atno 13568 bound_to 8539
  119.1495  250.0089  332.2295 LP  0  0  0  0  0  0  0  0  0  0  0  0  # atno 13573 bound_to 3546
  118.8831  249.6173  330.5635 LP  0  0  0  0  0  0  0  0  0  0  0  0  # atno 13574 bound_to 3546
  110.1513  246.7812  319.6424 LP  0  0  0  0  0  0  0  0  0  0  0  0  # atno 13575 bound_to 5587
  110.2236  246.1484  321.2531 LP  0  0  0  0  0  0  0  0  0  0  0  0  # atno 13576 bound_to 5587
  119.3716  251.7339  330.1488 LP  0  0  0  0  0  0  0  0  0  0  0  0  # atno 13577 bound_to 3586
  123.9246  247.6728  315.6962 LP  0  0  0  0  0  0  0  0  0  0  0  0  # atno 13578 bound_to 4945
  120.6987  248.0426  316.2218 LP  0  0  0  0  0  0  0  0  0  0  0  0  # atno 13579 bound_to 4948
  119.5193  249.2378  315.7972 LP  0  0  0  0  0  0  0  0  0  0  0  0  # atno 13580 bound_to 4948
  111.1899  252.8145  330.7136 LP  0  0  0  0  0  0  0  0  0  0  0  0  # atno 13581 bound_to 12926
  112.0249  252.2715  329.4196 LP  0  0  0  0  0  0  0  0  0  0  0  0  # atno 13582 bound_to 12926
  109.4507  248.8557  318.7114 LP  0  0  0  0  0  0  0  0  0  0  0  0  # atno 13583 bound_to 8563
  110.2144  251.9898  319.3104 LP  0  0  0  0  0  0  0  0  0  0  0  0  # atno 13584 bound_to 8591
  106.3240  243.5442  321.1877 LP  0  0  0  0  0  0  0  0  0  0  0  0  # atno 13585 bound_to 5589
  106.5711  243.7594  322.7874 LP  0  0  0  0  0  0  0  0  0  0  0  0  # atno 13586 bound_to 5589
  106.9472  252.4654  320.4364 LP  0  0  0  0  0  0  0  0  0  0  0  0  # atno 13587 bound_to 8566
  108.1404  253.2577  321.4103 LP  0  0  0  0  0  0  0  0  0  0  0  0  # atno 13588 bound_to 8566
  110.5242  256.7043  322.2245 LP  0  0  0  0  0  0  0  0  0  0  0  0  # atno 13589 bound_to 12885
  110.1660  255.2535  323.1003 LP  0  0  0  0  0  0  0  0  0  0  0  0  # atno 13590 bound_to 12885
  110.4836  256.4085  324.6790 LP  0  0  0  0  0  0  0  0  0  0  0  0  # atno 13591 bound_to 12915
  106.9713  254.9060  323.3120 LP  0  0  0  0  0  0  0  0  0  0  0  0  # atno 13593 bound_to 12954
  105.2015  253.9240  323.8474 LP  0  0  0  0  0  0  0  0  0  0  0  0  # atno 13594 bound_to 12957
  103.7320  253.5181  323.0253 LP  0  0  0  0  0  0  0  0  0  0  0  0  # atno 13595 bound_to 12957
  110.3673  255.8210  321.2985 LP  0  0  0  0  0  0  0  0  0  0  0  0  # atno 13596 bound_to 8625
  108.2567  258.2648  324.4227 LP  0  0  0  0  0  0  0  0  0  0  0  0  # atno 13597 bound_to 12918
  106.6470  258.2309  323.7840 LP  0  0  0  0  0  0  0  0  0  0  0  0  # atno 13598 bound_to 12918
  109.5812  249.7885  316.1100 LP  0  0  0  0  0  0  0  0  0  0  0  0  # atno 13601 bound_to 8542
  108.5667  250.6364  317.2289 LP  0  0  0  0  0  0  0  0  0  0  0  0  # atno 13602 bound_to 8542
  110.6031  253.3958  318.2781 LP  0  0  0  0  0  0  0  0  0  0  0  0  # atno 13603 bound_to 8594
  110.2831  255.0736  317.9906 LP  0  0  0  0  0  0  0  0  0  0  0  0  # atno 13604 bound_to 8594
  112.5262  257.5963  322.4917 LP  0  0  0  0  0  0  0  0  0  0  0  0  # atno 13605 bound_to 12882
  101.6433  241.5234  325.5310 LP  0  0  0  0  0  0  0  0  0  0  0  0  # atno 13616 bound_to 6182
  103.3337  241.9006  325.5440 LP  0  0  0  0  0  0  0  0  0  0  0  0  # atno 13617 bound_to 6182
  110.2329  236.1796  332.1577 LP  0  0  0  0  0  0  0  0  0  0  0  0  # atno 13618 bound_to 9359
  110.1533  237.5768  333.1781 LP  0  0  0  0  0  0  0  0  0  0  0  0  # atno 13619 bound_to 9359
  104.6302  239.5599  332.9969 LP  0  0  0  0  0  0  0  0  0  0  0  0  # atno 13622 bound_to 9544
  105.0209  239.0524  334.4991 LP  0  0  0  0  0  0  0  0  0  0  0  0  # atno 13623 bound_to 9544

> <Gold.Score>
     Fitness  S(hb_ext) S(vdw_ext)  S(hb_int)    S(int)      intcor
     43.86       8.39      26.32       0.00      -0.72      -0.76

> <Gold.Goldscore.Fitness>
43.8593

> <Gold.Goldscore.Internal.Vdw>
-1.0228

> <Gold.Goldscore.Internal.Torsion>
-0.4524

> <Gold.Goldscore.External.Vdw>
26.3161

> <Gold.Goldscore.Internal.HBond>
0.0000

> <Gold.Goldscore.External.HBond>
8.3913

> <Gold.Goldscore.Internal.Correction>
-0.7585

> <Gold.Goldscore.Hbonds>
donor molecule, donor type, donor heavy atom, donor atom, acceptor molecule, acceptor atom, score
      L1  H     8    22       P1 13377  0.33
      L1  H     8    22       P1 12926  0.22
      L1  H    10    23       P1  8570  1.00

> <Gold.Goldscore.Internal.Vdw.Weighted>
-1.0228

> <Gold.Goldscore.Internal.Torsion.Weighted>
-0.4524

> <Gold.Goldscore.External.Vdw.Weighted>
36.1847

> <Gold.Goldscore.Internal.HBond.Weighted>
0.0000

> <Gold.Goldscore.External.HBond.Weighted>
8.3913

> <Gold.Goldscore.Internal.Correction.Weighted>
-0.7585

> <Gold.Rescore>
     Score     S(PLP)   S(hbond)     S(cho)   S(metal)  DE(clash)   DE(tors)     intcor
     31.82     -29.24       0.94       0.00       0.00       0.00       0.12       ----

> <Gold.PLP.Fitness>
31.8209

> <Gold.PLP.PLP>
-29.2408

> <Gold.PLP.part.hbond>
-1.3491

> <Gold.PLP.part.metal>
0.0000

> <Gold.PLP.part.buried>
4.6433

> <Gold.PLP.part.nonpolar>
-36.6429

> <Gold.PLP.part.repulsive>
2.4009

> <Gold.PLP.ligand.clash>
0.0000

> <Gold.PLP.ligand.torsion>
0.1157

> <Gold.PLP.Chemscore.Hbond>
0.9372

> <Gold.PLP.Chemscore.CHOScore>
0.0000

> <Gold.PLP.Chemscore.Metal>
0.0000

> <Gold.Chemscore.Hbonds>
donor molecule, donor type, donor heavy atom, donor atom, acceptor molecule, acceptor atom, score
      L1  H     8    22       P1 13377  0.43
      L1  H    10    23       P1  8570  0.32

> <Gold.PLP.Chemscore.Internal.Correction>
   9.000000E+99

