#       Name:                CT1002167954
#       Creating user name   hitesit
#       Creation time:       Sun Apr 16 02:22:06 2023


#       File generated by GOLD software.
#

@<TRIPOS>MOLECULE
CT1002167954|ligand_prepared|mol2|1|dock9
    29    30     1
SMALL
NO_CHARGES


@<TRIPOS>ATOM
      1 C1          32.5825  15.8804   6.9357 C.3            1 RES1               0.0000
      2 C2          31.2123  15.7782   7.6365 C.ar           1 RES1               0.0000
      3 C3          33.4777  16.6979   7.8623 C.2            1 RES1               0.0000
      4 C4          33.0572  14.4482   6.7162 C.2            1 RES1               0.0000
      5 C5          32.5293  16.5824   5.5588 C.3            1 RES1               0.0000
      6 C6          31.0702  15.0461   8.8114 C.ar           1 RES1               0.0000
      7 C7          30.0840  16.4117   7.1223 C.ar           1 RES1               0.0000
      8 N8          34.4460  16.0322   8.5545 N.am           1 RES1               0.0000
      9 O9          33.3110  17.9019   8.0134 O.2            1 RES1               0.0000
     10 N10         34.1743  14.0314   7.3915 N.am           1 RES1               0.0000
     11 O11         32.4643  13.6718   5.9772 O.2            1 RES1               0.0000
     12 C12         33.8400  16.5249   4.7902 C.3            1 RES1               0.0000
     13 C13         29.8451  14.9530   9.4509 C.ar           1 RES1               0.0000
     14 C14         28.8598  16.3171   7.7633 C.ar           1 RES1               0.0000
     15 C15         34.8724  14.7489   8.3242 C.2            1 RES1               0.0000
     16 C16         28.7394  15.5887   8.9277 C.ar           1 RES1               0.0000
     17 O17         35.8349  14.2859   8.9296 O.2            1 RES1               0.0000
     18 H18         31.7440  16.1133   4.9534 H              1 RES1               0.0000
     19 H19         32.2539  17.6337   5.7089 H              1 RES1               0.0000
     20 H20         31.9286  14.5370   9.2368 H              1 RES1               0.0000
     21 H21         30.1550  16.9893   6.2069 H              1 RES1               0.0000
     22 H22         34.8946  16.5351   9.3136 H              1 RES1               0.0000
     23 H23         34.5173  13.0999   7.1791 H              1 RES1               0.0000
     24 H24         33.7479  17.0319   3.8320 H              1 RES1               0.0000
     25 H25         34.6383  17.0051   5.3523 H              1 RES1               0.0000
     26 H26         34.1314  15.4937   4.6013 H              1 RES1               0.0000
     27 H27         29.7553  14.3774  10.3663 H              1 RES1               0.0000
     28 H28         27.9921  16.8185   7.3476 H              1 RES1               0.0000
     29 H29         27.7799  15.5159   9.4290 H              1 RES1               0.0000
@<TRIPOS>BOND
    1    1    2 1     
    2    1    3 1     
    3    1    4 1     
    4    1    5 1     
    5    2    6 ar    
    6    2    7 ar    
    7    3    8 1     
    8    3    9 2     
    9    4   10 1     
   10    4   11 2     
   11    5   12 1     
   12    5   18 1     
   13    5   19 1     
   14    6   13 ar    
   15    6   20 1     
   16    7   14 ar    
   17    7   21 1     
   18    8   15 1     
   19    8   22 1     
   20   10   15 1     
   21   10   23 1     
   22   12   24 1     
   23   12   25 1     
   24   12   26 1     
   25   13   16 ar    
   26   13   27 1     
   27   14   16 ar    
   28   14   28 1     
   29   15   17 2     
   30   16   29 1     
@<TRIPOS>SUBSTRUCTURE
      1 RES1           1
@<TRIPOS>SET
DONOR_HYDROGENS      STATIC     ATOMS    <user>   **** ""
2 22 23
ATOM$RED        STATIC     ATOMS    COLORGROUP SYSTEM
2 22 23
@<TRIPOS>COMMENT
> <Gold.Version>
2022.3.0

> <Gold.Id.Protein>
unknown|4i1b_cavity_clean|pdb

> <Gold.Protein.RotatedTorsions>
[ 1475 1464 1463 1462 ] final  -29.04 input   59.99 | X-H torsion
[  825  815  814  813 ] final  -81.41 input   60.01 | X-H torsion
[ 1830 1825 1824 1821 ] final   -3.68 input   60.00 | X-H torsion
[ 1453 1442 1441 1440 ] final  158.50 input   59.98 | X-H torsion
[ 1529 1518 1517 1516 ] final -116.90 input   59.99 | X-H torsion

> <Gold.Protein.ActiveResidues>
 VAL47   GLN48   GLU50   LYS55   PRO57   LYS93   LYS94   MET95   GLU96   LYS97  
 VAL100  ASN102  GLU113  SER114  ALA115  PRO118 

> <Gold.Protein.RotatedAtoms>
   28.0648   24.2296   -3.1258 H   0  0  0  0  0  0  0  0  0  0  0  0  # atno 825  bound_to 815 
   27.9786   22.9075   -2.1302 H   0  0  0  0  0  0  0  0  0  0  0  0  # atno 826  bound_to 815 
   27.2721   22.8630   -3.6283 H   0  0  0  0  0  0  0  0  0  0  0  0  # atno 827  bound_to 815 
   28.8235   22.3977   15.9199 H   0  0  0  0  0  0  0  0  0  0  0  0  # atno 1453 bound_to 1442
   27.2529   22.2540   16.4294 H   0  0  0  0  0  0  0  0  0  0  0  0  # atno 1454 bound_to 1442
   28.4505   21.3885   17.1803 H   0  0  0  0  0  0  0  0  0  0  0  0  # atno 1455 bound_to 1442
   33.2982   14.6409   11.0605 H   0  0  0  0  0  0  0  0  0  0  0  0  # atno 1475 bound_to 1464
   34.5930   15.3870   11.7792 H   0  0  0  0  0  0  0  0  0  0  0  0  # atno 1476 bound_to 1464
   34.8159   13.9902   10.9138 H   0  0  0  0  0  0  0  0  0  0  0  0  # atno 1477 bound_to 1464
   32.6891   14.4895   -0.3361 H   0  0  0  0  0  0  0  0  0  0  0  0  # atno 1529 bound_to 1518
   33.5813   14.8460    1.0149 H   0  0  0  0  0  0  0  0  0  0  0  0  # atno 1530 bound_to 1518
   33.8956   13.4647    0.1543 H   0  0  0  0  0  0  0  0  0  0  0  0  # atno 1531 bound_to 1518
   26.7766   13.5881   -1.7890 H   0  0  0  0  0  0  0  0  0  0  0  0  # atno 1830 bound_to 1825
   26.6558   12.8084   -3.2123 LP  0  0  0  0  0  0  0  0  0  0  0  0  # atno 2424 bound_to 1825
   25.9691   12.1777   -1.8717 LP  0  0  0  0  0  0  0  0  0  0  0  0  # atno 2425 bound_to 1825

> <Gold.Score>
     Fitness  S(hb_ext) S(vdw_ext)  S(hb_int)    S(int)      intcor
     25.96       0.00      19.02       0.00      -0.19      -0.76

> <Gold.Goldscore.Fitness>
25.9616

> <Gold.Goldscore.Internal.Vdw>
-0.4986

> <Gold.Goldscore.Internal.Torsion>
-0.4531

> <Gold.Goldscore.External.Vdw>
19.0216

> <Gold.Goldscore.Internal.HBond>
0.0000

> <Gold.Goldscore.External.HBond>
0.0000

> <Gold.Goldscore.Internal.Correction>
-0.7585

> <Gold.Goldscore.Internal.Vdw.Weighted>
-0.4986

> <Gold.Goldscore.Internal.Torsion.Weighted>
-0.4531

> <Gold.Goldscore.External.Vdw.Weighted>
26.1547

> <Gold.Goldscore.Internal.HBond.Weighted>
0.0000

> <Gold.Goldscore.External.HBond.Weighted>
0.0000

> <Gold.Goldscore.Internal.Correction.Weighted>
-0.7585

> <Gold.Rescore>
     Score     S(PLP)   S(hbond)     S(cho)   S(metal)  DE(clash)   DE(tors)     intcor
     21.60     -19.15       1.00       0.00       0.00       0.00       0.27       ----

> <Gold.PLP.Fitness>
21.5973

> <Gold.PLP.PLP>
-19.1457

> <Gold.PLP.part.hbond>
-1.0000

> <Gold.PLP.part.metal>
0.0000

> <Gold.PLP.part.buried>
-1.0486

> <Gold.PLP.part.nonpolar>
-17.2253

> <Gold.PLP.part.repulsive>
0.1178

> <Gold.PLP.ligand.clash>
0.0000

> <Gold.PLP.ligand.torsion>
0.2742

> <Gold.PLP.Chemscore.Hbond>
1.0000

> <Gold.PLP.Chemscore.CHOScore>
0.0000

> <Gold.PLP.Chemscore.Metal>
0.0000

> <Gold.Chemscore.Hbonds>
donor molecule, donor type, donor heavy atom, donor atom, acceptor molecule, acceptor atom, score
      P1  H  1464  1477       L1    17  0.41

> <Gold.PLP.Chemscore.Internal.Correction>
   9.000000E+99

