#       Name:                CT1002167954
#       Creating user name   hitesit
#       Creation time:       Sun Apr 16 02:22:01 2023


#       File generated by GOLD software.
#

@<TRIPOS>MOLECULE
CT1002167954|ligand_prepared|mol2|1|dock2
    29    30     1
SMALL
NO_CHARGES


@<TRIPOS>ATOM
      1 C1          32.1039  14.8371   7.4907 C.3            1 RES1               0.0000
      2 C2          31.3598  15.8221   6.5661 C.ar           1 RES1               0.0000
      3 C3          33.1367  14.1285   6.6193 C.2            1 RES1               0.0000
      4 C4          32.7066  15.6767   8.6116 C.2            1 RES1               0.0000
      5 C5          31.1878  13.7696   8.1331 C.3            1 RES1               0.0000
      6 C6          30.1209  16.3396   6.9323 C.ar           1 RES1               0.0000
      7 C7          31.8997  16.2238   5.3472 C.ar           1 RES1               0.0000
      8 N8          34.4449  14.4799   6.7776 N.am           1 RES1               0.0000
      9 O9          32.8043  13.3024   5.7782 O.2            1 RES1               0.0000
     10 N10         34.0723  15.7542   8.6926 N.am           1 RES1               0.0000
     11 O11         32.0111  16.2854   9.4154 O.2            1 RES1               0.0000
     12 C12         31.9455  12.6469   8.8241 C.3            1 RES1               0.0000
     13 C13         29.4475  17.2288   6.1113 C.ar           1 RES1               0.0000
     14 C14         31.2245  17.1130   4.5275 C.ar           1 RES1               0.0000
     15 C15         34.9684  15.2188   7.8079 C.2            1 RES1               0.0000
     16 C16         29.9989  17.6164   4.9087 C.ar           1 RES1               0.0000
     17 O17         36.1808  15.3776   7.9176 O.2            1 RES1               0.0000
     18 H18         30.5356  14.2593   8.8668 H              1 RES1               0.0000
     19 H19         30.5492  13.3367   7.3531 H              1 RES1               0.0000
     20 H20         29.6702  16.0442   7.8739 H              1 RES1               0.0000
     21 H21         32.8621  15.8398   5.0263 H              1 RES1               0.0000
     22 H22         35.0939  14.1641   6.0639 H              1 RES1               0.0000
     23 H23         34.4566  16.2576   9.4859 H              1 RES1               0.0000
     24 H24         31.2558  11.9257   9.2575 H              1 RES1               0.0000
     25 H25         32.5855  12.1218   8.1181 H              1 RES1               0.0000
     26 H26         32.5719  13.0389   9.6227 H              1 RES1               0.0000
     27 H27         28.4827  17.6211   6.4153 H              1 RES1               0.0000
     28 H28         31.6619  17.4148   3.5815 H              1 RES1               0.0000
     29 H29         29.4714  18.3134   4.2658 H              1 RES1               0.0000
@<TRIPOS>BOND
    1    1    2 1     
    2    1    3 1     
    3    1    4 1     
    4    1    5 1     
    5    2    6 ar    
    6    2    7 ar    
    7    3    8 1     
    8    3    9 2     
    9    4   10 1     
   10    4   11 2     
   11    5   12 1     
   12    5   18 1     
   13    5   19 1     
   14    6   13 ar    
   15    6   20 1     
   16    7   14 ar    
   17    7   21 1     
   18    8   15 1     
   19    8   22 1     
   20   10   15 1     
   21   10   23 1     
   22   12   24 1     
   23   12   25 1     
   24   12   26 1     
   25   13   16 ar    
   26   13   27 1     
   27   14   16 ar    
   28   14   28 1     
   29   15   17 2     
   30   16   29 1     
@<TRIPOS>SUBSTRUCTURE
      1 RES1           1
@<TRIPOS>SET
DONOR_HYDROGENS      STATIC     ATOMS    <user>   **** ""
2 22 23
ATOM$RED        STATIC     ATOMS    COLORGROUP SYSTEM
2 22 23
@<TRIPOS>COMMENT
> <Gold.Version>
2022.3.0

> <Gold.Id.Protein>
unknown|4i1b_cavity_clean|pdb

> <Gold.Protein.RotatedTorsions>
[ 1475 1464 1463 1462 ] final  -24.96 input   59.99 | X-H torsion
[  825  815  814  813 ] final -104.21 input   60.01 | X-H torsion
[ 1830 1825 1824 1821 ] final  138.53 input   60.00 | X-H torsion
[ 1453 1442 1441 1440 ] final  108.23 input   59.98 | X-H torsion
[ 1529 1518 1517 1516 ] final -140.34 input   59.99 | X-H torsion

> <Gold.Protein.ActiveResidues>
 VAL47   GLN48   GLU50   LYS55   PRO57   LYS93   LYS94   MET95   GLU96   LYS97  
 VAL100  ASN102  GLU113  SER114  ALA115  PRO118 

> <Gold.Protein.RotatedAtoms>
   27.8837   24.1498   -3.4482 H   0  0  0  0  0  0  0  0  0  0  0  0  # atno 825  bound_to 815 
   28.1398   23.2462   -2.0827 H   0  0  0  0  0  0  0  0  0  0  0  0  # atno 826  bound_to 815 
   27.2920   22.6040   -3.3532 H   0  0  0  0  0  0  0  0  0  0  0  0  # atno 827  bound_to 815 
   29.1212   21.8746   16.4661 H   0  0  0  0  0  0  0  0  0  0  0  0  # atno 1453 bound_to 1442
   27.7513   22.6153   15.8989 H   0  0  0  0  0  0  0  0  0  0  0  0  # atno 1454 bound_to 1442
   27.6541   21.5501   17.1650 H   0  0  0  0  0  0  0  0  0  0  0  0  # atno 1455 bound_to 1442
   33.2914   14.6985   11.0966 H   0  0  0  0  0  0  0  0  0  0  0  0  # atno 1475 bound_to 1464
   34.6545   15.3584   11.7718 H   0  0  0  0  0  0  0  0  0  0  0  0  # atno 1476 bound_to 1464
   34.7611   13.9613   10.8851 H   0  0  0  0  0  0  0  0  0  0  0  0  # atno 1477 bound_to 1464
   32.8192   14.1539   -0.4831 H   0  0  0  0  0  0  0  0  0  0  0  0  # atno 1529 bound_to 1518
   33.2881   15.0336    0.8416 H   0  0  0  0  0  0  0  0  0  0  0  0  # atno 1530 bound_to 1518
   34.0587   13.6127    0.4746 H   0  0  0  0  0  0  0  0  0  0  0  0  # atno 1531 bound_to 1518
   25.9800   12.0640   -2.2153 H   0  0  0  0  0  0  0  0  0  0  0  0  # atno 1830 bound_to 1825
   26.6078   13.3998   -1.5299 LP  0  0  0  0  0  0  0  0  0  0  0  0  # atno 2424 bound_to 1825
   26.8191   13.1208   -3.1250 LP  0  0  0  0  0  0  0  0  0  0  0  0  # atno 2425 bound_to 1825

> <Gold.Score>
     Fitness  S(hb_ext) S(vdw_ext)  S(hb_int)    S(int)      intcor
     29.73       1.57      21.29       0.00      -1.10      -0.76

> <Gold.Goldscore.Fitness>
29.7345

> <Gold.Goldscore.Internal.Vdw>
-1.2985

> <Gold.Goldscore.Internal.Torsion>
-0.5658

> <Gold.Goldscore.External.Vdw>
21.2864

> <Gold.Goldscore.Internal.HBond>
0.0000

> <Gold.Goldscore.External.HBond>
1.5650

> <Gold.Goldscore.Internal.Correction>
-0.7650

> <Gold.Goldscore.Hbonds>
donor molecule, donor type, donor heavy atom, donor atom, acceptor molecule, acceptor atom, score
      P1  H   723   727       L1    11  0.78

> <Gold.Goldscore.Internal.Vdw.Weighted>
-1.2985

> <Gold.Goldscore.Internal.Torsion.Weighted>
-0.5658

> <Gold.Goldscore.External.Vdw.Weighted>
29.2688

> <Gold.Goldscore.Internal.HBond.Weighted>
0.0000

> <Gold.Goldscore.External.HBond.Weighted>
1.5650

> <Gold.Goldscore.Internal.Correction.Weighted>
-0.7650

> <Gold.Rescore>
     Score     S(PLP)   S(hbond)     S(cho)   S(metal)  DE(clash)   DE(tors)     intcor
     28.57     -27.20       0.99       0.00       0.00       0.01       0.79       ----

> <Gold.PLP.Fitness>
28.5745

> <Gold.PLP.PLP>
-27.1991

> <Gold.PLP.part.hbond>
-1.0000

> <Gold.PLP.part.metal>
0.0000

> <Gold.PLP.part.buried>
-3.9007

> <Gold.PLP.part.nonpolar>
-23.5051

> <Gold.PLP.part.repulsive>
0.3111

> <Gold.PLP.ligand.clash>
0.0087

> <Gold.PLP.ligand.torsion>
0.7948

> <Gold.PLP.Chemscore.Hbond>
0.9913

> <Gold.PLP.Chemscore.CHOScore>
0.0000

> <Gold.PLP.Chemscore.Metal>
0.0000

> <Gold.Chemscore.Hbonds>
donor molecule, donor type, donor heavy atom, donor atom, acceptor molecule, acceptor atom, score
      P1  H   723   727       L1    11  1.00

> <Gold.PLP.Chemscore.Internal.Correction>
   9.000000E+99

