#       Name:                CT1002167954
#       Creating user name   hitesit
#       Creation time:       Sun Apr 16 02:22:05 2023


#       File generated by GOLD software.
#

@<TRIPOS>MOLECULE
CT1002167954|ligand_prepared|mol2|1|dock8
    29    30     1
SMALL
NO_CHARGES


@<TRIPOS>ATOM
      1 C1          32.6549  15.5813   7.2002 C.3            1 RES1               0.0000
      2 C2          31.9900  16.4479   6.1113 C.ar           1 RES1               0.0000
      3 C3          31.5188  14.9137   7.9695 C.2            1 RES1               0.0000
      4 C4          33.5692  14.6046   6.4688 C.2            1 RES1               0.0000
      5 C5          33.5179  16.3867   8.1992 C.3            1 RES1               0.0000
      6 C6          32.7542  17.2973   5.3169 C.ar           1 RES1               0.0000
      7 C7          30.6163  16.4068   5.8881 C.ar           1 RES1               0.0000
      8 N8          31.3047  13.5843   7.7528 N.am           1 RES1               0.0000
      9 O9          30.7967  15.5525   8.7249 O.2            1 RES1               0.0000
     10 N10         33.2614  13.2706   6.5270 N.am           1 RES1               0.0000
     11 O11         34.5438  14.9798   5.8288 O.2            1 RES1               0.0000
     12 C12         32.9734  17.7742   8.5000 C.3            1 RES1               0.0000
     13 C13         32.1670  18.0754   4.3330 C.ar           1 RES1               0.0000
     14 C14         30.0310  17.1859   4.9037 C.ar           1 RES1               0.0000
     15 C15         32.1533  12.7191   7.1103 C.2            1 RES1               0.0000
     16 C16         30.8052  18.0199   4.1254 C.ar           1 RES1               0.0000
     17 O17         31.9173  11.5148   7.0740 O.2            1 RES1               0.0000
     18 H18         33.5887  15.8240   9.1382 H              1 RES1               0.0000
     19 H19         34.5311  16.4860   7.7906 H              1 RES1               0.0000
     20 H20         33.8271  17.3562   5.4674 H              1 RES1               0.0000
     21 H21         29.9873  15.7589   6.4890 H              1 RES1               0.0000
     22 H22         30.4330  13.1978   8.1007 H              1 RES1               0.0000
     23 H23         33.9194  12.6292   6.0956 H              1 RES1               0.0000
     24 H24         33.6161  18.2962   9.2058 H              1 RES1               0.0000
     25 H25         32.9131  18.3702   7.5918 H              1 RES1               0.0000
     26 H26         31.9764  17.7121   8.9314 H              1 RES1               0.0000
     27 H27         32.7806  18.7311   3.7241 H              1 RES1               0.0000
     28 H28         28.9588  17.1395   4.7442 H              1 RES1               0.0000
     29 H29         30.3455  18.6292   3.3543 H              1 RES1               0.0000
@<TRIPOS>BOND
    1    1    2 1     
    2    1    3 1     
    3    1    4 1     
    4    1    5 1     
    5    2    6 ar    
    6    2    7 ar    
    7    3    8 1     
    8    3    9 2     
    9    4   10 1     
   10    4   11 2     
   11    5   12 1     
   12    5   18 1     
   13    5   19 1     
   14    6   13 ar    
   15    6   20 1     
   16    7   14 ar    
   17    7   21 1     
   18    8   15 1     
   19    8   22 1     
   20   10   15 1     
   21   10   23 1     
   22   12   24 1     
   23   12   25 1     
   24   12   26 1     
   25   13   16 ar    
   26   13   27 1     
   27   14   16 ar    
   28   14   28 1     
   29   15   17 2     
   30   16   29 1     
@<TRIPOS>SUBSTRUCTURE
      1 RES1           1
@<TRIPOS>SET
DONOR_HYDROGENS      STATIC     ATOMS    <user>   **** ""
2 22 23
ATOM$RED        STATIC     ATOMS    COLORGROUP SYSTEM
2 22 23
@<TRIPOS>COMMENT
> <Gold.Version>
2022.3.0

> <Gold.Id.Protein>
unknown|4i1b_cavity_clean|pdb

> <Gold.Protein.RotatedTorsions>
[ 1475 1464 1463 1462 ] final  -67.49 input   59.99 | X-H torsion
[  825  815  814  813 ] final  -68.34 input   60.01 | X-H torsion
[ 1830 1825 1824 1821 ] final -153.01 input   60.00 | X-H torsion
[ 1453 1442 1441 1440 ] final   81.94 input   59.98 | X-H torsion
[ 1529 1518 1517 1516 ] final   12.81 input   59.99 | X-H torsion

> <Gold.Protein.ActiveResidues>
 VAL47   GLN48   GLU50   LYS55   PRO57   LYS93   LYS94   MET95   GLU96   LYS97  
 VAL100  ASN102  GLU113  SER114  ALA115  PRO118 

> <Gold.Protein.RotatedAtoms>
   28.1495   24.2122   -2.9258 H   0  0  0  0  0  0  0  0  0  0  0  0  # atno 825  bound_to 815 
   27.8698   22.7403   -2.2174 H   0  0  0  0  0  0  0  0  0  0  0  0  # atno 826  bound_to 815 
   27.2963   23.0478   -3.7411 H   0  0  0  0  0  0  0  0  0  0  0  0  # atno 827  bound_to 815 
   28.9983   21.6164   16.7944 H   0  0  0  0  0  0  0  0  0  0  0  0  # atno 1453 bound_to 1442
   28.1704   22.6361   15.7834 H   0  0  0  0  0  0  0  0  0  0  0  0  # atno 1454 bound_to 1442
   27.3575   21.7874   16.9523 H   0  0  0  0  0  0  0  0  0  0  0  0  # atno 1455 bound_to 1442
   33.5818   14.1462   10.7914 H   0  0  0  0  0  0  0  0  0  0  0  0  # atno 1475 bound_to 1464
   33.9706   15.4657   11.7174 H   0  0  0  0  0  0  0  0  0  0  0  0  # atno 1476 bound_to 1464
   35.1551   14.4060   11.2445 H   0  0  0  0  0  0  0  0  0  0  0  0  # atno 1477 bound_to 1464
   33.6963   14.7383    1.0515 H   0  0  0  0  0  0  0  0  0  0  0  0  # atno 1529 bound_to 1518
   33.8018   13.4412    0.0244 H   0  0  0  0  0  0  0  0  0  0  0  0  # atno 1530 bound_to 1518
   32.6680   14.6205   -0.2428 H   0  0  0  0  0  0  0  0  0  0  0  0  # atno 1531 bound_to 1518
   26.4005   12.4193   -3.1134 H   0  0  0  0  0  0  0  0  0  0  0  0  # atno 1830 bound_to 1825
   26.0685   12.4865   -1.5217 LP  0  0  0  0  0  0  0  0  0  0  0  0  # atno 2424 bound_to 1825
   26.9351   13.6763   -2.2289 LP  0  0  0  0  0  0  0  0  0  0  0  0  # atno 2425 bound_to 1825

> <Gold.Score>
     Fitness  S(hb_ext) S(vdw_ext)  S(hb_int)    S(int)      intcor
     24.54       2.17      19.31       0.00      -4.18      -0.76

> <Gold.Goldscore.Fitness>
24.5431

> <Gold.Goldscore.Internal.Vdw>
-3.6546

> <Gold.Goldscore.Internal.Torsion>
-1.2829

> <Gold.Goldscore.External.Vdw>
19.3127

> <Gold.Goldscore.Internal.HBond>
0.0000

> <Gold.Goldscore.External.HBond>
2.1671

> <Gold.Goldscore.Internal.Correction>
-0.7585

> <Gold.Goldscore.Hbonds>
donor molecule, donor type, donor heavy atom, donor atom, acceptor molecule, acceptor atom, score
      P1  H   723   727       L1     9  0.04
      P1  H  1510  1519       L1    17  0.04
      L1  H     8    22       P1  1481  1.00

> <Gold.Goldscore.Internal.Vdw.Weighted>
-3.6546

> <Gold.Goldscore.Internal.Torsion.Weighted>
-1.2829

> <Gold.Goldscore.External.Vdw.Weighted>
26.5550

> <Gold.Goldscore.Internal.HBond.Weighted>
0.0000

> <Gold.Goldscore.External.HBond.Weighted>
2.1671

> <Gold.Goldscore.Internal.Correction.Weighted>
-0.7585

> <Gold.Rescore>
     Score     S(PLP)   S(hbond)     S(cho)   S(metal)  DE(clash)   DE(tors)     intcor
     34.71     -31.72       1.80       0.00       0.00       0.89       0.76       ----

> <Gold.PLP.Fitness>
34.7119

> <Gold.PLP.PLP>
-31.7197

> <Gold.PLP.part.hbond>
-2.0000

> <Gold.PLP.part.metal>
0.0000

> <Gold.PLP.part.buried>
-5.6515

> <Gold.PLP.part.nonpolar>
-24.3121

> <Gold.PLP.part.repulsive>
0.9483

> <Gold.PLP.ligand.clash>
0.8865

> <Gold.PLP.ligand.torsion>
0.7607

> <Gold.PLP.Chemscore.Hbond>
1.8000

> <Gold.PLP.Chemscore.CHOScore>
0.0000

> <Gold.PLP.Chemscore.Metal>
0.0000

> <Gold.Chemscore.Hbonds>
donor molecule, donor type, donor heavy atom, donor atom, acceptor molecule, acceptor atom, score
      L1  H     8    22       P1  1481  1.00
      P1  H  1510  1519       L1    17  0.62

> <Gold.PLP.Chemscore.Internal.Correction>
   9.000000E+99

