#       Name:                CT1002167954
#       Creating user name   hitesit
#       Creation time:       Sun Apr 16 02:22:01 2023


#       File generated by GOLD software.
#

@<TRIPOS>MOLECULE
CT1002167954|ligand_prepared|mol2|1|dock3
    29    30     1
SMALL
NO_CHARGES


@<TRIPOS>ATOM
      1 C1          31.9358  15.7868   6.4272 C.3            1 RES1               0.0000
      2 C2          31.2499  16.6738   5.3682 C.ar           1 RES1               0.0000
      3 C3          32.3200  16.7124   7.5778 C.2            1 RES1               0.0000
      4 C4          30.9221  14.7124   6.8051 C.2            1 RES1               0.0000
      5 C5          33.2134  15.0801   5.9177 C.3            1 RES1               0.0000
      6 C6          30.0986  17.3900   5.6818 C.ar           1 RES1               0.0000
      7 C7          31.7572  16.7879   4.0767 C.ar           1 RES1               0.0000
      8 N8          31.5828  16.6369   8.7226 N.am           1 RES1               0.0000
      9 O9          33.2308  17.5240   7.4681 O.2            1 RES1               0.0000
     10 N10         30.4303  14.7150   8.0841 N.am           1 RES1               0.0000
     11 O11         30.5323  13.8737   6.0020 O.2            1 RES1               0.0000
     12 C12         33.8886  14.2057   6.9625 C.3            1 RES1               0.0000
     13 C13         29.4786  18.1935   4.7393 C.ar           1 RES1               0.0000
     14 C14         31.1355  17.5919   3.1356 C.ar           1 RES1               0.0000
     15 C15         30.6916  15.6472   9.0510 C.2            1 RES1               0.0000
     16 C16         29.9968  18.2953   3.4659 C.ar           1 RES1               0.0000
     17 O17         30.1683  15.6127  10.1611 O.2            1 RES1               0.0000
     18 H18         32.9519  14.4584   5.0525 H              1 RES1               0.0000
     19 H19         33.9273  15.8415   5.5798 H              1 RES1               0.0000
     20 H20         29.6748  17.3204   6.6781 H              1 RES1               0.0000
     21 H21         32.6515  16.2428   3.7941 H              1 RES1               0.0000
     22 H22         31.7055  17.3856   9.3970 H              1 RES1               0.0000
     23 H23         29.8123  13.9512   8.3391 H              1 RES1               0.0000
     24 H24         34.7794  13.7336   6.5533 H              1 RES1               0.0000
     25 H25         34.1849  14.7964   7.8268 H              1 RES1               0.0000
     26 H26         33.2154  13.4215   7.3026 H              1 RES1               0.0000
     27 H27         28.5818  18.7440   5.0039 H              1 RES1               0.0000
     28 H28         31.5465  17.6685   2.1344 H              1 RES1               0.0000
     29 H29         29.5111  18.9251   2.7278 H              1 RES1               0.0000
@<TRIPOS>BOND
    1    1    2 1     
    2    1    3 1     
    3    1    4 1     
    4    1    5 1     
    5    2    6 ar    
    6    2    7 ar    
    7    3    8 1     
    8    3    9 2     
    9    4   10 1     
   10    4   11 2     
   11    5   12 1     
   12    5   18 1     
   13    5   19 1     
   14    6   13 ar    
   15    6   20 1     
   16    7   14 ar    
   17    7   21 1     
   18    8   15 1     
   19    8   22 1     
   20   10   15 1     
   21   10   23 1     
   22   12   24 1     
   23   12   25 1     
   24   12   26 1     
   25   13   16 ar    
   26   13   27 1     
   27   14   16 ar    
   28   14   28 1     
   29   15   17 2     
   30   16   29 1     
@<TRIPOS>SUBSTRUCTURE
      1 RES1           1
@<TRIPOS>SET
DONOR_HYDROGENS      STATIC     ATOMS    <user>   **** ""
2 22 23
ATOM$RED        STATIC     ATOMS    COLORGROUP SYSTEM
2 22 23
@<TRIPOS>COMMENT
> <Gold.Version>
2022.3.0

> <Gold.Id.Protein>
unknown|4i1b_cavity_clean|pdb

> <Gold.Protein.RotatedTorsions>
[ 1475 1464 1463 1462 ] final  -17.27 input   59.99 | X-H torsion
[  825  815  814  813 ] final -147.28 input   60.01 | X-H torsion
[ 1830 1825 1824 1821 ] final -130.54 input   60.00 | X-H torsion
[ 1453 1442 1441 1440 ] final -105.01 input   59.98 | X-H torsion
[ 1529 1518 1517 1516 ] final  146.26 input   59.99 | X-H torsion

> <Gold.Protein.ActiveResidues>
 VAL47   GLN48   GLU50   LYS55   PRO57   LYS93   LYS94   MET95   GLU96   LYS97  
 VAL100  ASN102  GLU113  SER114  ALA115  PRO118 

> <Gold.Protein.RotatedAtoms>
   27.5190   23.6767   -3.8181 H   0  0  0  0  0  0  0  0  0  0  0  0  # atno 825  bound_to 815 
   28.2742   23.8787   -2.3568 H   0  0  0  0  0  0  0  0  0  0  0  0  # atno 826  bound_to 815 
   27.5225   22.4447   -2.7088 H   0  0  0  0  0  0  0  0  0  0  0  0  # atno 827  bound_to 815 
   27.4154   22.4668   16.1458 H   0  0  0  0  0  0  0  0  0  0  0  0  # atno 1453 bound_to 1442
   28.0658   21.4070   17.2417 H   0  0  0  0  0  0  0  0  0  0  0  0  # atno 1454 bound_to 1442
   29.0453   22.1669   16.1415 H   0  0  0  0  0  0  0  0  0  0  0  0  # atno 1455 bound_to 1442
   33.2916   14.8062   11.1664 H   0  0  0  0  0  0  0  0  0  0  0  0  # atno 1475 bound_to 1464
   34.7644   15.2953   11.7508 H   0  0  0  0  0  0  0  0  0  0  0  0  # atno 1476 bound_to 1464
   34.6510   13.9167   10.8363 H   0  0  0  0  0  0  0  0  0  0  0  0  # atno 1477 bound_to 1464
   33.6529   13.4486   -0.1427 H   0  0  0  0  0  0  0  0  0  0  0  0  # atno 1529 bound_to 1518
   32.6734   14.7852   -0.0909 H   0  0  0  0  0  0  0  0  0  0  0  0  # atno 1530 bound_to 1518
   33.8395   14.5664    1.0666 H   0  0  0  0  0  0  0  0  0  0  0  0  # atno 1531 bound_to 1518
   26.5955   12.7136   -3.2059 H   0  0  0  0  0  0  0  0  0  0  0  0  # atno 1830 bound_to 1825
   25.9813   12.2365   -1.7764 LP  0  0  0  0  0  0  0  0  0  0  0  0  # atno 2424 bound_to 1825
   26.8260   13.6301   -1.8810 LP  0  0  0  0  0  0  0  0  0  0  0  0  # atno 2425 bound_to 1825

> <Gold.Score>
     Fitness  S(hb_ext) S(vdw_ext)  S(hb_int)    S(int)      intcor
     27.84       1.97      18.84       0.00      -0.03      -0.76

> <Gold.Goldscore.Fitness>
27.8431

> <Gold.Goldscore.Internal.Vdw>
-0.4256

> <Gold.Goldscore.Internal.Torsion>
-0.3671

> <Gold.Goldscore.External.Vdw>
18.8380

> <Gold.Goldscore.Internal.HBond>
0.0000

> <Gold.Goldscore.External.HBond>
1.9687

> <Gold.Goldscore.Internal.Correction>
-0.7650

> <Gold.Goldscore.Hbonds>
donor molecule, donor type, donor heavy atom, donor atom, acceptor molecule, acceptor atom, score
      L1  H    10    23       P1  1481  0.98

> <Gold.Goldscore.Internal.Vdw.Weighted>
-0.4256

> <Gold.Goldscore.Internal.Torsion.Weighted>
-0.3671

> <Gold.Goldscore.External.Vdw.Weighted>
25.9022

> <Gold.Goldscore.Internal.HBond.Weighted>
0.0000

> <Gold.Goldscore.External.HBond.Weighted>
1.9687

> <Gold.Goldscore.Internal.Correction.Weighted>
-0.7650

> <Gold.Rescore>
     Score     S(PLP)   S(hbond)     S(cho)   S(metal)  DE(clash)   DE(tors)     intcor
     23.66     -20.78       0.98       0.00       0.00       0.00       0.03       ----

> <Gold.PLP.Fitness>
23.6591

> <Gold.PLP.PLP>
-20.7819

> <Gold.PLP.part.hbond>
-2.1990

> <Gold.PLP.part.metal>
0.0000

> <Gold.PLP.part.buried>
-1.9814

> <Gold.PLP.part.nonpolar>
-19.8689

> <Gold.PLP.part.repulsive>
4.5365

> <Gold.PLP.ligand.clash>
0.0000

> <Gold.PLP.ligand.torsion>
0.0292

> <Gold.PLP.Chemscore.Hbond>
0.9785

> <Gold.PLP.Chemscore.CHOScore>
0.0000

> <Gold.PLP.Chemscore.Metal>
0.0000

> <Gold.Chemscore.Hbonds>
donor molecule, donor type, donor heavy atom, donor atom, acceptor molecule, acceptor atom, score
      L1  H    10    23       P1  1481  1.00

> <Gold.PLP.Chemscore.Internal.Correction>
   9.000000E+99

