#       Name:                CT1002167954
#       Creating user name   hitesit
#       Creation time:       Sun Apr 16 02:22:00 2023


#       File generated by GOLD software.
#

@<TRIPOS>MOLECULE
CT1002167954|ligand_prepared|mol2|1|dock1
    29    30     1
SMALL
NO_CHARGES


@<TRIPOS>ATOM
      1 C1          32.0292  15.0203   7.5404 C.3            1 RES1               0.0000
      2 C2          31.2477  16.0181   6.6617 C.ar           1 RES1               0.0000
      3 C3          32.9611  14.2605   6.6009 C.2            1 RES1               0.0000
      4 C4          32.7515  15.8537   8.5932 C.2            1 RES1               0.0000
      5 C5          31.1311  13.9975   8.2745 C.3            1 RES1               0.0000
      6 C6          31.8371  16.5821   5.5341 C.ar           1 RES1               0.0000
      7 C7          29.9380  16.3817   6.9637 C.ar           1 RES1               0.0000
      8 N8          34.2896  14.5653   6.6459 N.am           1 RES1               0.0000
      9 O9          32.5314  13.4347   5.8048 O.2            1 RES1               0.0000
     10 N10         34.1212  15.8815   8.5614 N.am           1 RES1               0.0000
     11 O11         32.1465  16.5000   9.4397 O.2            1 RES1               0.0000
     12 C12         31.9037  12.8692   8.9394 C.3            1 RES1               0.0000
     13 C13         31.1416  17.4749   4.7358 C.ar           1 RES1               0.0000
     14 C14         29.2443  17.2749   6.1640 C.ar           1 RES1               0.0000
     15 C15         34.9220  15.2997   7.6167 C.2            1 RES1               0.0000
     16 C16         29.8447  17.8216   5.0498 C.ar           1 RES1               0.0000
     17 O17         36.1442  15.4148   7.6245 O.2            1 RES1               0.0000
     18 H18         30.5478  14.5248   9.0394 H              1 RES1               0.0000
     19 H19         30.4259  13.5656   7.5537 H              1 RES1               0.0000
     20 H20         32.8577  16.3231   5.2726 H              1 RES1               0.0000
     21 H21         29.4459  15.9651   7.8360 H              1 RES1               0.0000
     22 H22         34.8662  14.2148   5.8877 H              1 RES1               0.0000
     23 H23         34.5870  16.3822   9.3116 H              1 RES1               0.0000
     24 H24         31.2262  12.1804   9.4397 H              1 RES1               0.0000
     25 H25         32.4757  12.3076   8.2038 H              1 RES1               0.0000
     26 H26         32.5970  13.2611   9.6808 H              1 RES1               0.0000
     27 H27         31.6190  17.9033   3.8607 H              1 RES1               0.0000
     28 H28         28.2241  17.5454   6.4154 H              1 RES1               0.0000
     29 H29         29.2999  18.5207   4.4240 H              1 RES1               0.0000
@<TRIPOS>BOND
    1    1    2 1     
    2    1    3 1     
    3    1    4 1     
    4    1    5 1     
    5    2    6 ar    
    6    2    7 ar    
    7    3    8 1     
    8    3    9 2     
    9    4   10 1     
   10    4   11 2     
   11    5   12 1     
   12    5   18 1     
   13    5   19 1     
   14    6   13 ar    
   15    6   20 1     
   16    7   14 ar    
   17    7   21 1     
   18    8   15 1     
   19    8   22 1     
   20   10   15 1     
   21   10   23 1     
   22   12   24 1     
   23   12   25 1     
   24   12   26 1     
   25   13   16 ar    
   26   13   27 1     
   27   14   16 ar    
   28   14   28 1     
   29   15   17 2     
   30   16   29 1     
@<TRIPOS>SUBSTRUCTURE
      1 RES1           1
@<TRIPOS>SET
DONOR_HYDROGENS      STATIC     ATOMS    <user>   **** ""
2 22 23
ATOM$RED        STATIC     ATOMS    COLORGROUP SYSTEM
2 22 23
@<TRIPOS>COMMENT
> <Gold.Version>
2022.3.0

> <Gold.Id.Protein>
unknown|4i1b_cavity_clean|pdb

> <Gold.Protein.RotatedTorsions>
[ 1475 1464 1463 1462 ] final  -14.87 input   59.99 | X-H torsion
[  825  815  814  813 ] final -172.26 input   60.01 | X-H torsion
[ 1830 1825 1824 1821 ] final   26.49 input   60.00 | X-H torsion
[ 1453 1442 1441 1440 ] final   25.01 input   59.98 | X-H torsion
[ 1529 1518 1517 1516 ] final  -32.93 input   59.99 | X-H torsion

> <Gold.Protein.ActiveResidues>
 VAL47   GLN48   GLU50   LYS55   PRO57   LYS93   LYS94   MET95   GLU96   LYS97  
 VAL100  ASN102  GLU113  SER114  ALA115  PRO118 

> <Gold.Protein.RotatedAtoms>
   27.3593   23.2950   -3.8239 H   0  0  0  0  0  0  0  0  0  0  0  0  # atno 825  bound_to 815 
   28.2266   24.1279   -2.6835 H   0  0  0  0  0  0  0  0  0  0  0  0  # atno 826  bound_to 815 
   27.7300   22.5773   -2.3762 H   0  0  0  0  0  0  0  0  0  0  0  0  # atno 827  bound_to 815 
   28.2309   21.3862   17.2304 H   0  0  0  0  0  0  0  0  0  0  0  0  # atno 1453 bound_to 1442
   28.9665   22.2705   16.0370 H   0  0  0  0  0  0  0  0  0  0  0  0  # atno 1454 bound_to 1442
   27.3283   22.3836   16.2623 H   0  0  0  0  0  0  0  0  0  0  0  0  # atno 1455 bound_to 1442
   33.2951   14.8394   11.1886 H   0  0  0  0  0  0  0  0  0  0  0  0  # atno 1475 bound_to 1464
   34.7967   15.2732   11.7424 H   0  0  0  0  0  0  0  0  0  0  0  0  # atno 1476 bound_to 1464
   34.6150   13.9056   10.8225 H   0  0  0  0  0  0  0  0  0  0  0  0  # atno 1477 bound_to 1464
   33.1346   15.0834    0.7069 H   0  0  0  0  0  0  0  0  0  0  0  0  # atno 1529 bound_to 1518
   34.1021   13.7390    0.6365 H   0  0  0  0  0  0  0  0  0  0  0  0  # atno 1530 bound_to 1518
   32.9293   13.9776   -0.5103 H   0  0  0  0  0  0  0  0  0  0  0  0  # atno 1531 bound_to 1518
   26.5367   13.3078   -1.4706 H   0  0  0  0  0  0  0  0  0  0  0  0  # atno 1830 bound_to 1825
   26.8660   13.2256   -3.0622 LP  0  0  0  0  0  0  0  0  0  0  0  0  # atno 2424 bound_to 1825
   26.0004   12.0427   -2.3425 LP  0  0  0  0  0  0  0  0  0  0  0  0  # atno 2425 bound_to 1825

> <Gold.Score>
     Fitness  S(hb_ext) S(vdw_ext)  S(hb_int)    S(int)      intcor
     30.06       1.20      21.33       0.00      -0.47      -0.79

> <Gold.Goldscore.Fitness>
30.0552

> <Gold.Goldscore.Internal.Vdw>
-0.7293

> <Gold.Goldscore.Internal.Torsion>
-0.5351

> <Gold.Goldscore.External.Vdw>
21.3311

> <Gold.Goldscore.Internal.HBond>
0.0000

> <Gold.Goldscore.External.HBond>
1.1982

> <Gold.Goldscore.Internal.Correction>
-0.7912

> <Gold.Goldscore.Hbonds>
donor molecule, donor type, donor heavy atom, donor atom, acceptor molecule, acceptor atom, score
      P1  H   723   727       L1    11  0.60

> <Gold.Goldscore.Internal.Vdw.Weighted>
-0.7293

> <Gold.Goldscore.Internal.Torsion.Weighted>
-0.5351

> <Gold.Goldscore.External.Vdw.Weighted>
29.3302

> <Gold.Goldscore.Internal.HBond.Weighted>
0.0000

> <Gold.Goldscore.External.HBond.Weighted>
1.1982

> <Gold.Goldscore.Internal.Correction.Weighted>
-0.7912

> <Gold.Rescore>
     Score     S(PLP)   S(hbond)     S(cho)   S(metal)  DE(clash)   DE(tors)     intcor
     27.85     -26.89       1.00       0.00       0.00       0.00       1.02       ----

> <Gold.PLP.Fitness>
27.8521

> <Gold.PLP.PLP>
-26.8936

> <Gold.PLP.part.hbond>
-1.0000

> <Gold.PLP.part.metal>
0.0000

> <Gold.PLP.part.buried>
-2.6649

> <Gold.PLP.part.nonpolar>
-23.0091

> <Gold.PLP.part.repulsive>
0.2762

> <Gold.PLP.ligand.clash>
0.0000

> <Gold.PLP.ligand.torsion>
1.0208

> <Gold.PLP.Chemscore.Hbond>
1.0000

> <Gold.PLP.Chemscore.CHOScore>
0.0000

> <Gold.PLP.Chemscore.Metal>
0.0000

> <Gold.Chemscore.Hbonds>
donor molecule, donor type, donor heavy atom, donor atom, acceptor molecule, acceptor atom, score
      P1  H   723   727       L1    11  0.89

> <Gold.PLP.Chemscore.Internal.Correction>
   9.000000E+99

