#       Name:                CT1002167954
#       Creating user name   hitesit
#       Creation time:       Sun Apr 16 02:22:04 2023


#       File generated by GOLD software.
#

@<TRIPOS>MOLECULE
CT1002167954|ligand_prepared|mol2|1|dock6
    29    30     1
SMALL
NO_CHARGES


@<TRIPOS>ATOM
      1 C1          32.8210  15.1274   7.2563 C.3            1 RES1               0.0000
      2 C2          31.7860  15.8891   6.4035 C.ar           1 RES1               0.0000
      3 C3          32.2982  15.1541   8.6896 C.2            1 RES1               0.0000
      4 C4          32.9218  13.7292   6.6568 C.2            1 RES1               0.0000
      5 C5          34.2327  15.7585   7.2366 C.3            1 RES1               0.0000
      6 C6          32.1184  16.3558   5.1353 C.ar           1 RES1               0.0000
      7 C7          30.4962  16.1299   6.8695 C.ar           1 RES1               0.0000
      8 N8          31.7793  13.9983   9.1944 N.am           1 RES1               0.0000
      9 O9          32.3048  16.1836   9.3531 O.2            1 RES1               0.0000
     10 N10         32.4970  12.6720   7.4181 N.am           1 RES1               0.0000
     11 O11         33.3497  13.5350   5.5256 O.2            1 RES1               0.0000
     12 C12         35.1696  15.1984   8.2953 C.3            1 RES1               0.0000
     13 C13         31.1942  17.0360   4.3598 C.ar           1 RES1               0.0000
     14 C14         29.5736  16.8105   6.0924 C.ar           1 RES1               0.0000
     15 C15         31.9018  12.7462   8.6479 C.2            1 RES1               0.0000
     16 C16         29.9212  17.2634   4.8375 C.ar           1 RES1               0.0000
     17 O17         31.4966  11.7542   9.2471 O.2            1 RES1               0.0000
     18 H18         34.6789  15.5948   6.2480 H              1 RES1               0.0000
     19 H19         34.1376  16.8411   7.3864 H              1 RES1               0.0000
     20 H20         33.1162  16.1884   4.7435 H              1 RES1               0.0000
     21 H21         30.2009  15.7837   7.8542 H              1 RES1               0.0000
     22 H22         31.2512  14.0719  10.0582 H              1 RES1               0.0000
     23 H23         32.6376  11.7437   7.0324 H              1 RES1               0.0000
     24 H24         36.1458  15.6752   8.2376 H              1 RES1               0.0000
     25 H25         34.7689  15.3664   9.2928 H              1 RES1               0.0000
     26 H26         35.3069  14.1275   8.1611 H              1 RES1               0.0000
     27 H27         31.4732  17.3916   3.3734 H              1 RES1               0.0000
     28 H28         28.5730  16.9878   6.4727 H              1 RES1               0.0000
     29 H29         29.1972  17.7960   4.2297 H              1 RES1               0.0000
@<TRIPOS>BOND
    1    1    2 1     
    2    1    3 1     
    3    1    4 1     
    4    1    5 1     
    5    2    6 ar    
    6    2    7 ar    
    7    3    8 1     
    8    3    9 2     
    9    4   10 1     
   10    4   11 2     
   11    5   12 1     
   12    5   18 1     
   13    5   19 1     
   14    6   13 ar    
   15    6   20 1     
   16    7   14 ar    
   17    7   21 1     
   18    8   15 1     
   19    8   22 1     
   20   10   15 1     
   21   10   23 1     
   22   12   24 1     
   23   12   25 1     
   24   12   26 1     
   25   13   16 ar    
   26   13   27 1     
   27   14   16 ar    
   28   14   28 1     
   29   15   17 2     
   30   16   29 1     
@<TRIPOS>SUBSTRUCTURE
      1 RES1           1
@<TRIPOS>SET
DONOR_HYDROGENS      STATIC     ATOMS    <user>   **** ""
2 22 23
ATOM$RED        STATIC     ATOMS    COLORGROUP SYSTEM
2 22 23
@<TRIPOS>COMMENT
> <Gold.Version>
2022.3.0

> <Gold.Id.Protein>
unknown|4i1b_cavity_clean|pdb

> <Gold.Protein.RotatedTorsions>
[ 1475 1464 1463 1462 ] final  -91.04 input   59.99 | X-H torsion
[  825  815  814  813 ] final -137.63 input   60.01 | X-H torsion
[ 1830 1825 1824 1821 ] final  160.39 input   60.00 | X-H torsion
[ 1453 1442 1441 1440 ] final  -24.19 input   59.98 | X-H torsion
[ 1529 1518 1517 1516 ] final  132.72 input   59.99 | X-H torsion

> <Gold.Protein.ActiveResidues>
 VAL47   GLN48   GLU50   LYS55   PRO57   LYS93   LYS94   MET95   GLU96   LYS97  
 VAL100  ASN102  GLU113  SER114  ALA115  PRO118 

> <Gold.Protein.RotatedAtoms>
   27.5955   23.8108   -3.7718 H   0  0  0  0  0  0  0  0  0  0  0  0  # atno 825  bound_to 815 
   28.2673   23.7517   -2.2580 H   0  0  0  0  0  0  0  0  0  0  0  0  # atno 826  bound_to 815 
   27.4529   22.4376   -2.8540 H   0  0  0  0  0  0  0  0  0  0  0  0  # atno 827  bound_to 815 
   27.4956   21.6530   17.0788 H   0  0  0  0  0  0  0  0  0  0  0  0  # atno 1453 bound_to 1442
   29.0868   21.7456   16.6240 H   0  0  0  0  0  0  0  0  0  0  0  0  # atno 1454 bound_to 1442
   27.9432   22.6420   15.8266 H   0  0  0  0  0  0  0  0  0  0  0  0  # atno 1455 bound_to 1442
   33.9096   13.9456   10.7209 H   0  0  0  0  0  0  0  0  0  0  0  0  # atno 1475 bound_to 1464
   33.6297   15.3397   11.5740 H   0  0  0  0  0  0  0  0  0  0  0  0  # atno 1476 bound_to 1464
   35.1685   14.7326   11.4585 H   0  0  0  0  0  0  0  0  0  0  0  0  # atno 1477 bound_to 1464
   33.8032   13.4418    0.0255 H   0  0  0  0  0  0  0  0  0  0  0  0  # atno 1529 bound_to 1518
   32.6679   14.6196   -0.2441 H   0  0  0  0  0  0  0  0  0  0  0  0  # atno 1530 bound_to 1518
   33.6948   14.7387    1.0517 H   0  0  0  0  0  0  0  0  0  0  0  0  # atno 1531 bound_to 1518
   26.0601   12.0617   -2.5612 H   0  0  0  0  0  0  0  0  0  0  0  0  # atno 1830 bound_to 1825
   26.4172   13.1323   -1.3888 LP  0  0  0  0  0  0  0  0  0  0  0  0  # atno 2424 bound_to 1825
   26.9291   13.3906   -2.9178 LP  0  0  0  0  0  0  0  0  0  0  0  0  # atno 2425 bound_to 1825

> <Gold.Score>
     Fitness  S(hb_ext) S(vdw_ext)  S(hb_int)    S(int)      intcor
     28.76       1.95      20.39       0.00      -1.22      -0.76

> <Gold.Goldscore.Fitness>
28.7603

> <Gold.Goldscore.Internal.Vdw>
-1.3699

> <Gold.Goldscore.Internal.Torsion>
-0.6145

> <Gold.Goldscore.External.Vdw>
20.3879

> <Gold.Goldscore.Internal.HBond>
0.0000

> <Gold.Goldscore.External.HBond>
1.9507

> <Gold.Goldscore.Internal.Correction>
-0.7607

> <Gold.Goldscore.Hbonds>
donor molecule, donor type, donor heavy atom, donor atom, acceptor molecule, acceptor atom, score
      P1  H   723   727       L1     9  0.98

> <Gold.Goldscore.Internal.Vdw.Weighted>
-1.3699

> <Gold.Goldscore.Internal.Torsion.Weighted>
-0.6145

> <Gold.Goldscore.External.Vdw.Weighted>
28.0333

> <Gold.Goldscore.Internal.HBond.Weighted>
0.0000

> <Gold.Goldscore.External.HBond.Weighted>
1.9507

> <Gold.Goldscore.Internal.Correction.Weighted>
-0.7607

> <Gold.Rescore>
     Score     S(PLP)   S(hbond)     S(cho)   S(metal)  DE(clash)   DE(tors)     intcor
     27.88     -26.54       1.11       0.00       0.00       0.00       1.00       ----

> <Gold.PLP.Fitness>
27.8783

> <Gold.PLP.PLP>
-26.5435

> <Gold.PLP.part.hbond>
-2.0000

> <Gold.PLP.part.metal>
0.0000

> <Gold.PLP.part.buried>
-3.1005

> <Gold.PLP.part.nonpolar>
-21.3560

> <Gold.PLP.part.repulsive>
0.3745

> <Gold.PLP.ligand.clash>
0.0000

> <Gold.PLP.ligand.torsion>
1.0020

> <Gold.PLP.Chemscore.Hbond>
1.1129

> <Gold.PLP.Chemscore.CHOScore>
0.0000

> <Gold.PLP.Chemscore.Metal>
0.0000

> <Gold.Chemscore.Hbonds>
donor molecule, donor type, donor heavy atom, donor atom, acceptor molecule, acceptor atom, score
      P1  H   723   727       L1     9  1.00

> <Gold.PLP.Chemscore.Internal.Correction>
   9.000000E+99

