#       Name:                CT1002167954
#       Creating user name   hitesit
#       Creation time:       Sun Apr 16 02:26:50 2023


#       File generated by GOLD software.
#

@<TRIPOS>MOLECULE
CT1002167954|ligand_prepared|mol2|1|dock8
    29    30     1
SMALL
NO_CHARGES


@<TRIPOS>ATOM
      1 C1         246.5673 363.7686 -61.4337 C.3            1 RES1               0.0000
      2 C2         247.6765 362.7451 -61.7511 C.ar           1 RES1               0.0000
      3 C3         247.1996 365.1483 -61.5912 C.2            1 RES1               0.0000
      4 C4         245.4343 363.4878 -62.4146 C.2            1 RES1               0.0000
      5 C5         245.9988 363.6495 -60.0004 C.3            1 RES1               0.0000
      6 C6         248.3254 362.7623 -62.9822 C.ar           1 RES1               0.0000
      7 C7         248.0630 361.7811 -60.8238 C.ar           1 RES1               0.0000
      8 N8         246.8594 365.8772 -62.6925 N.am           1 RES1               0.0000
      9 O9         248.0145 365.5739 -60.7818 O.2            1 RES1               0.0000
     10 N10        245.1389 364.4482 -63.3463 N.am           1 RES1               0.0000
     11 O11        244.8057 362.4367 -62.3997 O.2            1 RES1               0.0000
     12 C12        244.9036 364.6574 -59.6895 C.3            1 RES1               0.0000
     13 C13        249.3264 361.8508 -63.2745 C.ar           1 RES1               0.0000
     14 C14        249.0641 360.8703 -61.1183 C.ar           1 RES1               0.0000
     15 C15        245.8203 365.6173 -63.5494 C.2            1 RES1               0.0000
     16 C16        249.6967 360.9046 -62.3428 C.ar           1 RES1               0.0000
     17 O17        245.5282 366.4058 -64.4439 O.2            1 RES1               0.0000
     18 H18        245.5973 362.6380 -59.8627 H              1 RES1               0.0000
     19 H19        246.8178 363.7856 -59.2833 H              1 RES1               0.0000
     20 H20        248.0458 363.4981 -63.7288 H              1 RES1               0.0000
     21 H21        247.5784 361.7346 -59.8544 H              1 RES1               0.0000
     22 H22        247.4305 366.6908 -62.8979 H              1 RES1               0.0000
     23 H23        244.3367 364.2757 -63.9438 H              1 RES1               0.0000
     24 H24        244.5400 364.5304 -58.6720 H              1 RES1               0.0000
     25 H25        245.2753 365.6749 -59.7920 H              1 RES1               0.0000
     26 H26        244.0620 364.5341 -60.3680 H              1 RES1               0.0000
     27 H27        249.8202 361.8811 -64.2401 H              1 RES1               0.0000
     28 H28        249.3519 360.1270 -60.3822 H              1 RES1               0.0000
     29 H29        250.4812 360.1910 -62.5719 H              1 RES1               0.0000
@<TRIPOS>BOND
    1    1    2 1     
    2    1    3 1     
    3    1    4 1     
    4    1    5 1     
    5    2    6 ar    
    6    2    7 ar    
    7    3    8 1     
    8    3    9 2     
    9    4   10 1     
   10    4   11 2     
   11    5   12 1     
   12    5   18 1     
   13    5   19 1     
   14    6   13 ar    
   15    6   20 1     
   16    7   14 ar    
   17    7   21 1     
   18    8   15 1     
   19    8   22 1     
   20   10   15 1     
   21   10   23 1     
   22   12   24 1     
   23   12   25 1     
   24   12   26 1     
   25   13   16 ar    
   26   13   27 1     
   27   14   16 ar    
   28   14   28 1     
   29   15   17 2     
   30   16   29 1     
@<TRIPOS>SUBSTRUCTURE
      1 RES1           1
@<TRIPOS>SET
DONOR_HYDROGENS      STATIC     ATOMS    <user>   **** ""
2 22 23
ATOM$RED        STATIC     ATOMS    COLORGROUP SYSTEM
2 22 23
@<TRIPOS>COMMENT
> <Gold.Version>
2022.3.0

> <Gold.Id.Protein>
unknown|7ts3_clean|pdb

> <Gold.Protein.RotatedTorsions>
[ 9495 9432 9431 9429 ] final  164.00 input   59.98 | X-H torsion
[ 7831 7798 7797 7794 ] final  -35.78 input   59.99 | X-H torsion

> <Gold.Protein.ActiveResidues>
 ASP403  THR404  LEU406  ILE407  TYR408  ALA410  LYS411  TRP414  GLN425  TRP426 
 SER427  LYS428  LEU429  GLN430  VAL431  PHE432  ASP433  TYR453  SER462  ALA463 
 ILE464 

> <Gold.Protein.RotatedAtoms>
  246.1952  355.4895  -68.4034 H   0  0  0  0  0  0  0  0  0  0  0  0  # atno 7831 bound_to 7798
  250.2638  364.6645  -62.2780 H   0  0  0  0  0  0  0  0  0  0  0  0  # atno 9495 bound_to 9432
  249.6978  366.1884  -62.3558 LP  0  0  0  0  0  0  0  0  0  0  0  0  # atno 27287 bound_to 9432
  249.2905  365.2261  -61.1009 LP  0  0  0  0  0  0  0  0  0  0  0  0  # atno 27288 bound_to 9432
  245.0471  355.4583  -69.5565 LP  0  0  0  0  0  0  0  0  0  0  0  0  # atno 27293 bound_to 7798
  245.4635  356.8720  -68.8530 LP  0  0  0  0  0  0  0  0  0  0  0  0  # atno 27294 bound_to 7798

> <Gold.Score>
     Fitness  S(hb_ext) S(vdw_ext)  S(hb_int)    S(int)      intcor
     31.26       0.00      22.81       0.00      -0.11      -0.76

> <Gold.Goldscore.Fitness>
31.2597

> <Gold.Goldscore.Internal.Vdw>
-0.5012

> <Gold.Goldscore.Internal.Torsion>
-0.3670

> <Gold.Goldscore.External.Vdw>
22.8141

> <Gold.Goldscore.Internal.HBond>
0.0000

> <Gold.Goldscore.External.HBond>
0.0000

> <Gold.Goldscore.Internal.Correction>
-0.7585

> <Gold.Goldscore.Internal.Vdw.Weighted>
-0.5012

> <Gold.Goldscore.Internal.Torsion.Weighted>
-0.3670

> <Gold.Goldscore.External.Vdw.Weighted>
31.3694

> <Gold.Goldscore.Internal.HBond.Weighted>
0.0000

> <Gold.Goldscore.External.HBond.Weighted>
0.0000

> <Gold.Goldscore.Internal.Correction.Weighted>
-0.7585

> <Gold.Rescore>
     Score     S(PLP)   S(hbond)     S(cho)   S(metal)  DE(clash)   DE(tors)     intcor
     34.08     -34.09       0.00       0.00       0.00       0.00       0.01       ----

> <Gold.PLP.Fitness>
34.0759

> <Gold.PLP.PLP>
-34.0925

> <Gold.PLP.part.hbond>
-1.5402

> <Gold.PLP.part.metal>
0.0000

> <Gold.PLP.part.buried>
-3.1550

> <Gold.PLP.part.nonpolar>
-30.7900

> <Gold.PLP.part.repulsive>
0.0420

> <Gold.PLP.ligand.clash>
0.0000

> <Gold.PLP.ligand.torsion>
0.0083

> <Gold.PLP.Chemscore.Hbond>
0.0000

> <Gold.PLP.Chemscore.CHOScore>
0.0000

> <Gold.PLP.Chemscore.Metal>
0.0000

> <Gold.PLP.Chemscore.Internal.Correction>
   9.000000E+99

