#       Name:                CT1002167954
#       Creating user name   hitesit
#       Creation time:       Sun Apr 16 02:26:47 2023


#       File generated by GOLD software.
#

@<TRIPOS>MOLECULE
CT1002167954|ligand_prepared|mol2|1|dock1
    29    30     1
SMALL
NO_CHARGES


@<TRIPOS>ATOM
      1 C1         246.4166 362.6462 -65.8299 C.3            1 RES1               0.0000
      2 C2         247.4370 362.3856 -64.7030 C.ar           1 RES1               0.0000
      3 C3         247.0012 362.0172 -67.0911 C.2            1 RES1               0.0000
      4 C4         245.1052 362.0178 -65.3717 C.2            1 RES1               0.0000
      5 C5         246.1577 364.1460 -66.1037 C.3            1 RES1               0.0000
      6 C6         247.2964 363.0020 -63.4633 C.ar           1 RES1               0.0000
      7 C7         248.5205 361.5308 -64.8871 C.ar           1 RES1               0.0000
      8 N8         246.4395 360.8573 -67.5374 N.am           1 RES1               0.0000
      9 O9         247.9658 362.5101 -67.6629 O.2            1 RES1               0.0000
     10 N10        244.6222 360.9500 -66.0819 N.am           1 RES1               0.0000
     11 O11        244.4943 362.4271 -64.3921 O.2            1 RES1               0.0000
     12 C12        245.2090 364.4026 -67.2640 C.3            1 RES1               0.0000
     13 C13        248.2043 362.7700 -62.4434 C.ar           1 RES1               0.0000
     14 C14        249.4275 361.3004 -63.8659 C.ar           1 RES1               0.0000
     15 C15        245.2456 360.3220 -67.1255 C.2            1 RES1               0.0000
     16 C16        249.2702 361.9189 -62.6439 C.ar           1 RES1               0.0000
     17 O17        244.7737 359.3329 -67.6788 O.2            1 RES1               0.0000
     18 H18        245.7400 364.6033 -65.1983 H              1 RES1               0.0000
     19 H19        247.1156 364.6368 -66.3158 H              1 RES1               0.0000
     20 H20        246.4652 363.6769 -63.2878 H              1 RES1               0.0000
     21 H21        248.6649 361.0342 -65.8406 H              1 RES1               0.0000
     22 H22        246.9549 360.3402 -68.2426 H              1 RES1               0.0000
     23 H23        243.7137 360.5901 -65.8072 H              1 RES1               0.0000
     24 H24        245.0619 365.4702 -67.4131 H              1 RES1               0.0000
     25 H25        245.6053 363.9830 -68.1863 H              1 RES1               0.0000
     26 H26        244.2378 363.9498 -67.0754 H              1 RES1               0.0000
     27 H27        248.0768 363.2603 -61.4839 H              1 RES1               0.0000
     28 H28        250.2652 360.6302 -64.0283 H              1 RES1               0.0000
     29 H29        249.9811 361.7370 -61.8447 H              1 RES1               0.0000
@<TRIPOS>BOND
    1    1    2 1     
    2    1    3 1     
    3    1    4 1     
    4    1    5 1     
    5    2    6 ar    
    6    2    7 ar    
    7    3    8 1     
    8    3    9 2     
    9    4   10 1     
   10    4   11 2     
   11    5   12 1     
   12    5   18 1     
   13    5   19 1     
   14    6   13 ar    
   15    6   20 1     
   16    7   14 ar    
   17    7   21 1     
   18    8   15 1     
   19    8   22 1     
   20   10   15 1     
   21   10   23 1     
   22   12   24 1     
   23   12   25 1     
   24   12   26 1     
   25   13   16 ar    
   26   13   27 1     
   27   14   16 ar    
   28   14   28 1     
   29   15   17 2     
   30   16   29 1     
@<TRIPOS>SUBSTRUCTURE
      1 RES1           1
@<TRIPOS>SET
DONOR_HYDROGENS      STATIC     ATOMS    <user>   **** ""
2 22 23
ATOM$RED        STATIC     ATOMS    COLORGROUP SYSTEM
2 22 23
@<TRIPOS>COMMENT
> <Gold.Version>
2022.3.0

> <Gold.Id.Protein>
unknown|7ts3_clean|pdb

> <Gold.Protein.RotatedTorsions>
[ 9495 9432 9431 9429 ] final  -89.43 input   59.98 | X-H torsion
[ 7831 7798 7797 7794 ] final   68.66 input   59.99 | X-H torsion

> <Gold.Protein.ActiveResidues>
 ASP403  THR404  LEU406  ILE407  TYR408  ALA410  LYS411  TRP414  GLN425  TRP426 
 SER427  LYS428  LEU429  GLN430  VAL431  PHE432  ASP433  TYR453  SER462  ALA463 
 ILE464 

> <Gold.Protein.RotatedAtoms>
  245.6468  356.8364  -68.6803 H   0  0  0  0  0  0  0  0  0  0  0  0  # atno 7831 bound_to 7798
  249.3836  365.0276  -61.1175 H   0  0  0  0  0  0  0  0  0  0  0  0  # atno 9495 bound_to 9432
  250.3061  364.8072  -62.4399 LP  0  0  0  0  0  0  0  0  0  0  0  0  # atno 27287 bound_to 9432
  249.5685  366.2417  -62.1852 LP  0  0  0  0  0  0  0  0  0  0  0  0  # atno 27288 bound_to 9432
  246.1101  355.2839  -68.5266 LP  0  0  0  0  0  0  0  0  0  0  0  0  # atno 27293 bound_to 7798
  244.9526  355.6905  -69.6042 LP  0  0  0  0  0  0  0  0  0  0  0  0  # atno 27294 bound_to 7798

> <Gold.Score>
     Fitness  S(hb_ext) S(vdw_ext)  S(hb_int)    S(int)      intcor
     29.57       1.90      21.32       0.00      -1.65      -0.76

> <Gold.Goldscore.Fitness>
29.5720

> <Gold.Goldscore.Internal.Vdw>
-2.0326

> <Gold.Goldscore.Internal.Torsion>
-0.3847

> <Gold.Goldscore.External.Vdw>
21.3233

> <Gold.Goldscore.Internal.HBond>
0.0000

> <Gold.Goldscore.External.HBond>
1.9048

> <Gold.Goldscore.Internal.Correction>
-0.7650

> <Gold.Goldscore.Hbonds>
donor molecule, donor type, donor heavy atom, donor atom, acceptor molecule, acceptor atom, score
      P1  H  6685  6731       L1     9  0.03
      P1  H  7798  7831       L1    17  0.41
      L1  H     8    22       P1  7796  0.45

> <Gold.Goldscore.Internal.Vdw.Weighted>
-2.0326

> <Gold.Goldscore.Internal.Torsion.Weighted>
-0.3847

> <Gold.Goldscore.External.Vdw.Weighted>
29.3195

> <Gold.Goldscore.Internal.HBond.Weighted>
0.0000

> <Gold.Goldscore.External.HBond.Weighted>
1.9048

> <Gold.Goldscore.Internal.Correction.Weighted>
-0.7650

> <Gold.Rescore>
     Score     S(PLP)   S(hbond)     S(cho)   S(metal)  DE(clash)   DE(tors)     intcor
     37.69     -36.10       0.99       0.00       0.00       1.38       0.00       ----

> <Gold.PLP.Fitness>
37.6886

> <Gold.PLP.PLP>
-36.0980

> <Gold.PLP.part.hbond>
-1.0000

> <Gold.PLP.part.metal>
0.0000

> <Gold.PLP.part.buried>
-1.4766

> <Gold.PLP.part.nonpolar>
-32.4676

> <Gold.PLP.part.repulsive>
0.8129

> <Gold.PLP.ligand.clash>
1.3760

> <Gold.PLP.ligand.torsion>
0.0047

> <Gold.PLP.Chemscore.Hbond>
0.9920

> <Gold.PLP.Chemscore.CHOScore>
0.0000

> <Gold.PLP.Chemscore.Metal>
0.0000

> <Gold.Chemscore.Hbonds>
donor molecule, donor type, donor heavy atom, donor atom, acceptor molecule, acceptor atom, score
      L1  H     8    22       P1  7796  1.00

> <Gold.PLP.Chemscore.Internal.Correction>
   9.000000E+99

