#       Name:                CT1002167954
#       Creating user name   hitesit
#       Creation time:       Sun Apr 16 02:26:50 2023


#       File generated by GOLD software.
#

@<TRIPOS>MOLECULE
CT1002167954|ligand_prepared|mol2|1|dock7
    29    30     1
SMALL
NO_CHARGES


@<TRIPOS>ATOM
      1 C1         248.2268 364.9898 -68.0816 C.3            1 RES1               0.0000
      2 C2         248.2673 364.2679 -66.7192 C.ar           1 RES1               0.0000
      3 C3         249.3454 366.0271 -68.0502 C.2            1 RES1               0.0000
      4 C4         248.4092 363.9099 -69.1423 C.2            1 RES1               0.0000
      5 C5         246.8911 365.7163 -68.3642 C.3            1 RES1               0.0000
      6 C6         247.6382 364.8183 -65.6066 C.ar           1 RES1               0.0000
      7 C7         248.9263 363.0517 -66.5605 C.ar           1 RES1               0.0000
      8 N8         250.4645 365.7719 -68.7867 N.am           1 RES1               0.0000
      9 O9         249.2634 367.0347 -67.3586 O.2            1 RES1               0.0000
     10 N10        249.5483 363.9434 -69.9033 N.am           1 RES1               0.0000
     11 O11        247.5848 363.0206 -69.3146 O.2            1 RES1               0.0000
     12 C12        246.7694 366.2449 -69.7848 C.3            1 RES1               0.0000
     13 C13        247.6643 364.1749 -64.3804 C.ar           1 RES1               0.0000
     14 C14        248.9515 362.4100 -65.3333 C.ar           1 RES1               0.0000
     15 C15        250.5986 364.8074 -69.7528 C.2            1 RES1               0.0000
     16 C16        248.3205 362.9702 -64.2430 C.ar           1 RES1               0.0000
     17 O17        251.6134 364.7403 -70.4404 O.2            1 RES1               0.0000
     18 H18        246.0640 365.0213 -68.1740 H              1 RES1               0.0000
     19 H19        246.7911 366.5559 -67.6653 H              1 RES1               0.0000
     20 H20        247.1189 365.7668 -65.6950 H              1 RES1               0.0000
     21 H21        249.4305 362.5928 -67.4042 H              1 RES1               0.0000
     22 H22        251.2769 366.3517 -68.6019 H              1 RES1               0.0000
     23 H23        249.6198 363.2611 -70.6514 H              1 RES1               0.0000
     24 H24        245.8142 366.7454 -69.9295 H              1 RES1               0.0000
     25 H25        247.5619 366.9585 -70.0001 H              1 RES1               0.0000
     26 H26        246.8392 365.4330 -70.5057 H              1 RES1               0.0000
     27 H27        247.1674 364.6206 -63.5251 H              1 RES1               0.0000
     28 H28        249.4697 361.4624 -65.2296 H              1 RES1               0.0000
     29 H29        248.3406 362.4662 -63.2824 H              1 RES1               0.0000
@<TRIPOS>BOND
    1    1    2 1     
    2    1    3 1     
    3    1    4 1     
    4    1    5 1     
    5    2    6 ar    
    6    2    7 ar    
    7    3    8 1     
    8    3    9 2     
    9    4   10 1     
   10    4   11 2     
   11    5   12 1     
   12    5   18 1     
   13    5   19 1     
   14    6   13 ar    
   15    6   20 1     
   16    7   14 ar    
   17    7   21 1     
   18    8   15 1     
   19    8   22 1     
   20   10   15 1     
   21   10   23 1     
   22   12   24 1     
   23   12   25 1     
   24   12   26 1     
   25   13   16 ar    
   26   13   27 1     
   27   14   16 ar    
   28   14   28 1     
   29   15   17 2     
   30   16   29 1     
@<TRIPOS>SUBSTRUCTURE
      1 RES1           1
@<TRIPOS>SET
DONOR_HYDROGENS      STATIC     ATOMS    <user>   **** ""
2 22 23
ATOM$RED        STATIC     ATOMS    COLORGROUP SYSTEM
2 22 23
@<TRIPOS>COMMENT
> <Gold.Version>
2022.3.0

> <Gold.Id.Protein>
unknown|7ts3_clean|pdb

> <Gold.Protein.RotatedTorsions>
[ 9495 9432 9431 9429 ] final   27.40 input   59.98 | X-H torsion
[ 7831 7798 7797 7794 ] final  124.64 input   59.99 | X-H torsion

> <Gold.Protein.ActiveResidues>
 ASP403  THR404  LEU406  ILE407  TYR408  ALA410  LYS411  TRP414  GLN425  TRP426 
 SER427  LYS428  LEU429  GLN430  VAL431  PHE432  ASP433  TYR453  SER462  ALA463 
 ILE464 

> <Gold.Protein.RotatedAtoms>
  245.0633  356.6345  -69.3058 H   0  0  0  0  0  0  0  0  0  0  0  0  # atno 7831 bound_to 7798
  249.5424  366.2419  -62.1397 H   0  0  0  0  0  0  0  0  0  0  0  0  # atno 9495 bound_to 9432
  249.4034  364.9792  -61.1225 LP  0  0  0  0  0  0  0  0  0  0  0  0  # atno 27287 bound_to 9432
  250.3113  364.8469  -62.4734 LP  0  0  0  0  0  0  0  0  0  0  0  0  # atno 27288 bound_to 9432
  246.2035  356.1234  -68.2631 LP  0  0  0  0  0  0  0  0  0  0  0  0  # atno 27293 bound_to 7798
  245.4465  355.0542  -69.2380 LP  0  0  0  0  0  0  0  0  0  0  0  0  # atno 27294 bound_to 7798

> <Gold.Score>
     Fitness  S(hb_ext) S(vdw_ext)  S(hb_int)    S(int)      intcor
     31.42       6.03      19.13       0.00      -0.91      -0.76

> <Gold.Goldscore.Fitness>
31.4212

> <Gold.Goldscore.Internal.Vdw>
-1.1815

> <Gold.Goldscore.Internal.Torsion>
-0.4871

> <Gold.Goldscore.External.Vdw>
19.1256

> <Gold.Goldscore.Internal.HBond>
0.0000

> <Gold.Goldscore.External.HBond>
6.0334

> <Gold.Goldscore.Internal.Correction>
-0.7585

> <Gold.Goldscore.Hbonds>
donor molecule, donor type, donor heavy atom, donor atom, acceptor molecule, acceptor atom, score
      P1  H  6685  6731       L1    11  1.00
      P1  H  8008  8059       L1     9  0.02

> <Gold.Goldscore.Internal.Vdw.Weighted>
-1.1815

> <Gold.Goldscore.Internal.Torsion.Weighted>
-0.4871

> <Gold.Goldscore.External.Vdw.Weighted>
26.2978

> <Gold.Goldscore.Internal.HBond.Weighted>
0.0000

> <Gold.Goldscore.External.HBond.Weighted>
6.0334

> <Gold.Goldscore.Internal.Correction.Weighted>
-0.7585

> <Gold.Rescore>
     Score     S(PLP)   S(hbond)     S(cho)   S(metal)  DE(clash)   DE(tors)     intcor
     19.63     -17.65       1.22       0.00       0.00       0.00       0.83       ----

> <Gold.PLP.Fitness>
19.6336

> <Gold.PLP.PLP>
-17.6505

> <Gold.PLP.part.hbond>
-1.5350

> <Gold.PLP.part.metal>
0.0000

> <Gold.PLP.part.buried>
-2.4471

> <Gold.PLP.part.nonpolar>
-15.7943

> <Gold.PLP.part.repulsive>
1.3336

> <Gold.PLP.ligand.clash>
0.0000

> <Gold.PLP.ligand.torsion>
0.8340

> <Gold.PLP.Chemscore.Hbond>
1.2170

> <Gold.PLP.Chemscore.CHOScore>
0.0000

> <Gold.PLP.Chemscore.Metal>
0.0000

> <Gold.Chemscore.Hbonds>
donor molecule, donor type, donor heavy atom, donor atom, acceptor molecule, acceptor atom, score
      P1  H  6685  6731       L1    11  1.00
      P1  H  8008  8059       L1     9  0.74

> <Gold.PLP.Chemscore.Internal.Correction>
   9.000000E+99

