#       Name:                CT1002167954
#       Creating user name   hitesit
#       Creation time:       Sun Apr 16 02:26:48 2023


#       File generated by GOLD software.
#

@<TRIPOS>MOLECULE
CT1002167954|ligand_prepared|mol2|1|dock2
    29    30     1
SMALL
NO_CHARGES


@<TRIPOS>ATOM
      1 C1         245.7542 362.4324 -66.2838 C.3            1 RES1               0.0000
      2 C2         246.8736 362.5369 -65.2279 C.ar           1 RES1               0.0000
      3 C3         246.3850 361.7877 -67.5145 C.2            1 RES1               0.0000
      4 C4         244.6437 361.6037 -65.6476 C.2            1 RES1               0.0000
      5 C5         245.1553 363.7971 -66.6966 C.3            1 RES1               0.0000
      6 C6         246.7407 363.3899 -64.1364 C.ar           1 RES1               0.0000
      7 C7         248.0416 361.7859 -65.3302 C.ar           1 RES1               0.0000
      8 N8         246.0663 360.4887 -67.7809 N.am           1 RES1               0.0000
      9 O9         247.1808 362.3974 -68.2183 O.2            1 RES1               0.0000
     10 N10        244.3652 360.3774 -66.1922 N.am           1 RES1               0.0000
     11 O11        244.0185 361.9944 -64.6695 O.2            1 RES1               0.0000
     12 C12        244.1924 363.7142 -67.8704 C.3            1 RES1               0.0000
     13 C13        247.7380 363.4866 -63.1802 C.ar           1 RES1               0.0000
     14 C14        249.0378 361.8842 -64.3729 C.ar           1 RES1               0.0000
     15 C15        245.0469 359.7693 -67.2109 C.2            1 RES1               0.0000
     16 C16        248.8869 362.7336 -63.2975 C.ar           1 RES1               0.0000
     17 O17        244.7714 358.6413 -67.6096 O.2            1 RES1               0.0000
     18 H18        244.6270 364.2257 -65.8360 H              1 RES1               0.0000
     19 H19        245.9748 364.4773 -66.9596 H              1 RES1               0.0000
     20 H20        245.8448 363.9922 -64.0286 H              1 RES1               0.0000
     21 H21        248.1824 361.1118 -66.1683 H              1 RES1               0.0000
     22 H22        246.6389 360.0077 -68.4672 H              1 RES1               0.0000
     23 H23        243.5767 359.8712 -65.8021 H              1 RES1               0.0000
     24 H24        243.8015 364.6986 -68.1189 H              1 RES1               0.0000
     25 H25        244.6913 363.3155 -68.7513 H              1 RES1               0.0000
     26 H26        243.3514 363.0653 -67.6344 H              1 RES1               0.0000
     27 H27        247.6150 364.1576 -62.3365 H              1 RES1               0.0000
     28 H28        249.9405 361.2902 -64.4695 H              1 RES1               0.0000
     29 H29        249.6678 362.8092 -62.5480 H              1 RES1               0.0000
@<TRIPOS>BOND
    1    1    2 1     
    2    1    3 1     
    3    1    4 1     
    4    1    5 1     
    5    2    6 ar    
    6    2    7 ar    
    7    3    8 1     
    8    3    9 2     
    9    4   10 1     
   10    4   11 2     
   11    5   12 1     
   12    5   18 1     
   13    5   19 1     
   14    6   13 ar    
   15    6   20 1     
   16    7   14 ar    
   17    7   21 1     
   18    8   15 1     
   19    8   22 1     
   20   10   15 1     
   21   10   23 1     
   22   12   24 1     
   23   12   25 1     
   24   12   26 1     
   25   13   16 ar    
   26   13   27 1     
   27   14   16 ar    
   28   14   28 1     
   29   15   17 2     
   30   16   29 1     
@<TRIPOS>SUBSTRUCTURE
      1 RES1           1
@<TRIPOS>SET
DONOR_HYDROGENS      STATIC     ATOMS    <user>   **** ""
2 22 23
ATOM$RED        STATIC     ATOMS    COLORGROUP SYSTEM
2 22 23
@<TRIPOS>COMMENT
> <Gold.Version>
2022.3.0

> <Gold.Id.Protein>
unknown|7ts3_clean|pdb

> <Gold.Protein.RotatedTorsions>
[ 9495 9432 9431 9429 ] final   99.36 input   59.98 | X-H torsion
[ 7831 7798 7797 7794 ] final   73.82 input   59.99 | X-H torsion

> <Gold.Protein.ActiveResidues>
 ASP403  THR404  LEU406  ILE407  TYR408  ALA410  LYS411  TRP414  GLN425  TRP426 
 SER427  LYS428  LEU429  GLN430  VAL431  PHE432  ASP433  TYR453  SER462  ALA463 
 ILE464 

> <Gold.Protein.RotatedAtoms>
  245.5868  356.8538  -68.7368 H   0  0  0  0  0  0  0  0  0  0  0  0  # atno 7831 bound_to 7798
  250.1829  365.5599  -62.7188 H   0  0  0  0  0  0  0  0  0  0  0  0  # atno 9495 bound_to 9432
  249.2197  366.0094  -61.4864 LP  0  0  0  0  0  0  0  0  0  0  0  0  # atno 27287 bound_to 9432
  249.8501  364.5035  -61.5264 LP  0  0  0  0  0  0  0  0  0  0  0  0  # atno 27288 bound_to 9432
  246.1439  355.3463  -68.4801 LP  0  0  0  0  0  0  0  0  0  0  0  0  # atno 27293 bound_to 7798
  244.9792  355.6106  -69.5937 LP  0  0  0  0  0  0  0  0  0  0  0  0  # atno 27294 bound_to 7798

> <Gold.Score>
     Fitness  S(hb_ext) S(vdw_ext)  S(hb_int)    S(int)      intcor
     28.08       3.45      18.74       0.00      -1.14      -0.76

> <Gold.Goldscore.Fitness>
28.0777

> <Gold.Goldscore.Internal.Vdw>
-1.4315

> <Gold.Goldscore.Internal.Torsion>
-0.4738

> <Gold.Goldscore.External.Vdw>
18.7433

> <Gold.Goldscore.Internal.HBond>
0.0000

> <Gold.Goldscore.External.HBond>
3.4460

> <Gold.Goldscore.Internal.Correction>
-0.7650

> <Gold.Goldscore.Hbonds>
donor molecule, donor type, donor heavy atom, donor atom, acceptor molecule, acceptor atom, score
      P1  H  6685  6731       L1     9  0.11
      P1  H  7798  7831       L1    17  0.99
      L1  H     8    22       P1  7796  0.39

> <Gold.Goldscore.Internal.Vdw.Weighted>
-1.4315

> <Gold.Goldscore.Internal.Torsion.Weighted>
-0.4738

> <Gold.Goldscore.External.Vdw.Weighted>
25.7721

> <Gold.Goldscore.Internal.HBond.Weighted>
0.0000

> <Gold.Goldscore.External.HBond.Weighted>
3.4460

> <Gold.Goldscore.Internal.Correction.Weighted>
-0.7650

> <Gold.Rescore>
     Score     S(PLP)   S(hbond)     S(cho)   S(metal)  DE(clash)   DE(tors)     intcor
     33.53     -27.08       2.78       0.00       0.00       0.05       0.91       ----

> <Gold.PLP.Fitness>
33.5287

> <Gold.PLP.PLP>
-27.0811

> <Gold.PLP.part.hbond>
-2.8514

> <Gold.PLP.part.metal>
0.0000

> <Gold.PLP.part.buried>
-3.9201

> <Gold.PLP.part.nonpolar>
-20.5944

> <Gold.PLP.part.repulsive>
0.4218

> <Gold.PLP.ligand.clash>
0.0536

> <Gold.PLP.ligand.torsion>
0.9134

> <Gold.PLP.Chemscore.Hbond>
2.7760

> <Gold.PLP.Chemscore.CHOScore>
0.0000

> <Gold.PLP.Chemscore.Metal>
0.0000

> <Gold.Chemscore.Hbonds>
donor molecule, donor type, donor heavy atom, donor atom, acceptor molecule, acceptor atom, score
      L1  H     8    22       P1  7796  1.00
      P1  H  6685  6731       L1     9  0.48
      P1  H  7798  7831       L1    17  0.59

> <Gold.PLP.Chemscore.Internal.Correction>
   9.000000E+99

