#       Name:                CT1002167954
#       Creating user name   hitesit
#       Creation time:       Sun Apr 16 02:26:48 2023


#       File generated by GOLD software.
#

@<TRIPOS>MOLECULE
CT1002167954|ligand_prepared|mol2|1|dock4
    29    30     1
SMALL
NO_CHARGES


@<TRIPOS>ATOM
      1 C1         248.0845 364.6593 -67.9281 C.3            1 RES1               0.0000
      2 C2         247.7055 363.8263 -66.6866 C.ar           1 RES1               0.0000
      3 C3         247.3793 364.0067 -69.1135 C.2            1 RES1               0.0000
      4 C4         247.6280 366.0853 -67.6407 C.2            1 RES1               0.0000
      5 C5         249.6032 364.6931 -68.2181 C.3            1 RES1               0.0000
      6 C6         246.4051 363.8440 -66.1914 C.ar           1 RES1               0.0000
      7 C7         248.6431 363.0347 -66.0286 C.ar           1 RES1               0.0000
      8 N8         246.2960 364.6496 -69.6361 N.am           1 RES1               0.0000
      9 O9         247.7440 362.9251 -69.5576 O.2            1 RES1               0.0000
     10 N10        246.6246 366.6066 -68.4147 N.am           1 RES1               0.0000
     11 O11        248.1168 366.7564 -66.7401 O.2            1 RES1               0.0000
     12 C12        249.9831 365.5769 -69.3956 C.3            1 RES1               0.0000
     13 C13        246.0538 363.0952 -65.0805 C.ar           1 RES1               0.0000
     14 C14        248.2897 362.2869 -64.9176 C.ar           1 RES1               0.0000
     15 C15        245.9168 365.9426 -69.3793 C.2            1 RES1               0.0000
     16 C16        246.9956 362.3159 -64.4431 C.ar           1 RES1               0.0000
     17 O17        244.9910 366.4625 -69.9955 O.2            1 RES1               0.0000
     18 H18        250.1256 365.0533 -67.3232 H              1 RES1               0.0000
     19 H19        249.9473 363.6708 -68.4184 H              1 RES1               0.0000
     20 H20        245.6509 364.4533 -66.6784 H              1 RES1               0.0000
     21 H21        249.6674 362.9973 -66.3835 H              1 RES1               0.0000
     22 H22        245.7139 364.1199 -70.2772 H              1 RES1               0.0000
     23 H23        246.3829 367.5798 -68.2573 H              1 RES1               0.0000
     24 H24        251.0592 365.5648 -69.5556 H              1 RES1               0.0000
     25 H25        249.5010 365.2321 -70.3080 H              1 RES1               0.0000
     26 H26        249.6782 366.6063 -69.2194 H              1 RES1               0.0000
     27 H27        245.0343 363.1226 -64.7102 H              1 RES1               0.0000
     28 H28        249.0344 361.6754 -64.4188 H              1 RES1               0.0000
     29 H29        246.7201 361.7291 -63.5731 H              1 RES1               0.0000
@<TRIPOS>BOND
    1    1    2 1     
    2    1    3 1     
    3    1    4 1     
    4    1    5 1     
    5    2    6 ar    
    6    2    7 ar    
    7    3    8 1     
    8    3    9 2     
    9    4   10 1     
   10    4   11 2     
   11    5   12 1     
   12    5   18 1     
   13    5   19 1     
   14    6   13 ar    
   15    6   20 1     
   16    7   14 ar    
   17    7   21 1     
   18    8   15 1     
   19    8   22 1     
   20   10   15 1     
   21   10   23 1     
   22   12   24 1     
   23   12   25 1     
   24   12   26 1     
   25   13   16 ar    
   26   13   27 1     
   27   14   16 ar    
   28   14   28 1     
   29   15   17 2     
   30   16   29 1     
@<TRIPOS>SUBSTRUCTURE
      1 RES1           1
@<TRIPOS>SET
DONOR_HYDROGENS      STATIC     ATOMS    <user>   **** ""
2 22 23
ATOM$RED        STATIC     ATOMS    COLORGROUP SYSTEM
2 22 23
@<TRIPOS>COMMENT
> <Gold.Version>
2022.3.0

> <Gold.Id.Protein>
unknown|7ts3_clean|pdb

> <Gold.Protein.RotatedTorsions>
[ 9495 9432 9431 9429 ] final -149.36 input   59.98 | X-H torsion
[ 7831 7798 7797 7794 ] final   41.84 input   59.99 | X-H torsion

> <Gold.Protein.ActiveResidues>
 ASP403  THR404  LEU406  ILE407  TYR408  ALA410  LYS411  TRP414  GLN425  TRP426 
 SER427  LYS428  LEU429  GLN430  VAL431  PHE432  ASP433  TYR453  SER462  ALA463 
 ILE464 

> <Gold.Protein.RotatedAtoms>
  245.9382  356.6347  -68.4291 H   0  0  0  0  0  0  0  0  0  0  0  0  # atno 7831 bound_to 7798
  249.9340  364.4809  -61.6401 H   0  0  0  0  0  0  0  0  0  0  0  0  # atno 9495 bound_to 9432
  250.1238  365.6901  -62.7126 LP  0  0  0  0  0  0  0  0  0  0  0  0  # atno 27287 bound_to 9432
  249.1966  365.9093  -61.3863 LP  0  0  0  0  0  0  0  0  0  0  0  0  # atno 27288 bound_to 9432
  245.8715  355.0543  -68.8122 LP  0  0  0  0  0  0  0  0  0  0  0  0  # atno 27293 bound_to 7798
  244.8979  356.1231  -69.5714 LP  0  0  0  0  0  0  0  0  0  0  0  0  # atno 27294 bound_to 7798

> <Gold.Score>
     Fitness  S(hb_ext) S(vdw_ext)  S(hb_int)    S(int)      intcor
     26.49       6.00      14.96       0.00      -0.07      -0.76

> <Gold.Goldscore.Fitness>
26.4940

> <Gold.Goldscore.Internal.Vdw>
-0.4459

> <Gold.Goldscore.Internal.Torsion>
-0.3830

> <Gold.Goldscore.External.Vdw>
14.9560

> <Gold.Goldscore.Internal.HBond>
0.0000

> <Gold.Goldscore.External.HBond>
6.0000

> <Gold.Goldscore.Internal.Correction>
-0.7585

> <Gold.Goldscore.Hbonds>
donor molecule, donor type, donor heavy atom, donor atom, acceptor molecule, acceptor atom, score
      P1  H  6685  6731       L1     9  1.00

> <Gold.Goldscore.Internal.Vdw.Weighted>
-0.4459

> <Gold.Goldscore.Internal.Torsion.Weighted>
-0.3830

> <Gold.Goldscore.External.Vdw.Weighted>
20.5645

> <Gold.Goldscore.Internal.HBond.Weighted>
0.0000

> <Gold.Goldscore.External.HBond.Weighted>
6.0000

> <Gold.Goldscore.Internal.Correction.Weighted>
-0.7585

> <Gold.Rescore>
     Score     S(PLP)   S(hbond)     S(cho)   S(metal)  DE(clash)   DE(tors)     intcor
     24.19     -19.48       1.66       0.00       0.00       0.00       0.13       ----

> <Gold.PLP.Fitness>
24.1893

> <Gold.PLP.PLP>
-19.4794

> <Gold.PLP.part.hbond>
-1.7142

> <Gold.PLP.part.metal>
0.0000

> <Gold.PLP.part.buried>
-2.0376

> <Gold.PLP.part.nonpolar>
-17.3615

> <Gold.PLP.part.repulsive>
1.3344

> <Gold.PLP.ligand.clash>
0.0000

> <Gold.PLP.ligand.torsion>
0.1281

> <Gold.PLP.Chemscore.Hbond>
1.6554

> <Gold.PLP.Chemscore.CHOScore>
0.0000

> <Gold.PLP.Chemscore.Metal>
0.0000

> <Gold.Chemscore.Hbonds>
donor molecule, donor type, donor heavy atom, donor atom, acceptor molecule, acceptor atom, score
      P1  H  6685  6731       L1     9  0.78

> <Gold.PLP.Chemscore.Internal.Correction>
   9.000000E+99

