#       Name:                CT1002167954
#       Creating user name   hitesit
#       Creation time:       Sun Apr 16 02:26:49 2023


#       File generated by GOLD software.
#

@<TRIPOS>MOLECULE
CT1002167954|ligand_prepared|mol2|1|dock6
    29    30     1
SMALL
NO_CHARGES


@<TRIPOS>ATOM
      1 C1         246.8899 363.2187 -65.4371 C.3            1 RES1               0.0000
      2 C2         247.9250 362.7667 -64.3868 C.ar           1 RES1               0.0000
      3 C3         247.4455 364.4935 -66.0652 C.2            1 RES1               0.0000
      4 C4         246.7391 362.0582 -66.4144 C.2            1 RES1               0.0000
      5 C5         245.4951 363.5299 -64.8461 C.3            1 RES1               0.0000
      6 C6         248.0098 363.4071 -63.1542 C.ar           1 RES1               0.0000
      7 C7         248.7984 361.7111 -64.6346 C.ar           1 RES1               0.0000
      8 N8         247.9453 364.4082 -67.3312 N.am           1 RES1               0.0000
      9 O9         247.4808 365.5488 -65.4445 O.2            1 RES1               0.0000
     10 N10        247.1533 362.2491 -67.7066 N.am           1 RES1               0.0000
     11 O11        246.2809 360.9749 -66.0731 O.2            1 RES1               0.0000
     12 C12        245.0118 362.4981 -63.8392 C.3            1 RES1               0.0000
     13 C13        248.9322 363.0049 -62.2025 C.ar           1 RES1               0.0000
     14 C14        249.7203 361.3107 -63.6816 C.ar           1 RES1               0.0000
     15 C15        247.7779 363.3613 -68.2017 C.2            1 RES1               0.0000
     16 C16        249.7877 361.9563 -62.4653 C.ar           1 RES1               0.0000
     17 O17        248.1704 363.4374 -69.3624 O.2            1 RES1               0.0000
     18 H18        245.5298 364.5112 -64.3571 H              1 RES1               0.0000
     19 H19        244.7693 363.5896 -65.6665 H              1 RES1               0.0000
     20 H20        247.3464 364.2359 -62.9303 H              1 RES1               0.0000
     21 H21        248.7641 361.1892 -65.5849 H              1 RES1               0.0000
     22 H22        248.4945 365.1955 -67.6612 H              1 RES1               0.0000
     23 H23        246.9797 361.4920 -68.3601 H              1 RES1               0.0000
     24 H24        244.0290 362.7642 -63.4558 H              1 RES1               0.0000
     25 H25        244.9413 361.5143 -64.2986 H              1 RES1               0.0000
     26 H26        245.6972 362.4305 -62.9969 H              1 RES1               0.0000
     27 H27        248.9822 363.5173 -61.2474 H              1 RES1               0.0000
     28 H28        250.3921 360.4853 -63.8930 H              1 RES1               0.0000
     29 H29        250.5100 361.6412 -61.7195 H              1 RES1               0.0000
@<TRIPOS>BOND
    1    1    2 1     
    2    1    3 1     
    3    1    4 1     
    4    1    5 1     
    5    2    6 ar    
    6    2    7 ar    
    7    3    8 1     
    8    3    9 2     
    9    4   10 1     
   10    4   11 2     
   11    5   12 1     
   12    5   18 1     
   13    5   19 1     
   14    6   13 ar    
   15    6   20 1     
   16    7   14 ar    
   17    7   21 1     
   18    8   15 1     
   19    8   22 1     
   20   10   15 1     
   21   10   23 1     
   22   12   24 1     
   23   12   25 1     
   24   12   26 1     
   25   13   16 ar    
   26   13   27 1     
   27   14   16 ar    
   28   14   28 1     
   29   15   17 2     
   30   16   29 1     
@<TRIPOS>SUBSTRUCTURE
      1 RES1           1
@<TRIPOS>SET
DONOR_HYDROGENS      STATIC     ATOMS    <user>   **** ""
2 22 23
ATOM$RED        STATIC     ATOMS    COLORGROUP SYSTEM
2 22 23
@<TRIPOS>COMMENT
> <Gold.Version>
2022.3.0

> <Gold.Id.Protein>
unknown|7ts3_clean|pdb

> <Gold.Protein.RotatedTorsions>
[ 9495 9432 9431 9429 ] final   78.40 input   59.98 | X-H torsion
[ 7831 7798 7797 7794 ] final  143.78 input   59.99 | X-H torsion

> <Gold.Protein.ActiveResidues>
 ASP403  THR404  LEU406  ILE407  TYR408  ALA410  LYS411  TRP414  GLN425  TRP426 
 SER427  LYS428  LEU429  GLN430  VAL431  PHE432  ASP433  TYR453  SER462  ALA463 
 ILE464 

> <Gold.Protein.RotatedAtoms>
  244.9490  356.3950  -69.4688 H   0  0  0  0  0  0  0  0  0  0  0  0  # atno 7831 bound_to 7798
  250.0251  365.8555  -62.6571 H   0  0  0  0  0  0  0  0  0  0  0  0  # atno 9495 bound_to 9432
  249.1859  365.7479  -61.2669 LP  0  0  0  0  0  0  0  0  0  0  0  0  # atno 27287 bound_to 9432
  250.0427  364.4674  -61.8079 LP  0  0  0  0  0  0  0  0  0  0  0  0  # atno 27288 bound_to 9432
  246.0949  356.4131  -68.3132 LP  0  0  0  0  0  0  0  0  0  0  0  0  # atno 27293 bound_to 7798
  245.6702  355.0056  -69.0238 LP  0  0  0  0  0  0  0  0  0  0  0  0  # atno 27294 bound_to 7798

> <Gold.Score>
     Fitness  S(hb_ext) S(vdw_ext)  S(hb_int)    S(int)      intcor
     33.40       5.50      22.43       0.00      -2.93      -0.76

> <Gold.Goldscore.Fitness>
33.4010

> <Gold.Goldscore.Internal.Vdw>
-2.9501

> <Gold.Goldscore.Internal.Torsion>
-0.7377

> <Gold.Goldscore.External.Vdw>
22.4255

> <Gold.Goldscore.Internal.HBond>
0.0000

> <Gold.Goldscore.External.HBond>
5.4953

> <Gold.Goldscore.Internal.Correction>
-0.7585

> <Gold.Goldscore.Hbonds>
donor molecule, donor type, donor heavy atom, donor atom, acceptor molecule, acceptor atom, score
      P1  H  6685  6731       L1    17  0.92

> <Gold.Goldscore.Internal.Vdw.Weighted>
-2.9501

> <Gold.Goldscore.Internal.Torsion.Weighted>
-0.7377

> <Gold.Goldscore.External.Vdw.Weighted>
30.8350

> <Gold.Goldscore.Internal.HBond.Weighted>
0.0000

> <Gold.Goldscore.External.HBond.Weighted>
5.4953

> <Gold.Goldscore.Internal.Correction.Weighted>
-0.7585

> <Gold.Rescore>
     Score     S(PLP)   S(hbond)     S(cho)   S(metal)  DE(clash)   DE(tors)     intcor
     31.70     -33.23       0.05       0.00       0.00       0.43       0.63       ----

> <Gold.PLP.Fitness>
31.7017

> <Gold.PLP.PLP>
-33.2291

> <Gold.PLP.part.hbond>
-1.0015

> <Gold.PLP.part.metal>
0.0000

> <Gold.PLP.part.buried>
-0.0699

> <Gold.PLP.part.nonpolar>
-32.6712

> <Gold.PLP.part.repulsive>
0.5499

> <Gold.PLP.ligand.clash>
0.4309

> <Gold.PLP.ligand.torsion>
0.6274

> <Gold.PLP.Chemscore.Hbond>
0.0528

> <Gold.PLP.Chemscore.CHOScore>
0.0000

> <Gold.PLP.Chemscore.Metal>
0.0000

> <Gold.Chemscore.Hbonds>
donor molecule, donor type, donor heavy atom, donor atom, acceptor molecule, acceptor atom, score
      P1  H  6685  6731       L1    17  1.00

> <Gold.PLP.Chemscore.Internal.Correction>
   9.000000E+99

