#       Name:                CT1002167954
#       Creating user name   hitesit
#       Creation time:       Sun Apr 16 02:26:49 2023


#       File generated by GOLD software.
#

@<TRIPOS>MOLECULE
CT1002167954|ligand_prepared|mol2|1|dock5
    29    30     1
SMALL
NO_CHARGES


@<TRIPOS>ATOM
      1 C1         248.1548 364.9542 -68.0742 C.3            1 RES1               0.0000
      2 C2         248.1955 364.2838 -66.6857 C.ar           1 RES1               0.0000
      3 C3         249.1952 366.0698 -68.0419 C.2            1 RES1               0.0000
      4 C4         248.4528 363.8548 -69.0876 C.2            1 RES1               0.0000
      5 C5         246.7826 365.5724 -68.4295 C.3            1 RES1               0.0000
      6 C6         247.6245 364.9078 -65.5806 C.ar           1 RES1               0.0000
      7 C7         248.7969 363.0426 -66.4953 C.ar           1 RES1               0.0000
      8 N8         250.3563 365.8711 -68.7291 N.am           1 RES1               0.0000
      9 O9         249.0163 367.0919 -67.3909 O.2            1 RES1               0.0000
     10 N10        249.6142 363.9443 -69.8093 N.am           1 RES1               0.0000
     11 O11        247.7004 362.9030 -69.2559 O.2            1 RES1               0.0000
     12 C12        246.6892 366.0759 -69.8613 C.3            1 RES1               0.0000
     13 C13        247.6512 364.3113 -64.3309 C.ar           1 RES1               0.0000
     14 C14        248.8227 362.4479 -65.2446 C.ar           1 RES1               0.0000
     15 C15        250.5943 364.8865 -69.6541 C.2            1 RES1               0.0000
     16 C16        248.2498 363.0809 -64.1621 C.ar           1 RES1               0.0000
     17 O17        251.6363 364.8694 -70.3030 O.2            1 RES1               0.0000
     18 H18        246.0030 364.8175 -68.2692 H              1 RES1               0.0000
     19 H19        246.5848 366.4087 -67.7477 H              1 RES1               0.0000
     20 H20        247.1511 365.8774 -65.6936 H              1 RES1               0.0000
     21 H21        249.2549 362.5266 -67.3324 H              1 RES1               0.0000
     22 H22        251.1181 366.5140 -68.5376 H              1 RES1               0.0000
     23 H23        249.7618 363.2439 -70.5290 H              1 RES1               0.0000
     24 H24        245.7066 366.4996 -70.0579 H              1 RES1               0.0000
     25 H25        247.4341 366.8464 -70.0486 H              1 RES1               0.0000
     26 H26        246.8558 365.2647 -70.5670 H              1 RES1               0.0000
     27 H27        247.2002 364.8142 -63.4818 H              1 RES1               0.0000
     28 H28        249.2954 361.4798 -65.1163 H              1 RES1               0.0000
     29 H29        248.2703 362.6137 -63.1831 H              1 RES1               0.0000
@<TRIPOS>BOND
    1    1    2 1     
    2    1    3 1     
    3    1    4 1     
    4    1    5 1     
    5    2    6 ar    
    6    2    7 ar    
    7    3    8 1     
    8    3    9 2     
    9    4   10 1     
   10    4   11 2     
   11    5   12 1     
   12    5   18 1     
   13    5   19 1     
   14    6   13 ar    
   15    6   20 1     
   16    7   14 ar    
   17    7   21 1     
   18    8   15 1     
   19    8   22 1     
   20   10   15 1     
   21   10   23 1     
   22   12   24 1     
   23   12   25 1     
   24   12   26 1     
   25   13   16 ar    
   26   13   27 1     
   27   14   16 ar    
   28   14   28 1     
   29   15   17 2     
   30   16   29 1     
@<TRIPOS>SUBSTRUCTURE
      1 RES1           1
@<TRIPOS>SET
DONOR_HYDROGENS      STATIC     ATOMS    <user>   **** ""
2 22 23
ATOM$RED        STATIC     ATOMS    COLORGROUP SYSTEM
2 22 23
@<TRIPOS>COMMENT
> <Gold.Version>
2022.3.0

> <Gold.Id.Protein>
unknown|7ts3_clean|pdb

> <Gold.Protein.RotatedTorsions>
[ 9495 9432 9431 9429 ] final  -73.35 input   59.98 | X-H torsion
[ 7831 7798 7797 7794 ] final   87.88 input   59.99 | X-H torsion

> <Gold.Protein.ActiveResidues>
 ASP403  THR404  LEU406  ILE407  TYR408  ALA410  LYS411  TRP414  GLN425  TRP426 
 SER427  LYS428  LEU429  GLN430  VAL431  PHE432  ASP433  TYR453  SER462  ALA463 
 ILE464 

> <Gold.Protein.RotatedAtoms>
  245.4240  356.8632  -68.8980 H   0  0  0  0  0  0  0  0  0  0  0  0  # atno 7831 bound_to 7798
  249.2809  365.2684  -61.1081 H   0  0  0  0  0  0  0  0  0  0  0  0  # atno 9495 bound_to 9432
  250.2541  364.6341  -62.2478 LP  0  0  0  0  0  0  0  0  0  0  0  0  # atno 27287 bound_to 9432
  249.7239  366.1723  -62.3868 LP  0  0  0  0  0  0  0  0  0  0  0  0  # atno 27288 bound_to 9432
  246.2117  355.5392  -68.3732 LP  0  0  0  0  0  0  0  0  0  0  0  0  # atno 27293 bound_to 7798
  245.0752  355.4082  -69.5385 LP  0  0  0  0  0  0  0  0  0  0  0  0  # atno 27294 bound_to 7798

> <Gold.Score>
     Fitness  S(hb_ext) S(vdw_ext)  S(hb_int)    S(int)      intcor
     31.23       6.03      19.23       0.00      -1.25      -0.76

> <Gold.Goldscore.Fitness>
31.2337

> <Gold.Goldscore.Internal.Vdw>
-1.5553

> <Gold.Goldscore.Internal.Torsion>
-0.4488

> <Gold.Goldscore.External.Vdw>
19.2325

> <Gold.Goldscore.Internal.HBond>
0.0000

> <Gold.Goldscore.External.HBond>
6.0345

> <Gold.Goldscore.Internal.Correction>
-0.7585

> <Gold.Goldscore.Hbonds>
donor molecule, donor type, donor heavy atom, donor atom, acceptor molecule, acceptor atom, score
      P1  H  6685  6731       L1    11  1.00
      P1  H  8008  8059       L1     9  0.02

> <Gold.Goldscore.Internal.Vdw.Weighted>
-1.5553

> <Gold.Goldscore.Internal.Torsion.Weighted>
-0.4488

> <Gold.Goldscore.External.Vdw.Weighted>
26.4447

> <Gold.Goldscore.Internal.HBond.Weighted>
0.0000

> <Gold.Goldscore.External.HBond.Weighted>
6.0345

> <Gold.Goldscore.Internal.Correction.Weighted>
-0.7585

> <Gold.Rescore>
     Score     S(PLP)   S(hbond)     S(cho)   S(metal)  DE(clash)   DE(tors)     intcor
     31.10     -31.15       0.53       0.00       0.00       0.89       0.37       ----

> <Gold.PLP.Fitness>
31.0988

> <Gold.PLP.PLP>
-31.1458

> <Gold.PLP.part.hbond>
-4.0000

> <Gold.PLP.part.metal>
0.0000

> <Gold.PLP.part.buried>
-4.6914

> <Gold.PLP.part.nonpolar>
-24.5761

> <Gold.PLP.part.repulsive>
2.3913

> <Gold.PLP.ligand.clash>
0.8919

> <Gold.PLP.ligand.torsion>
0.3711

> <Gold.PLP.Chemscore.Hbond>
0.5290

> <Gold.PLP.Chemscore.CHOScore>
0.0000

> <Gold.PLP.Chemscore.Metal>
0.0000

> <Gold.Chemscore.Hbonds>
donor molecule, donor type, donor heavy atom, donor atom, acceptor molecule, acceptor atom, score
      P1  H  6685  6731       L1    11  1.00
      P1  H  8008  8059       L1     9  0.78

> <Gold.PLP.Chemscore.Internal.Correction>
   9.000000E+99

