#       Name:                CT1002167954
#       Creating user name   hitesit
#       Creation time:       Sun Apr 16 20:15:58 2023


#       File generated by GOLD software.
#

@<TRIPOS>MOLECULE
CT1002167954|ligand_prepared|mol2|1|dock9
    29    30     1
SMALL
NO_CHARGES


@<TRIPOS>ATOM
      1 C1          14.6488  13.4400  12.6545 C.3            1 RES1               0.0000
      2 C2          15.8323  13.8694  13.5454 C.ar           1 RES1               0.0000
      3 C3          14.7160  14.3110  11.4035 C.2            1 RES1               0.0000
      4 C4          14.8351  11.9507  12.3864 C.2            1 RES1               0.0000
      5 C5          13.2650  13.6368  13.3163 C.3            1 RES1               0.0000
      6 C6          15.7459  15.0109  14.3367 C.ar           1 RES1               0.0000
      7 C7          17.0138  13.1341  13.5884 C.ar           1 RES1               0.0000
      8 N8          15.1440  13.7258  10.2484 N.am           1 RES1               0.0000
      9 O9          14.4355  15.5028  11.4389 O.2            1 RES1               0.0000
     10 N10         15.0897  11.5570  11.0987 N.am           1 RES1               0.0000
     11 O11         14.7802  11.1161  13.2812 O.2            1 RES1               0.0000
     12 C12         12.1486  12.8490  12.6490 C.3            1 RES1               0.0000
     13 C13         16.8012  15.4017  15.1441 C.ar           1 RES1               0.0000
     14 C14         18.0682  13.5268  14.3963 C.ar           1 RES1               0.0000
     15 C15         15.2831  12.3799  10.0228 C.2            1 RES1               0.0000
     16 C16         17.9628  14.6597  15.1748 C.ar           1 RES1               0.0000
     17 O17         15.5626  11.9533   8.9061 O.2            1 RES1               0.0000
     18 H18         13.3306  13.3340  14.3686 H              1 RES1               0.0000
     19 H19         13.0092  14.7032  13.2895 H              1 RES1               0.0000
     20 H20         14.8406  15.6088  14.3238 H              1 RES1               0.0000
     21 H21         17.1196  12.2399  12.9836 H              1 RES1               0.0000
     22 H22         15.3829  14.3463   9.4815 H              1 RES1               0.0000
     23 H23         15.1396  10.5580  10.9263 H              1 RES1               0.0000
     24 H24         11.1998  13.0229  13.1522 H              1 RES1               0.0000
     25 H25         12.0386  13.1428  11.6072 H              1 RES1               0.0000
     26 H26         12.3580  11.7817  12.6799 H              1 RES1               0.0000
     27 H27         16.7138  16.2949  15.7538 H              1 RES1               0.0000
     28 H28         18.9807  12.9402  14.4169 H              1 RES1               0.0000
     29 H29         18.7892  14.9658  15.8077 H              1 RES1               0.0000
@<TRIPOS>BOND
    1    1    2 1     
    2    1    3 1     
    3    1    4 1     
    4    1    5 1     
    5    2    6 ar    
    6    2    7 ar    
    7    3    8 1     
    8    3    9 2     
    9    4   10 1     
   10    4   11 2     
   11    5   12 1     
   12    5   18 1     
   13    5   19 1     
   14    6   13 ar    
   15    6   20 1     
   16    7   14 ar    
   17    7   21 1     
   18    8   15 1     
   19    8   22 1     
   20   10   15 1     
   21   10   23 1     
   22   12   24 1     
   23   12   25 1     
   24   12   26 1     
   25   13   16 ar    
   26   13   27 1     
   27   14   16 ar    
   28   14   28 1     
   29   15   17 2     
   30   16   29 1     
@<TRIPOS>SUBSTRUCTURE
      1 RES1           1
@<TRIPOS>SET
DONOR_HYDROGENS      STATIC     ATOMS    <user>   **** ""
2 22 23
ATOM$RED        STATIC     ATOMS    COLORGROUP SYSTEM
2 22 23
@<TRIPOS>COMMENT
> <Gold.Version>
2022.3.0

> <Gold.Id.Protein>
unknown|3mvj_clean|pdb

> <Gold.Protein.RotatedTorsions>
[ 8483 8455 8453 8450 ] final  105.04 input   60.02 | X-H torsion
[ 15483 15454 15453 15451 ] final  124.31 input   59.98 | X-H torsion
[ 5446 5415 5414 5412 ] final  -39.61 input   60.02 | X-H torsion
[ 7755 7713 7712 7711 ] final  -39.13 input   60.03 | X-H torsion
[ 7530 7488 7487 7485 ] final   35.66 input   60.03 | X-H torsion

> <Gold.Protein.ActiveResidues>
 THR48   LEU49   GLY50   THR51   GLY52   ARG56   VAL57   MET58   LEU59   TYR69  
 ALA70   MET71   LYS72   GLU91   LEU95   VAL104  LYS105  LEU106  MET118  VAL119 
 MET120  GLU121  TYR122  VAL123  PRO124  GLY125  GLY126  GLU127  PHE129  TYR164 
 LYS168  PRO169  GLU170  ASN171  LEU172  LEU173  ILE174  GLN181  VAL182  THR183 
 ASP184  PHE185  THR324  PHE327  ASP328  TYR330 

> <Gold.Protein.RotatedAtoms>
   25.0797   14.6526   19.4761 H   0  0  0  0  0  0  0  0  0  0  0  0  # atno 5446 bound_to 5415
   10.9435   21.6031   13.2605 H   0  0  0  0  0  0  0  0  0  0  0  0  # atno 7530 bound_to 7488
    7.1356   12.7120   15.7510 H   0  0  0  0  0  0  0  0  0  0  0  0  # atno 7755 bound_to 7713
    6.1014   13.4110   14.6609 H   0  0  0  0  0  0  0  0  0  0  0  0  # atno 7756 bound_to 7713
    7.6470   13.0222   14.2055 H   0  0  0  0  0  0  0  0  0  0  0  0  # atno 7757 bound_to 7713
   14.8871   18.1030   14.0219 H   0  0  0  0  0  0  0  0  0  0  0  0  # atno 8483 bound_to 8455
   15.1057    8.7877   17.2383 H   0  0  0  0  0  0  0  0  0  0  0  0  # atno 15483 bound_to 15454
   14.1909   19.3130   14.8580 LP  0  0  0  0  0  0  0  0  0  0  0  0  # atno 16480 bound_to 8455
   15.6243   18.7000   15.3441 LP  0  0  0  0  0  0  0  0  0  0  0  0  # atno 16481 bound_to 8455
   16.3072    9.0124   18.3121 LP  0  0  0  0  0  0  0  0  0  0  0  0  # atno 16486 bound_to 15454
   15.1553    7.8898   18.5942 LP  0  0  0  0  0  0  0  0  0  0  0  0  # atno 16487 bound_to 15454
   26.6038   14.9854   19.9407 LP  0  0  0  0  0  0  0  0  0  0  0  0  # atno 16508 bound_to 5415
   26.3268   13.8789   18.7722 LP  0  0  0  0  0  0  0  0  0  0  0  0  # atno 16509 bound_to 5415

> <Gold.Score>
     Fitness  S(hb_ext) S(vdw_ext)  S(hb_int)    S(int)      intcor
     36.85       0.92      27.08       0.00      -1.31      -0.76

> <Gold.Goldscore.Fitness>
36.8486

> <Gold.Goldscore.Internal.Vdw>
-1.2421

> <Gold.Goldscore.Internal.Torsion>
-0.8224

> <Gold.Goldscore.External.Vdw>
27.0795

> <Gold.Goldscore.Internal.HBond>
0.0000

> <Gold.Goldscore.External.HBond>
0.9202

> <Gold.Goldscore.Internal.Correction>
-0.7585

> <Gold.Goldscore.Hbonds>
donor molecule, donor type, donor heavy atom, donor atom, acceptor molecule, acceptor atom, score
      P1  H  2793  2846       L1     9  0.15

> <Gold.Goldscore.Internal.Vdw.Weighted>
-1.2421

> <Gold.Goldscore.Internal.Torsion.Weighted>
-0.8224

> <Gold.Goldscore.External.Vdw.Weighted>
37.2343

> <Gold.Goldscore.Internal.HBond.Weighted>
0.0000

> <Gold.Goldscore.External.HBond.Weighted>
0.9202

> <Gold.Goldscore.Internal.Correction.Weighted>
-0.7585

> <Gold.Rescore>
     Score     S(PLP)   S(hbond)     S(cho)   S(metal)  DE(clash)   DE(tors)     intcor
     36.92     -36.63       0.96       0.00       0.00       0.08       1.25       ----

> <Gold.PLP.Fitness>
36.9208

> <Gold.PLP.PLP>
-36.6258

> <Gold.PLP.part.hbond>
-2.7331

> <Gold.PLP.part.metal>
0.0000

> <Gold.PLP.part.buried>
-4.7660

> <Gold.PLP.part.nonpolar>
-31.6855

> <Gold.PLP.part.repulsive>
0.5748

> <Gold.PLP.ligand.clash>
0.0789

> <Gold.PLP.ligand.torsion>
1.2512

> <Gold.PLP.Chemscore.Hbond>
0.9588

> <Gold.PLP.Chemscore.CHOScore>
0.0000

> <Gold.PLP.Chemscore.Metal>
0.0000

> <Gold.PLP.Chemscore.Internal.Correction>
   9.000000E+99

