#       Name:                CT1002167954
#       Creating user name   hitesit
#       Creation time:       Sun Apr 16 20:15:57 2023


#       File generated by GOLD software.
#

@<TRIPOS>MOLECULE
CT1002167954|ligand_prepared|mol2|1|dock8
    29    30     1
SMALL
NO_CHARGES


@<TRIPOS>ATOM
      1 C1          16.0376  14.7678  14.0263 C.3            1 RES1               0.0000
      2 C2          15.6084  13.9835  12.7696 C.ar           1 RES1               0.0000
      3 C3          16.2562  13.7312  15.1244 C.2            1 RES1               0.0000
      4 C4          17.2949  15.5387  13.6393 C.2            1 RES1               0.0000
      5 C5          14.9837  15.7879  14.5164 C.3            1 RES1               0.0000
      6 C6          14.9779  14.6309  11.7112 C.ar           1 RES1               0.0000
      7 C7          15.8381  12.6152  12.6531 C.ar           1 RES1               0.0000
      8 N8          17.5423  13.4470  15.4782 N.am           1 RES1               0.0000
      9 O9          15.3159  13.1432  15.6444 O.2            1 RES1               0.0000
     10 N10         18.4708  15.2005  14.2562 N.am           1 RES1               0.0000
     11 O11         17.2810  16.4246  12.7936 O.2            1 RES1               0.0000
     12 C12         15.3111  16.4072  15.8660 C.3            1 RES1               0.0000
     13 C13         14.5936  13.9362  10.5763 C.ar           1 RES1               0.0000
     14 C14         15.4528  11.9223  11.5173 C.ar           1 RES1               0.0000
     15 C15         18.6573  14.1690  15.1357 C.2            1 RES1               0.0000
     16 C16         14.8312  12.5817  10.4784 C.ar           1 RES1               0.0000
     17 O17         19.7567  13.8926  15.6068 O.2            1 RES1               0.0000
     18 H18         14.8950  16.5891  13.7724 H              1 RES1               0.0000
     19 H19         14.0111  15.2852  14.5854 H              1 RES1               0.0000
     20 H20         14.7804  15.6960  11.7714 H              1 RES1               0.0000
     21 H21         16.3247  12.0755  13.4584 H              1 RES1               0.0000
     22 H22         17.6885  12.6214  16.0502 H              1 RES1               0.0000
     23 H23         19.2823  15.7706  14.0400 H              1 RES1               0.0000
     24 H24         14.5400  17.1150  16.1629 H              1 RES1               0.0000
     25 H25         15.3819  15.6409  16.6351 H              1 RES1               0.0000
     26 H26         16.2606  16.9371  15.8270 H              1 RES1               0.0000
     27 H27         14.1034  14.4595   9.7620 H              1 RES1               0.0000
     28 H28         15.6413  10.8563  11.4448 H              1 RES1               0.0000
     29 H29         14.5304  12.0378   9.5890 H              1 RES1               0.0000
@<TRIPOS>BOND
    1    1    2 1     
    2    1    3 1     
    3    1    4 1     
    4    1    5 1     
    5    2    6 ar    
    6    2    7 ar    
    7    3    8 1     
    8    3    9 2     
    9    4   10 1     
   10    4   11 2     
   11    5   12 1     
   12    5   18 1     
   13    5   19 1     
   14    6   13 ar    
   15    6   20 1     
   16    7   14 ar    
   17    7   21 1     
   18    8   15 1     
   19    8   22 1     
   20   10   15 1     
   21   10   23 1     
   22   12   24 1     
   23   12   25 1     
   24   12   26 1     
   25   13   16 ar    
   26   13   27 1     
   27   14   16 ar    
   28   14   28 1     
   29   15   17 2     
   30   16   29 1     
@<TRIPOS>SUBSTRUCTURE
      1 RES1           1
@<TRIPOS>SET
DONOR_HYDROGENS      STATIC     ATOMS    <user>   **** ""
2 22 23
ATOM$RED        STATIC     ATOMS    COLORGROUP SYSTEM
2 22 23
@<TRIPOS>COMMENT
> <Gold.Version>
2022.3.0

> <Gold.Id.Protein>
unknown|3mvj_clean|pdb

> <Gold.Protein.RotatedTorsions>
[ 8483 8455 8453 8450 ] final   -5.28 input   60.02 | X-H torsion
[ 15483 15454 15453 15451 ] final   69.32 input   59.98 | X-H torsion
[ 5446 5415 5414 5412 ] final  138.99 input   60.02 | X-H torsion
[ 7755 7713 7712 7711 ] final   31.16 input   60.03 | X-H torsion
[ 7530 7488 7487 7485 ] final -150.64 input   60.03 | X-H torsion

> <Gold.Protein.ActiveResidues>
 THR48   LEU49   GLY50   THR51   GLY52   ARG56   VAL57   MET58   LEU59   TYR69  
 ALA70   MET71   LYS72   GLU91   LEU95   VAL104  LYS105  LEU106  MET118  VAL119 
 MET120  GLU121  TYR122  VAL123  PRO124  GLY125  GLY126  GLU127  PHE129  TYR164 
 LYS168  PRO169  GLU170  ASN171  LEU172  LEU173  ILE174  GLN181  VAL182  THR183 
 ASP184  PHE185  THR324  PHE327  ASP328  TYR330 

> <Gold.Protein.RotatedAtoms>
   26.9192   14.3461   19.2982 H   0  0  0  0  0  0  0  0  0  0  0  0  # atno 5446 bound_to 5415
    9.5546   20.5232   13.8896 H   0  0  0  0  0  0  0  0  0  0  0  0  # atno 7530 bound_to 7488
    6.1804   13.1458   15.4161 H   0  0  0  0  0  0  0  0  0  0  0  0  # atno 7755 bound_to 7713
    6.9494   13.3397   13.9608 H   0  0  0  0  0  0  0  0  0  0  0  0  # atno 7756 bound_to 7713
    7.7549   12.6596   15.2400 H   0  0  0  0  0  0  0  0  0  0  0  0  # atno 7757 bound_to 7713
   14.1357   19.2431   14.7267 H   0  0  0  0  0  0  0  0  0  0  0  0  # atno 8483 bound_to 8455
   15.8241    9.2187   17.4499 H   0  0  0  0  0  0  0  0  0  0  0  0  # atno 15483 bound_to 15454
   15.5466   18.8178   15.4169 LP  0  0  0  0  0  0  0  0  0  0  0  0  # atno 16480 bound_to 8455
   15.0255   18.0466   14.0752 LP  0  0  0  0  0  0  0  0  0  0  0  0  # atno 16481 bound_to 8455
   15.9978    8.3952   18.8423 LP  0  0  0  0  0  0  0  0  0  0  0  0  # atno 16486 bound_to 15454
   14.7410    8.0728   17.8508 LP  0  0  0  0  0  0  0  0  0  0  0  0  # atno 16487 bound_to 15454
   25.3815   14.0364   18.8636 LP  0  0  0  0  0  0  0  0  0  0  0  0  # atno 16508 bound_to 5415
   25.6978   15.1363   20.0284 LP  0  0  0  0  0  0  0  0  0  0  0  0  # atno 16509 bound_to 5415

> <Gold.Score>
     Fitness  S(hb_ext) S(vdw_ext)  S(hb_int)    S(int)      intcor
     39.24       0.06      29.31       0.00      -1.12      -0.76

> <Gold.Goldscore.Fitness>
39.2443

> <Gold.Goldscore.Internal.Vdw>
-1.3805

> <Gold.Goldscore.Internal.Torsion>
-0.4935

> <Gold.Goldscore.External.Vdw>
29.3056

> <Gold.Goldscore.Internal.HBond>
0.0000

> <Gold.Goldscore.External.HBond>
0.0646

> <Gold.Goldscore.Internal.Correction>
-0.7585

> <Gold.Goldscore.Hbonds>
donor molecule, donor type, donor heavy atom, donor atom, acceptor molecule, acceptor atom, score
      L1  H     8    22       P1  1729  0.03

> <Gold.Goldscore.Internal.Vdw.Weighted>
-1.3805

> <Gold.Goldscore.Internal.Torsion.Weighted>
-0.4935

> <Gold.Goldscore.External.Vdw.Weighted>
40.2951

> <Gold.Goldscore.Internal.HBond.Weighted>
0.0000

> <Gold.Goldscore.External.HBond.Weighted>
0.0646

> <Gold.Goldscore.Internal.Correction.Weighted>
-0.7585

> <Gold.Rescore>
     Score     S(PLP)   S(hbond)     S(cho)   S(metal)  DE(clash)   DE(tors)     intcor
     33.09     -34.68       0.00       0.00       0.00       1.17       0.21       ----

> <Gold.PLP.Fitness>
33.0914

> <Gold.PLP.PLP>
-34.6773

> <Gold.PLP.part.hbond>
0.0000

> <Gold.PLP.part.metal>
0.0000

> <Gold.PLP.part.buried>
-2.5270

> <Gold.PLP.part.nonpolar>
-34.6151

> <Gold.PLP.part.repulsive>
1.0892

> <Gold.PLP.ligand.clash>
1.1717

> <Gold.PLP.ligand.torsion>
0.2071

> <Gold.PLP.Chemscore.Hbond>
0.0000

> <Gold.PLP.Chemscore.CHOScore>
0.0000

> <Gold.PLP.Chemscore.Metal>
0.0000

> <Gold.Chemscore.Hbonds>
donor molecule, donor type, donor heavy atom, donor atom, acceptor molecule, acceptor atom, score
      L1  H     8    22       P1  1729  0.11

> <Gold.PLP.Chemscore.Internal.Correction>
   9.000000E+99

