#       Name:                CT1002167954
#       Creating user name   hitesit
#       Creation time:       Sun Apr 16 20:15:55 2023


#       File generated by GOLD software.
#

@<TRIPOS>MOLECULE
CT1002167954|ligand_prepared|mol2|1|dock6
    29    30     1
SMALL
NO_CHARGES


@<TRIPOS>ATOM
      1 C1          15.6682  14.0114  13.9247 C.3            1 RES1               0.0000
      2 C2          15.4215  13.4530  12.5083 C.ar           1 RES1               0.0000
      3 C3          17.1774  13.9678  14.1456 C.2            1 RES1               0.0000
      4 C4          15.0779  15.4171  13.9379 C.2            1 RES1               0.0000
      5 C5          14.9838  13.1953  15.0460 C.3            1 RES1               0.0000
      6 C6          15.1023  14.3060  11.4560 C.ar           1 RES1               0.0000
      7 C7          15.5120  12.0901  12.2384 C.ar           1 RES1               0.0000
      8 N8          17.8559  15.1501  14.1076 N.am           1 RES1               0.0000
      9 O9          17.7685  12.9079  14.3112 O.2            1 RES1               0.0000
     10 N10         15.9379  16.4733  14.0882 N.am           1 RES1               0.0000
     11 O11         13.8776  15.6205  13.8027 O.2            1 RES1               0.0000
     12 C12         13.5685  12.7548  14.7071 C.3            1 RES1               0.0000
     13 C13         14.8844  13.8146  10.1795 C.ar           1 RES1               0.0000
     14 C14         15.2935  11.6008  10.9612 C.ar           1 RES1               0.0000
     15 C15         17.3034  16.4052  14.1428 C.2            1 RES1               0.0000
     16 C16         14.9802  12.4620   9.9311 C.ar           1 RES1               0.0000
     17 O17         18.0123  17.4042  14.2237 O.2            1 RES1               0.0000
     18 H18         15.5901  12.3053  15.2552 H              1 RES1               0.0000
     19 H19         14.9553  13.8037  15.9584 H              1 RES1               0.0000
     20 H20         15.0201  15.3732  11.6329 H              1 RES1               0.0000
     21 H21         15.7562  11.3938  13.0336 H              1 RES1               0.0000
     22 H22         18.8677  15.0962  14.0473 H              1 RES1               0.0000
     23 H23         15.5216  17.3957  14.1668 H              1 RES1               0.0000
     24 H24         13.1347  12.1863  15.5271 H              1 RES1               0.0000
     25 H25         12.9313  13.6161  14.5176 H              1 RES1               0.0000
     26 H26         13.5623  12.1266  13.8187 H              1 RES1               0.0000
     27 H27         14.6368  14.4964   9.3726 H              1 RES1               0.0000
     28 H28         15.3694  10.5354  10.7704 H              1 RES1               0.0000
     29 H29         14.8099  12.0774   8.9310 H              1 RES1               0.0000
@<TRIPOS>BOND
    1    1    2 1     
    2    1    3 1     
    3    1    4 1     
    4    1    5 1     
    5    2    6 ar    
    6    2    7 ar    
    7    3    8 1     
    8    3    9 2     
    9    4   10 1     
   10    4   11 2     
   11    5   12 1     
   12    5   18 1     
   13    5   19 1     
   14    6   13 ar    
   15    6   20 1     
   16    7   14 ar    
   17    7   21 1     
   18    8   15 1     
   19    8   22 1     
   20   10   15 1     
   21   10   23 1     
   22   12   24 1     
   23   12   25 1     
   24   12   26 1     
   25   13   16 ar    
   26   13   27 1     
   27   14   16 ar    
   28   14   28 1     
   29   15   17 2     
   30   16   29 1     
@<TRIPOS>SUBSTRUCTURE
      1 RES1           1
@<TRIPOS>SET
DONOR_HYDROGENS      STATIC     ATOMS    <user>   **** ""
2 22 23
ATOM$RED        STATIC     ATOMS    COLORGROUP SYSTEM
2 22 23
@<TRIPOS>COMMENT
> <Gold.Version>
2022.3.0

> <Gold.Id.Protein>
unknown|3mvj_clean|pdb

> <Gold.Protein.RotatedTorsions>
[ 8483 8455 8453 8450 ] final  -47.11 input   60.02 | X-H torsion
[ 15483 15454 15453 15451 ] final -117.41 input   59.98 | X-H torsion
[ 5446 5415 5414 5412 ] final  120.88 input   60.02 | X-H torsion
[ 7755 7713 7712 7711 ] final   70.25 input   60.03 | X-H torsion
[ 7530 7488 7487 7485 ] final  -86.76 input   60.03 | X-H torsion

> <Gold.Protein.ActiveResidues>
 THR48   LEU49   GLY50   THR51   GLY52   ARG56   VAL57   MET58   LEU59   TYR69  
 ALA70   MET71   LYS72   GLU91   LEU95   VAL104  LYS105  LEU106  MET118  VAL119 
 MET120  GLU121  TYR122  VAL123  PRO124  GLY125  GLY126  GLU127  PHE129  TYR164 
 LYS168  PRO169  GLU170  ASN171  LEU172  LEU173  ILE174  GLN181  VAL182  THR183 
 ASP184  PHE185  THR324  PHE327  ASP328  TYR330 

> <Gold.Protein.RotatedAtoms>
   26.8174   14.1580   19.0954 H   0  0  0  0  0  0  0  0  0  0  0  0  # atno 5446 bound_to 5415
    9.8313   20.4406   12.9426 H   0  0  0  0  0  0  0  0  0  0  0  0  # atno 7530 bound_to 7488
    6.0621   13.3712   14.8287 H   0  0  0  0  0  0  0  0  0  0  0  0  # atno 7755 bound_to 7713
    7.5256   13.0975   14.1008 H   0  0  0  0  0  0  0  0  0  0  0  0  # atno 7756 bound_to 7713
    7.2974   12.6762   15.6876 H   0  0  0  0  0  0  0  0  0  0  0  0  # atno 7757 bound_to 7713
   14.5300   19.4007   15.2427 H   0  0  0  0  0  0  0  0  0  0  0  0  # atno 8483 bound_to 8455
   15.1388    7.8894   18.5702 H   0  0  0  0  0  0  0  0  0  0  0  0  # atno 15483 bound_to 15454
   15.7269   18.3270   14.9931 LP  0  0  0  0  0  0  0  0  0  0  0  0  # atno 16480 bound_to 8455
   14.4480   18.3787   13.9791 LP  0  0  0  0  0  0  0  0  0  0  0  0  # atno 16481 bound_to 8455
   15.1213    8.8105   17.2291 LP  0  0  0  0  0  0  0  0  0  0  0  0  # atno 16486 bound_to 15454
   16.3078    8.9965   18.3356 LP  0  0  0  0  0  0  0  0  0  0  0  0  # atno 16487 bound_to 15454
   25.1920   14.2019   19.0209 LP  0  0  0  0  0  0  0  0  0  0  0  0  # atno 16508 bound_to 5415
   25.9898   15.1602   20.0753 LP  0  0  0  0  0  0  0  0  0  0  0  0  # atno 16509 bound_to 5415

> <Gold.Score>
     Fitness  S(hb_ext) S(vdw_ext)  S(hb_int)    S(int)      intcor
     33.84       2.00      25.70       0.00      -3.49      -0.77

> <Gold.Goldscore.Fitness>
33.8411

> <Gold.Goldscore.Internal.Vdw>
-3.4200

> <Gold.Goldscore.Internal.Torsion>
-0.8434

> <Gold.Goldscore.External.Vdw>
25.6988

> <Gold.Goldscore.Internal.HBond>
0.0000

> <Gold.Goldscore.External.HBond>
2.0000

> <Gold.Goldscore.Internal.Correction>
-0.7686

> <Gold.Goldscore.Hbonds>
donor molecule, donor type, donor heavy atom, donor atom, acceptor molecule, acceptor atom, score
      L1  H    10    23       P1  8455  1.00

> <Gold.Goldscore.Internal.Vdw.Weighted>
-3.4200

> <Gold.Goldscore.Internal.Torsion.Weighted>
-0.8434

> <Gold.Goldscore.External.Vdw.Weighted>
35.3359

> <Gold.Goldscore.Internal.HBond.Weighted>
0.0000

> <Gold.Goldscore.External.HBond.Weighted>
2.0000

> <Gold.Goldscore.Internal.Correction.Weighted>
-0.7686

> <Gold.Rescore>
     Score     S(PLP)   S(hbond)     S(cho)   S(metal)  DE(clash)   DE(tors)     intcor
     33.37     -33.06       1.00       0.00       0.00       1.95       0.37       ----

> <Gold.PLP.Fitness>
33.3656

> <Gold.PLP.PLP>
-33.0644

> <Gold.PLP.part.hbond>
-2.0000

> <Gold.PLP.part.metal>
0.0000

> <Gold.PLP.part.buried>
-2.6064

> <Gold.PLP.part.nonpolar>
-30.6376

> <Gold.PLP.part.repulsive>
0.4052

> <Gold.PLP.ligand.clash>
1.9488

> <Gold.PLP.ligand.torsion>
0.3750

> <Gold.PLP.Chemscore.Hbond>
1.0000

> <Gold.PLP.Chemscore.CHOScore>
0.0000

> <Gold.PLP.Chemscore.Metal>
0.0000

> <Gold.Chemscore.Hbonds>
donor molecule, donor type, donor heavy atom, donor atom, acceptor molecule, acceptor atom, score
      L1  H    10    23       P1  8455  1.00

> <Gold.PLP.Chemscore.Internal.Correction>
   9.000000E+99

