#       Name:                CT1002167954
#       Creating user name   hitesit
#       Creation time:       Sun Apr 16 20:15:49 2023


#       File generated by GOLD software.
#

@<TRIPOS>MOLECULE
CT1002167954|ligand_prepared|mol2|1|dock2
    29    30     1
SMALL
NO_CHARGES


@<TRIPOS>ATOM
      1 C1          14.8684  14.0453  13.8825 C.3            1 RES1               0.0000
      2 C2          13.5243  13.4717  14.3756 C.ar           1 RES1               0.0000
      3 C3          15.1001  13.4598  12.4926 C.2            1 RES1               0.0000
      4 C4          14.7174  15.5624  13.9012 C.2            1 RES1               0.0000
      5 C5          16.0727  13.6740  14.7789 C.3            1 RES1               0.0000
      6 C6          12.3195  14.0173  13.9426 C.ar           1 RES1               0.0000
      7 C7          13.4732  12.3973  15.2597 C.ar           1 RES1               0.0000
      8 N8          14.9298  14.2873  11.4220 N.am           1 RES1               0.0000
      9 O9          15.3891  12.2798  12.3363 O.2            1 RES1               0.0000
     10 N10         14.7496  16.2257  12.7026 N.am           1 RES1               0.0000
     11 O11         14.5541  16.1876  14.9417 O.2            1 RES1               0.0000
     12 C12         17.3248  14.4876  14.4915 C.3            1 RES1               0.0000
     13 C13         11.1075  13.5057  14.3755 C.ar           1 RES1               0.0000
     14 C14         12.2600  11.8873  15.6916 C.ar           1 RES1               0.0000
     15 C15         14.8182  15.6539  11.4614 C.2            1 RES1               0.0000
     16 C16         11.0768  12.4402  15.2498 C.ar           1 RES1               0.0000
     17 O17         14.7872  16.3141  10.4268 O.2            1 RES1               0.0000
     18 H18         15.7898  13.8201  15.8286 H              1 RES1               0.0000
     19 H19         16.3027  12.6106  14.6385 H              1 RES1               0.0000
     20 H20         12.3238  14.8577  13.2565 H              1 RES1               0.0000
     21 H21         14.3915  11.9471  15.6214 H              1 RES1               0.0000
     22 H22         14.8810  13.8494  10.5075 H              1 RES1               0.0000
     23 H23         14.7198  17.2396  12.7390 H              1 RES1               0.0000
     24 H24         18.1390  14.1872  15.1477 H              1 RES1               0.0000
     25 H25         17.6490  14.3462  13.4626 H              1 RES1               0.0000
     26 H26         17.1391  15.5485  14.6457 H              1 RES1               0.0000
     27 H27         10.1791  13.9452  14.0259 H              1 RES1               0.0000
     28 H28         12.2407  11.0491  16.3802 H              1 RES1               0.0000
     29 H29         10.1272  12.0393  15.5885 H              1 RES1               0.0000
@<TRIPOS>BOND
    1    1    2 1     
    2    1    3 1     
    3    1    4 1     
    4    1    5 1     
    5    2    6 ar    
    6    2    7 ar    
    7    3    8 1     
    8    3    9 2     
    9    4   10 1     
   10    4   11 2     
   11    5   12 1     
   12    5   18 1     
   13    5   19 1     
   14    6   13 ar    
   15    6   20 1     
   16    7   14 ar    
   17    7   21 1     
   18    8   15 1     
   19    8   22 1     
   20   10   15 1     
   21   10   23 1     
   22   12   24 1     
   23   12   25 1     
   24   12   26 1     
   25   13   16 ar    
   26   13   27 1     
   27   14   16 ar    
   28   14   28 1     
   29   15   17 2     
   30   16   29 1     
@<TRIPOS>SUBSTRUCTURE
      1 RES1           1
@<TRIPOS>SET
DONOR_HYDROGENS      STATIC     ATOMS    <user>   **** ""
2 22 23
ATOM$RED        STATIC     ATOMS    COLORGROUP SYSTEM
2 22 23
@<TRIPOS>COMMENT
> <Gold.Version>
2022.3.0

> <Gold.Id.Protein>
unknown|3mvj_clean|pdb

> <Gold.Protein.RotatedTorsions>
[ 8483 8455 8453 8450 ] final -129.61 input   60.02 | X-H torsion
[ 15483 15454 15453 15451 ] final -105.58 input   59.98 | X-H torsion
[ 5446 5415 5414 5412 ] final -130.16 input   60.02 | X-H torsion
[ 7755 7713 7712 7711 ] final  -20.75 input   60.03 | X-H torsion
[ 7530 7488 7487 7485 ] final  -69.29 input   60.03 | X-H torsion

> <Gold.Protein.ActiveResidues>
 THR48   LEU49   GLY50   THR51   GLY52   ARG56   VAL57   MET58   LEU59   TYR69  
 ALA70   MET71   LYS72   GLU91   LEU95   VAL104  LYS105  LEU106  MET118  VAL119 
 MET120  GLU121  TYR122  VAL123  PRO124  GLY125  GLY126  GLU127  PHE129  TYR164 
 LYS168  PRO169  GLU170  ASN171  LEU172  LEU173  ILE174  GLN181  VAL182  THR183 
 ASP184  PHE185  THR324  PHE327  ASP328  TYR330 

> <Gold.Protein.RotatedAtoms>
   26.1693   15.1404   20.0649 H   0  0  0  0  0  0  0  0  0  0  0  0  # atno 5446 bound_to 5415
   10.0202   20.5533   12.7627 H   0  0  0  0  0  0  0  0  0  0  0  0  # atno 7530 bound_to 7488
    6.8455   12.7998   15.7890 H   0  0  0  0  0  0  0  0  0  0  0  0  # atno 7755 bound_to 7713
    6.2384   13.4491   14.3902 H   0  0  0  0  0  0  0  0  0  0  0  0  # atno 7756 bound_to 7713
    7.8003   12.8963   14.4379 H   0  0  0  0  0  0  0  0  0  0  0  0  # atno 7757 bound_to 7713
   15.5797   18.7660   15.3809 H   0  0  0  0  0  0  0  0  0  0  0  0  # atno 8483 bound_to 8455
   15.2864    7.9256   18.6890 H   0  0  0  0  0  0  0  0  0  0  0  0  # atno 15483 bound_to 15454
   14.9632   18.0672   14.0469 LP  0  0  0  0  0  0  0  0  0  0  0  0  # atno 16480 bound_to 8455
   14.1542   19.2779   14.7861 LP  0  0  0  0  0  0  0  0  0  0  0  0  # atno 16481 bound_to 8455
   14.9909    8.6739   17.2749 LP  0  0  0  0  0  0  0  0  0  0  0  0  # atno 16486 bound_to 15454
   16.2895    9.0968   18.1701 LP  0  0  0  0  0  0  0  0  0  0  0  0  # atno 16487 bound_to 15454
   26.7191   14.0545   18.9842 LP  0  0  0  0  0  0  0  0  0  0  0  0  # atno 16508 bound_to 5415
   25.1149   14.3188   19.1362 LP  0  0  0  0  0  0  0  0  0  0  0  0  # atno 16509 bound_to 5415

> <Gold.Score>
     Fitness  S(hb_ext) S(vdw_ext)  S(hb_int)    S(int)      intcor
     36.94       6.03      22.67       0.00      -0.26      -0.77

> <Gold.Goldscore.Fitness>
36.9407

> <Gold.Goldscore.Internal.Vdw>
-0.3823

> <Gold.Goldscore.Internal.Torsion>
-0.6438

> <Gold.Goldscore.External.Vdw>
22.6654

> <Gold.Goldscore.Internal.HBond>
0.0000

> <Gold.Goldscore.External.HBond>
6.0333

> <Gold.Goldscore.Internal.Correction>
-0.7686

> <Gold.Goldscore.Hbonds>
donor molecule, donor type, donor heavy atom, donor atom, acceptor molecule, acceptor atom, score
      P1  H  2793  2846       L1    17  1.00
      L1  H    10    23       P1  8455  0.02

> <Gold.Goldscore.Internal.Vdw.Weighted>
-0.3823

> <Gold.Goldscore.Internal.Torsion.Weighted>
-0.6438

> <Gold.Goldscore.External.Vdw.Weighted>
31.1649

> <Gold.Goldscore.Internal.HBond.Weighted>
0.0000

> <Gold.Goldscore.External.HBond.Weighted>
6.0333

> <Gold.Goldscore.Internal.Correction.Weighted>
-0.7686

> <Gold.Rescore>
     Score     S(PLP)   S(hbond)     S(cho)   S(metal)  DE(clash)   DE(tors)     intcor
     28.13     -25.50       1.00       0.00       0.00       0.00       0.19       ----

> <Gold.PLP.Fitness>
28.1281

> <Gold.PLP.PLP>
-25.5024

> <Gold.PLP.part.hbond>
-1.5600

> <Gold.PLP.part.metal>
0.0000

> <Gold.PLP.part.buried>
-3.5270

> <Gold.PLP.part.nonpolar>
-22.1861

> <Gold.PLP.part.repulsive>
1.9493

> <Gold.PLP.ligand.clash>
0.0000

> <Gold.PLP.ligand.torsion>
0.1872

> <Gold.PLP.Chemscore.Hbond>
1.0000

> <Gold.PLP.Chemscore.CHOScore>
0.0000

> <Gold.PLP.Chemscore.Metal>
0.0000

> <Gold.Chemscore.Hbonds>
donor molecule, donor type, donor heavy atom, donor atom, acceptor molecule, acceptor atom, score
      P1  H  2793  2846       L1    17  0.88

> <Gold.PLP.Chemscore.Internal.Correction>
   9.000000E+99

