#       Name:                CT1002167954
#       Creating user name   hitesit
#       Creation time:       Sun Apr 16 20:17:39 2023


#       File generated by GOLD software.
#

@<TRIPOS>MOLECULE
CT1002167954|ligand_prepared|mol2|1|dock1
    29    30     1
SMALL
NO_CHARGES


@<TRIPOS>ATOM
      1 C1         113.2975 242.0496 323.9691 C.3            1 RES1               0.0000
      2 C2         114.1603 242.8156 322.9455 C.ar           1 RES1               0.0000
      3 C3         111.8676 242.5483 323.7825 C.2            1 RES1               0.0000
      4 C4         113.4849 240.5682 323.6614 C.2            1 RES1               0.0000
      5 C5         113.7130 242.2884 325.4395 C.3            1 RES1               0.0000
      6 C6         115.1091 243.7409 323.3700 C.ar           1 RES1               0.0000
      7 C7         114.0210 242.6059 321.5761 C.ar           1 RES1               0.0000
      8 N8         110.9824 241.7130 323.1672 N.am           1 RES1               0.0000
      9 O9         111.5318 243.6725 324.1342 O.2            1 RES1               0.0000
     10 N10        112.3994 239.8637 323.2107 N.am           1 RES1               0.0000
     11 O11        114.5668 240.0084 323.7892 O.2            1 RES1               0.0000
     12 C12        112.9382 241.4456 326.4402 C.3            1 RES1               0.0000
     13 C13        115.8924 244.4296 322.4587 C.ar           1 RES1               0.0000
     14 C14        114.8052 243.2959 320.6665 C.ar           1 RES1               0.0000
     15 C15        111.1643 240.3759 322.9204 C.2            1 RES1               0.0000
     16 C16        115.7413 244.2073 321.1065 C.ar           1 RES1               0.0000
     17 O17        110.2538 239.6888 322.4665 O.2            1 RES1               0.0000
     18 H18        114.7823 242.0673 325.5446 H              1 RES1               0.0000
     19 H19        113.5645 243.3482 325.6807 H              1 RES1               0.0000
     20 H20        115.2405 243.9309 324.4300 H              1 RES1               0.0000
     21 H21        113.2901 241.8944 321.2070 H              1 RES1               0.0000
     22 H22        110.1039 242.1201 322.8624 H              1 RES1               0.0000
     23 H23        112.5236 238.8648 323.0795 H              1 RES1               0.0000
     24 H24        113.2687 241.6519 327.4560 H              1 RES1               0.0000
     25 H25        111.8728 241.6584 326.3807 H              1 RES1               0.0000
     26 H26        113.0834 240.3850 326.2454 H              1 RES1               0.0000
     27 H27        116.6268 245.1469 322.8101 H              1 RES1               0.0000
     28 H28        114.6824 243.1182 319.6032 H              1 RES1               0.0000
     29 H29        116.3553 244.7467 320.3928 H              1 RES1               0.0000
@<TRIPOS>BOND
    1    1    2 1     
    2    1    3 1     
    3    1    4 1     
    4    1    5 1     
    5    2    6 ar    
    6    2    7 ar    
    7    3    8 1     
    8    3    9 2     
    9    4   10 1     
   10    4   11 2     
   11    5   12 1     
   12    5   18 1     
   13    5   19 1     
   14    6   13 ar    
   15    6   20 1     
   16    7   14 ar    
   17    7   21 1     
   18    8   15 1     
   19    8   22 1     
   20   10   15 1     
   21   10   23 1     
   22   12   24 1     
   23   12   25 1     
   24   12   26 1     
   25   13   16 ar    
   26   13   27 1     
   27   14   16 ar    
   28   14   28 1     
   29   15   17 2     
   30   16   29 1     
@<TRIPOS>SUBSTRUCTURE
      1 RES1           1
@<TRIPOS>SET
DONOR_HYDROGENS      STATIC     ATOMS    <user>   **** ""
2 22 23
ATOM$RED        STATIC     ATOMS    COLORGROUP SYSTEM
2 22 23
@<TRIPOS>COMMENT
> <Gold.Version>
2022.3.0

> <Gold.Id.Protein>
unknown|4uh5_clean|pdb

> <Gold.Protein.RotatedTorsions>
[ 8492 8482 8483 8484 ] final  123.94 input   34.95 | X-H torsion
[ 8520 8504 8505 8506 ] final -171.36 input  102.00 | X-H torsion
[ 9058 9051 9052 9053 ] final   10.64 input   39.76 | X-H torsion
[ 9099 9075 9076 9077 ] final  174.72 input   37.88 | X-H torsion
[ 9142 9121 9122 9123 ] final  179.65 input   94.46 | X-H torsion
[ 9150 9132 9131 9129 ] final   77.46 input   60.01 | X-H torsion
[ 9176 9159 9160 9161 ] final   -2.16 input   86.63 | X-H torsion
[ 9251 9236 9237 9238 ] final -172.25 input  127.08 | X-H torsion
[ 3623 3616 3617 3618 ] final  -55.17 input   94.27 | X-H torsion
[ 3649 3645 3646 3647 ] final  -23.11 input   86.49 | X-H torsion
[ 9041 9031 9032 9033 ] final   76.40 input   26.45 | X-H torsion
[ 9196 9189 9190 9191 ] final   -5.93 input  130.40 | X-H torsion
[ 4948 4938 4937 4934 ] final  -67.14 input   60.00 | X-H torsion
[ 9045 9036 9035 9032 ] final  132.35 input   59.99 | X-H torsion
[ 9007 8996 8997 8998 ] final  -87.65 input   49.09 | X-H torsion
[ 8546 8535 8536 8537 ] final -172.70 input   50.11 | X-H torsion
[ 4964 4954 4955 4956 ] final   46.44 input   27.83 | X-H torsion
[ 8387 8378 8377 8375 ] final  169.26 input   59.99 | X-H torsion
[ 5633 5624 5625 5626 ] final  -24.21 input   44.71 | X-H torsion
[ 5606 5601 5600 5597 ] final   61.09 input   59.98 | X-H torsion
[ 5665 5657 5658 5659 ] final  124.85 input  114.33 | X-H torsion
[ 5703 5695 5696 5697 ] final  -54.47 input   57.04 | X-H torsion
[ 5747 5736 5737 5738 ] final -126.94 input   30.88 | X-H torsion
[ 5805 5785 5786 5787 ] final   83.78 input   92.04 | X-H torsion
[ 9405 9397 9398 9399 ] final    4.77 input  123.68 | X-H torsion
[ 9388 9352 9353 9354 ] final  -29.18 input  105.06 | X-H torsion
[ 11118 11102 11103 11104 ] final -162.71 input   57.11 | X-H torsion
[ 8379 8367 8368 8369 ] final -124.23 input   85.33 | X-H torsion
[ 5602 5596 5597 5598 ] final   85.23 input  106.64 | X-H torsion
[ 13518 8422 8421 8420 ] final  -12.80 input    0.00 | X-H torsion
[ 13521 8459 8458 8457 ] final   16.06 input   -0.00 | X-H torsion
[ 13525 8999 8998 8997 ] final -162.68 input   -0.00 | X-H torsion
[ 13528 9054 9053 9052 ] final  141.94 input   -0.00 | X-H torsion
[ 13531 9078 9077 9076 ] final   60.49 input    0.00 | X-H torsion
[ 13534 9124 9123 9122 ] final  176.22 input   -0.00 | X-H torsion
[ 13539 9162 9161 9160 ] final -146.30 input   -0.00 | X-H torsion
[ 13553 9034 9033 9032 ] final   66.79 input    0.00 | X-H torsion
[ 13555 8404 8403 8402 ] final   29.62 input    0.00 | X-H torsion
[ 13562 8485 8484 8483 ] final  138.58 input    0.00 | X-H torsion
[ 13564 8507 8506 8505 ] final   35.43 input   -0.00 | X-H torsion
[ 13571 4957 4956 4955 ] final -130.47 input   -0.00 | X-H torsion
[ 13573 5599 5598 5597 ] final -119.65 input   -0.00 | X-H torsion
[ 13582 5698 5697 5696 ] final  -22.51 input   -0.00 | X-H torsion
[ 13584 9239 9238 9237 ] final  -58.85 input    0.00 | X-H torsion
[ 13588 5627 5626 5625 ] final  159.91 input    0.00 | X-H torsion
[ 13596 8370 8369 8368 ] final  -62.07 input   -0.00 | X-H torsion
[ 13601 9355 9354 9353 ] final   84.77 input   -0.00 | X-H torsion
[ 13603 9400 9399 9398 ] final -103.21 input   -0.00 | X-H torsion

> <Gold.Protein.ActiveResidues>
 MET341  TRP414  CYS420  VAL421  GLY422  LEU429  LEU460  SER462  ALA463  ILE464 
 SER482  GLN483  LEU484  ILE485  ARG486  TYR487  ASP500  ALA502  ASN503  TRP566 
 TYR567  GLY568  LEU569  PRO570  ALA571  VAL572  SER573  ASN574  PRO588  PHE589 
 SER590  GLY591  TRP592  TYR593  MET594  GLY595  GLU597  ILE598  ARG601  ASP602 
 ASP605  ARG608  ILE653  VAL654  TRP683  PRO687  PHE696  HIS697  TYR711  HEM750 
 H4B760 

> <Gold.Protein.RotatedAtoms>
  122.9020  249.9213  327.1110 H   0  0  0  0  0  0  0  0  0  0  0  0  # atno 3623 bound_to 3616
  124.9215  249.2265  326.5293 H   0  0  0  0  0  0  0  0  0  0  0  0  # atno 3649 bound_to 3645
  125.0060  246.5838  317.1450 H   0  0  0  0  0  0  0  0  0  0  0  0  # atno 4948 bound_to 4938
  122.4362  247.2886  313.7331 H   0  0  0  0  0  0  0  0  0  0  0  0  # atno 4964 bound_to 4954
  106.3352  244.9869  317.1086 H   0  0  0  0  0  0  0  0  0  0  0  0  # atno 5602 bound_to 5596
  107.6149  244.3772  319.3706 H   0  0  0  0  0  0  0  0  0  0  0  0  # atno 5606 bound_to 5601
  108.5041  245.1121  316.5839 H   0  0  0  0  0  0  0  0  0  0  0  0  # atno 5633 bound_to 5624
  112.3253  244.2869  315.0940 H   0  0  0  0  0  0  0  0  0  0  0  0  # atno 5665 bound_to 5657
  110.8972  241.6851  314.6276 H   0  0  0  0  0  0  0  0  0  0  0  0  # atno 5703 bound_to 5695
  110.6717  238.8382  316.0676 H   0  0  0  0  0  0  0  0  0  0  0  0  # atno 5747 bound_to 5736
  108.2206  236.4743  318.8802 H   0  0  0  0  0  0  0  0  0  0  0  0  # atno 5805 bound_to 5785
  114.9957  232.7352  318.2627 H   0  0  0  0  0  0  0  0  0  0  0  0  # atno 8379 bound_to 8367
  112.6957  239.4163  320.3310 H   0  0  0  0  0  0  0  0  0  0  0  0  # atno 8387 bound_to 8378
  115.9708  242.6364  316.9228 H   0  0  0  0  0  0  0  0  0  0  0  0  # atno 8492 bound_to 8482
  115.1219  245.9359  318.0460 H   0  0  0  0  0  0  0  0  0  0  0  0  # atno 8520 bound_to 8504
  112.6696  247.7711  316.4254 H   0  0  0  0  0  0  0  0  0  0  0  0  # atno 8546 bound_to 8535
  115.8959  249.2239  313.5959 H   0  0  0  0  0  0  0  0  0  0  0  0  # atno 9007 bound_to 8996
  119.3888  247.9033  314.4740 H   0  0  0  0  0  0  0  0  0  0  0  0  # atno 9041 bound_to 9031
  120.2189  244.2986  313.5095 H   0  0  0  0  0  0  0  0  0  0  0  0  # atno 9045 bound_to 9036
  120.3660  244.4337  317.1142 H   0  0  0  0  0  0  0  0  0  0  0  0  # atno 9058 bound_to 9051
  123.3078  243.2902  318.0253 H   0  0  0  0  0  0  0  0  0  0  0  0  # atno 9099 bound_to 9075
  121.7417  240.2283  320.2585 H   0  0  0  0  0  0  0  0  0  0  0  0  # atno 9142 bound_to 9121
  115.0994  240.0359  320.9290 H   0  0  0  0  0  0  0  0  0  0  0  0  # atno 9150 bound_to 9132
  121.2491  239.7444  324.3260 H   0  0  0  0  0  0  0  0  0  0  0  0  # atno 9176 bound_to 9159
  121.9462  238.4886  327.2243 H   0  0  0  0  0  0  0  0  0  0  0  0  # atno 9196 bound_to 9189
  118.8585  239.3880  328.7644 H   0  0  0  0  0  0  0  0  0  0  0  0  # atno 9251 bound_to 9236
  113.9738  236.3011  330.7957 H   0  0  0  0  0  0  0  0  0  0  0  0  # atno 9388 bound_to 9352
  112.5059  236.5455  329.1178 H   0  0  0  0  0  0  0  0  0  0  0  0  # atno 9405 bound_to 9397
  126.7010  237.9796  323.2703 H   0  0  0  0  0  0  0  0  0  0  0  0  # atno 11118 bound_to 11102
  115.9755  239.5841  315.5633 LP  0  0  0  0  0  0  0  0  0  0  0  0  # atno 13518 bound_to 8422
  115.6542  240.3802  317.0676 LP  0  0  0  0  0  0  0  0  0  0  0  0  # atno 13519 bound_to 8422
  119.0262  243.3948  317.6251 LP  0  0  0  0  0  0  0  0  0  0  0  0  # atno 13521 bound_to 8459
  118.0594  244.8017  317.3318 LP  0  0  0  0  0  0  0  0  0  0  0  0  # atno 13522 bound_to 8459
  115.9363  243.7140  318.2967 LP  0  0  0  0  0  0  0  0  0  0  0  0  # atno 13523 bound_to 8482
  115.1610  246.7800  316.5160 LP  0  0  0  0  0  0  0  0  0  0  0  0  # atno 13524 bound_to 8504
  117.1924  246.8690  316.8144 LP  0  0  0  0  0  0  0  0  0  0  0  0  # atno 13525 bound_to 8999
  116.0243  247.8572  316.0027 LP  0  0  0  0  0  0  0  0  0  0  0  0  # atno 13526 bound_to 8999
  120.7956  246.1065  316.8280 LP  0  0  0  0  0  0  0  0  0  0  0  0  # atno 13527 bound_to 9051
  122.9430  241.8457  316.6550 LP  0  0  0  0  0  0  0  0  0  0  0  0  # atno 13528 bound_to 9054
  121.5925  242.8179  316.1744 LP  0  0  0  0  0  0  0  0  0  0  0  0  # atno 13529 bound_to 9054
  122.6178  243.6299  319.5959 LP  0  0  0  0  0  0  0  0  0  0  0  0  # atno 13530 bound_to 9075
  121.9081  243.1132  321.2511 LP  0  0  0  0  0  0  0  0  0  0  0  0  # atno 13531 bound_to 9078
  123.0906  242.3903  322.2900 LP  0  0  0  0  0  0  0  0  0  0  0  0  # atno 13532 bound_to 9078
  123.2804  240.2582  321.0897 LP  0  0  0  0  0  0  0  0  0  0  0  0  # atno 13533 bound_to 9121
  124.2546  239.3047  324.2925 LP  0  0  0  0  0  0  0  0  0  0  0  0  # atno 13534 bound_to 9124
  123.9528  238.9196  322.6310 LP  0  0  0  0  0  0  0  0  0  0  0  0  # atno 13535 bound_to 9124
  114.7819  238.9869  322.1313 LP  0  0  0  0  0  0  0  0  0  0  0  0  # atno 13536 bound_to 9132
  115.0168  238.4428  320.6096 LP  0  0  0  0  0  0  0  0  0  0  0  0  # atno 13537 bound_to 9132
  122.4030  241.0552  324.2474 LP  0  0  0  0  0  0  0  0  0  0  0  0  # atno 13538 bound_to 9159
  119.9267  238.2763  327.1154 LP  0  0  0  0  0  0  0  0  0  0  0  0  # atno 13539 bound_to 9162
  120.0333  239.2480  325.6856 LP  0  0  0  0  0  0  0  0  0  0  0  0  # atno 13540 bound_to 9162
  118.3882  237.7362  328.4366 LP  0  0  0  0  0  0  0  0  0  0  0  0  # atno 13541 bound_to 9236
  122.0036  248.6668  327.9357 LP  0  0  0  0  0  0  0  0  0  0  0  0  # atno 13550 bound_to 3616
  123.9986  247.7634  326.2980 LP  0  0  0  0  0  0  0  0  0  0  0  0  # atno 13551 bound_to 3645
  118.6297  248.2687  316.0010 LP  0  0  0  0  0  0  0  0  0  0  0  0  # atno 13552 bound_to 9031
  121.6452  247.8419  315.9056 LP  0  0  0  0  0  0  0  0  0  0  0  0  # atno 13553 bound_to 9034
  122.3309  246.4660  315.1076 LP  0  0  0  0  0  0  0  0  0  0  0  0  # atno 13554 bound_to 9034
  121.1494  237.4024  317.5258 LP  0  0  0  0  0  0  0  0  0  0  0  0  # atno 13555 bound_to 8404
  120.1029  238.7737  317.6822 LP  0  0  0  0  0  0  0  0  0  0  0  0  # atno 13556 bound_to 8404
  123.2181  237.6145  326.3978 LP  0  0  0  0  0  0  0  0  0  0  0  0  # atno 13557 bound_to 9189
  126.2579  247.6041  317.3427 LP  0  0  0  0  0  0  0  0  0  0  0  0  # atno 13558 bound_to 4938
  126.4220  246.2780  316.4041 LP  0  0  0  0  0  0  0  0  0  0  0  0  # atno 13559 bound_to 4938
  120.7764  245.7479  313.9960 LP  0  0  0  0  0  0  0  0  0  0  0  0  # atno 13560 bound_to 9036
  119.5738  245.6601  312.8947 LP  0  0  0  0  0  0  0  0  0  0  0  0  # atno 13561 bound_to 9036
  112.6389  245.2827  316.8960 LP  0  0  0  0  0  0  0  0  0  0  0  0  # atno 13562 bound_to 8485
  113.3456  244.8588  315.3725 LP  0  0  0  0  0  0  0  0  0  0  0  0  # atno 13563 bound_to 8485
  114.8168  248.6793  315.8056 LP  0  0  0  0  0  0  0  0  0  0  0  0  # atno 13564 bound_to 8507
  113.6085  249.9134  315.6748 LP  0  0  0  0  0  0  0  0  0  0  0  0  # atno 13565 bound_to 8507
  115.6164  250.0603  315.1047 LP  0  0  0  0  0  0  0  0  0  0  0  0  # atno 13566 bound_to 8996
  111.3810  248.4025  317.4178 LP  0  0  0  0  0  0  0  0  0  0  0  0  # atno 13567 bound_to 8535
  124.0432  247.8943  313.4180 LP  0  0  0  0  0  0  0  0  0  0  0  0  # atno 13570 bound_to 4954
  119.5786  248.8791  313.0987 LP  0  0  0  0  0  0  0  0  0  0  0  0  # atno 13571 bound_to 4957
  120.9376  248.7944  314.1692 LP  0  0  0  0  0  0  0  0  0  0  0  0  # atno 13572 bound_to 4957
  110.5199  247.2496  317.3465 LP  0  0  0  0  0  0  0  0  0  0  0  0  # atno 13573 bound_to 5599
  109.9639  247.3287  318.9850 LP  0  0  0  0  0  0  0  0  0  0  0  0  # atno 13574 bound_to 5599
  111.8671  238.1402  320.9080 LP  0  0  0  0  0  0  0  0  0  0  0  0  # atno 13575 bound_to 8378
  111.2667  239.0130  319.6652 LP  0  0  0  0  0  0  0  0  0  0  0  0  # atno 13576 bound_to 8378
  108.9628  245.1330  318.2726 LP  0  0  0  0  0  0  0  0  0  0  0  0  # atno 13581 bound_to 5624
  112.4170  239.8161  317.0371 LP  0  0  0  0  0  0  0  0  0  0  0  0  # atno 13582 bound_to 5698
  110.9155  239.7610  317.8986 LP  0  0  0  0  0  0  0  0  0  0  0  0  # atno 13583 bound_to 5698
  114.5098  238.3298  328.2902 LP  0  0  0  0  0  0  0  0  0  0  0  0  # atno 13584 bound_to 9239
  114.3138  238.0171  326.5979 LP  0  0  0  0  0  0  0  0  0  0  0  0  # atno 13585 bound_to 9239
  106.0897  244.5822  318.8419 LP  0  0  0  0  0  0  0  0  0  0  0  0  # atno 13586 bound_to 5601
  106.4266  244.6952  320.4358 LP  0  0  0  0  0  0  0  0  0  0  0  0  # atno 13587 bound_to 5601
  109.1825  243.0490  314.3244 LP  0  0  0  0  0  0  0  0  0  0  0  0  # atno 13588 bound_to 5627
  108.6931  243.0247  315.9857 LP  0  0  0  0  0  0  0  0  0  0  0  0  # atno 13589 bound_to 5627
  110.7425  243.6479  315.4594 LP  0  0  0  0  0  0  0  0  0  0  0  0  # atno 13590 bound_to 5657
  112.5748  241.3925  314.2348 LP  0  0  0  0  0  0  0  0  0  0  0  0  # atno 13591 bound_to 5695
  109.1823  238.8257  315.1445 LP  0  0  0  0  0  0  0  0  0  0  0  0  # atno 13592 bound_to 5736
  108.1600  236.8072  317.1689 LP  0  0  0  0  0  0  0  0  0  0  0  0  # atno 13593 bound_to 5785
  116.5986  236.2383  318.9349 LP  0  0  0  0  0  0  0  0  0  0  0  0  # atno 13596 bound_to 8370
  117.9437  235.1793  319.1977 LP  0  0  0  0  0  0  0  0  0  0  0  0  # atno 13597 bound_to 8370
  112.5536  237.9159  328.0377 LP  0  0  0  0  0  0  0  0  0  0  0  0  # atno 13598 bound_to 9397
  109.9125  237.5737  329.8247 LP  0  0  0  0  0  0  0  0  0  0  0  0  # atno 13601 bound_to 9355
  110.5320  236.0132  330.2505 LP  0  0  0  0  0  0  0  0  0  0  0  0  # atno 13602 bound_to 9355
  109.0367  234.6073  328.3623 LP  0  0  0  0  0  0  0  0  0  0  0  0  # atno 13603 bound_to 9400
  109.4251  234.2288  326.7174 LP  0  0  0  0  0  0  0  0  0  0  0  0  # atno 13604 bound_to 9400
  114.8193  237.8191  330.9820 LP  0  0  0  0  0  0  0  0  0  0  0  0  # atno 13608 bound_to 9352

> <Gold.Score>
     Fitness  S(hb_ext) S(vdw_ext)  S(hb_int)    S(int)      intcor
     37.80       0.00      27.98       0.00      -0.67      -0.81

> <Gold.Goldscore.Fitness>
37.8020

> <Gold.Goldscore.Internal.Vdw>
-1.0866

> <Gold.Goldscore.Internal.Torsion>
-0.4015

> <Gold.Goldscore.External.Vdw>
27.9820

> <Gold.Goldscore.Internal.HBond>
0.0000

> <Gold.Goldscore.External.HBond>
0.0000

> <Gold.Goldscore.Internal.Correction>
-0.8148

> <Gold.Goldscore.Internal.Vdw.Weighted>
-1.0866

> <Gold.Goldscore.Internal.Torsion.Weighted>
-0.4015

> <Gold.Goldscore.External.Vdw.Weighted>
38.4753

> <Gold.Goldscore.Internal.HBond.Weighted>
0.0000

> <Gold.Goldscore.External.HBond.Weighted>
0.0000

> <Gold.Goldscore.Internal.Correction.Weighted>
-0.8148

> <Gold.Rescore>
     Score     S(PLP)   S(hbond)     S(cho)   S(metal)  DE(clash)   DE(tors)     intcor
     28.34     -28.42       0.16       0.00       0.00       0.00       0.28       ----

> <Gold.PLP.Fitness>
28.3418

> <Gold.PLP.PLP>
-28.4246

> <Gold.PLP.part.hbond>
-6.3452

> <Gold.PLP.part.metal>
0.0000

> <Gold.PLP.part.buried>
2.2537

> <Gold.PLP.part.nonpolar>
-26.1817

> <Gold.PLP.part.repulsive>
0.8770

> <Gold.PLP.ligand.clash>
0.0000

> <Gold.PLP.ligand.torsion>
0.2805

> <Gold.PLP.Chemscore.Hbond>
0.1594

> <Gold.PLP.Chemscore.CHOScore>
0.0000

> <Gold.PLP.Chemscore.Metal>
0.0000

> <Gold.PLP.Chemscore.Internal.Correction>
   9.000000E+99

