#       Name:                CT1002167954
#       Creating user name   hitesit
#       Creation time:       Sun Apr 16 20:17:46 2023


#       File generated by GOLD software.
#

@<TRIPOS>MOLECULE
CT1002167954|ligand_prepared|mol2|1|dock8
    29    30     1
SMALL
NO_CHARGES


@<TRIPOS>ATOM
      1 C1         111.9202 242.2558 323.1352 C.3            1 RES1               0.0000
      2 C2         112.5906 242.0192 324.5039 C.ar           1 RES1               0.0000
      3 C3         112.7482 243.3275 322.4322 C.2            1 RES1               0.0000
      4 C4         111.9151 240.9073 322.4238 C.2            1 RES1               0.0000
      5 C5         110.4581 242.7501 323.2327 C.3            1 RES1               0.0000
      6 C6         111.9075 241.3631 325.5235 C.ar           1 RES1               0.0000
      7 C7         113.8901 242.4481 324.7605 C.ar           1 RES1               0.0000
      8 N8         113.5525 242.9315 321.4044 N.am           1 RES1               0.0000
      9 O9         112.7257 244.4957 322.7996 O.2            1 RES1               0.0000
     10 N10        112.6722 240.7771 321.2891 N.am           1 RES1               0.0000
     11 O11        111.2755 239.9514 322.8450 O.2            1 RES1               0.0000
     12 C12        110.2468 243.8382 324.2736 C.3            1 RES1               0.0000
     13 C13        112.5030 241.1411 326.7542 C.ar           1 RES1               0.0000
     14 C14        114.4837 242.2253 325.9920 C.ar           1 RES1               0.0000
     15 C15        113.5148 241.7189 320.7643 C.2            1 RES1               0.0000
     16 C16        113.7914 241.5716 326.9891 C.ar           1 RES1               0.0000
     17 O17        114.2048 241.5084 319.7710 O.2            1 RES1               0.0000
     18 H18        110.1491 243.1341 322.2527 H              1 RES1               0.0000
     19 H19        109.8127 241.8974 323.4773 H              1 RES1               0.0000
     20 H20        110.8919 241.0193 325.3579 H              1 RES1               0.0000
     21 H21        114.4534 242.9655 323.9913 H              1 RES1               0.0000
     22 H22        114.2462 243.5987 321.0821 H              1 RES1               0.0000
     23 H23        112.6009 239.8965 320.7891 H              1 RES1               0.0000
     24 H24        109.2045 244.1487 324.3009 H              1 RES1               0.0000
     25 H25        110.5205 243.4822 325.2647 H              1 RES1               0.0000
     26 H26        110.8548 244.7116 324.0474 H              1 RES1               0.0000
     27 H27        111.9534 240.6273 327.5360 H              1 RES1               0.0000
     28 H28        115.4977 242.5664 326.1727 H              1 RES1               0.0000
     29 H29        114.2578 241.3972 327.9531 H              1 RES1               0.0000
@<TRIPOS>BOND
    1    1    2 1     
    2    1    3 1     
    3    1    4 1     
    4    1    5 1     
    5    2    6 ar    
    6    2    7 ar    
    7    3    8 1     
    8    3    9 2     
    9    4   10 1     
   10    4   11 2     
   11    5   12 1     
   12    5   18 1     
   13    5   19 1     
   14    6   13 ar    
   15    6   20 1     
   16    7   14 ar    
   17    7   21 1     
   18    8   15 1     
   19    8   22 1     
   20   10   15 1     
   21   10   23 1     
   22   12   24 1     
   23   12   25 1     
   24   12   26 1     
   25   13   16 ar    
   26   13   27 1     
   27   14   16 ar    
   28   14   28 1     
   29   15   17 2     
   30   16   29 1     
@<TRIPOS>SUBSTRUCTURE
      1 RES1           1
@<TRIPOS>SET
DONOR_HYDROGENS      STATIC     ATOMS    <user>   **** ""
2 22 23
ATOM$RED        STATIC     ATOMS    COLORGROUP SYSTEM
2 22 23
@<TRIPOS>COMMENT
> <Gold.Version>
2022.3.0

> <Gold.Id.Protein>
unknown|4uh5_clean|pdb

> <Gold.Protein.RotatedTorsions>
[ 8492 8482 8483 8484 ] final  -49.86 input   34.95 | X-H torsion
[ 8520 8504 8505 8506 ] final   91.53 input  102.00 | X-H torsion
[ 9058 9051 9052 9053 ] final   99.59 input   39.76 | X-H torsion
[ 9099 9075 9076 9077 ] final   14.68 input   37.88 | X-H torsion
[ 9142 9121 9122 9123 ] final  163.36 input   94.46 | X-H torsion
[ 9150 9132 9131 9129 ] final  -72.13 input   60.01 | X-H torsion
[ 9176 9159 9160 9161 ] final   62.12 input   86.63 | X-H torsion
[ 9251 9236 9237 9238 ] final  109.46 input  127.08 | X-H torsion
[ 3623 3616 3617 3618 ] final  -49.58 input   94.27 | X-H torsion
[ 3649 3645 3646 3647 ] final   38.90 input   86.49 | X-H torsion
[ 9041 9031 9032 9033 ] final   76.05 input   26.45 | X-H torsion
[ 9196 9189 9190 9191 ] final  159.46 input  130.40 | X-H torsion
[ 4948 4938 4937 4934 ] final  169.72 input   60.00 | X-H torsion
[ 9045 9036 9035 9032 ] final  -69.23 input   59.99 | X-H torsion
[ 9007 8996 8997 8998 ] final  170.03 input   49.09 | X-H torsion
[ 8546 8535 8536 8537 ] final -120.90 input   50.11 | X-H torsion
[ 4964 4954 4955 4956 ] final  -68.95 input   27.83 | X-H torsion
[ 8387 8378 8377 8375 ] final   -2.62 input   59.99 | X-H torsion
[ 5633 5624 5625 5626 ] final  164.35 input   44.71 | X-H torsion
[ 5606 5601 5600 5597 ] final -150.78 input   59.98 | X-H torsion
[ 5665 5657 5658 5659 ] final -103.54 input  114.33 | X-H torsion
[ 5703 5695 5696 5697 ] final -166.74 input   57.04 | X-H torsion
[ 5747 5736 5737 5738 ] final -169.21 input   30.88 | X-H torsion
[ 5805 5785 5786 5787 ] final   -3.73 input   92.04 | X-H torsion
[ 9405 9397 9398 9399 ] final -177.99 input  123.68 | X-H torsion
[ 9388 9352 9353 9354 ] final  118.77 input  105.06 | X-H torsion
[ 11118 11102 11103 11104 ] final -151.20 input   57.11 | X-H torsion
[ 8379 8367 8368 8369 ] final -108.89 input   85.33 | X-H torsion
[ 5602 5596 5597 5598 ] final -129.99 input  106.64 | X-H torsion
[ 13518 8422 8421 8420 ] final -163.12 input    0.00 | X-H torsion
[ 13521 8459 8458 8457 ] final  -76.19 input   -0.00 | X-H torsion
[ 13525 8999 8998 8997 ] final   93.99 input   -0.00 | X-H torsion
[ 13528 9054 9053 9052 ] final  176.07 input   -0.00 | X-H torsion
[ 13531 9078 9077 9076 ] final  163.17 input    0.00 | X-H torsion
[ 13534 9124 9123 9122 ] final   55.02 input   -0.00 | X-H torsion
[ 13539 9162 9161 9160 ] final   94.20 input   -0.00 | X-H torsion
[ 13553 9034 9033 9032 ] final -126.57 input    0.00 | X-H torsion
[ 13555 8404 8403 8402 ] final  -28.46 input    0.00 | X-H torsion
[ 13562 8485 8484 8483 ] final -163.19 input    0.00 | X-H torsion
[ 13564 8507 8506 8505 ] final  -81.78 input   -0.00 | X-H torsion
[ 13571 4957 4956 4955 ] final   61.83 input   -0.00 | X-H torsion
[ 13573 5599 5598 5597 ] final   39.12 input   -0.00 | X-H torsion
[ 13582 5698 5697 5696 ] final   13.82 input   -0.00 | X-H torsion
[ 13584 9239 9238 9237 ] final  126.24 input    0.00 | X-H torsion
[ 13588 5627 5626 5625 ] final -107.22 input    0.00 | X-H torsion
[ 13596 8370 8369 8368 ] final  -44.17 input   -0.00 | X-H torsion
[ 13601 9355 9354 9353 ] final  -21.35 input   -0.00 | X-H torsion
[ 13603 9400 9399 9398 ] final -176.13 input   -0.00 | X-H torsion

> <Gold.Protein.ActiveResidues>
 MET341  TRP414  CYS420  VAL421  GLY422  LEU429  LEU460  SER462  ALA463  ILE464 
 SER482  GLN483  LEU484  ILE485  ARG486  TYR487  ASP500  ALA502  ASN503  TRP566 
 TYR567  GLY568  LEU569  PRO570  ALA571  VAL572  SER573  ASN574  PRO588  PHE589 
 SER590  GLY591  TRP592  TYR593  MET594  GLY595  GLU597  ILE598  ARG601  ASP602 
 ASP605  ARG608  ILE653  VAL654  TRP683  PRO687  PHE696  HIS697  TYR711  HEM750 
 H4B760 

> <Gold.Protein.RotatedAtoms>
  122.9134  249.8647  327.0462 H   0  0  0  0  0  0  0  0  0  0  0  0  # atno 3623 bound_to 3616
  124.2311  249.1978  325.9427 H   0  0  0  0  0  0  0  0  0  0  0  0  # atno 3649 bound_to 3645
  126.2987  247.5886  317.3145 H   0  0  0  0  0  0  0  0  0  0  0  0  # atno 4948 bound_to 4938
  123.4491  248.3540  313.9718 H   0  0  0  0  0  0  0  0  0  0  0  0  # atno 4964 bound_to 4954
  106.0322  246.4818  316.3865 H   0  0  0  0  0  0  0  0  0  0  0  0  # atno 5602 bound_to 5596
  106.0487  244.7355  320.1826 H   0  0  0  0  0  0  0  0  0  0  0  0  # atno 5606 bound_to 5601
  109.0214  245.2539  318.2727 H   0  0  0  0  0  0  0  0  0  0  0  0  # atno 5633 bound_to 5624
  110.7228  244.3114  315.1917 H   0  0  0  0  0  0  0  0  0  0  0  0  # atno 5665 bound_to 5657
  111.8713  241.4202  313.5616 H   0  0  0  0  0  0  0  0  0  0  0  0  # atno 5703 bound_to 5695
  110.3885  239.4169  316.0758 H   0  0  0  0  0  0  0  0  0  0  0  0  # atno 5747 bound_to 5736
  107.5081  237.1686  318.1848 H   0  0  0  0  0  0  0  0  0  0  0  0  # atno 5805 bound_to 5785
  115.2078  232.7225  318.3642 H   0  0  0  0  0  0  0  0  0  0  0  0  # atno 8379 bound_to 8367
  111.2518  238.2325  320.3710 H   0  0  0  0  0  0  0  0  0  0  0  0  # atno 8387 bound_to 8378
  115.8413  243.7123  318.3105 H   0  0  0  0  0  0  0  0  0  0  0  0  # atno 8492 bound_to 8482
  115.7125  246.9960  317.5099 H   0  0  0  0  0  0  0  0  0  0  0  0  # atno 8520 bound_to 8504
  112.8053  248.4475  316.7602 H   0  0  0  0  0  0  0  0  0  0  0  0  # atno 8546 bound_to 8535
  115.8973  250.4905  314.1365 H   0  0  0  0  0  0  0  0  0  0  0  0  # atno 9007 bound_to 8996
  119.3935  247.9049  314.4760 H   0  0  0  0  0  0  0  0  0  0  0  0  # atno 9041 bound_to 9031
  119.9074  246.0839  313.1966 H   0  0  0  0  0  0  0  0  0  0  0  0  # atno 9045 bound_to 9036
  120.3422  245.4723  317.8045 H   0  0  0  0  0  0  0  0  0  0  0  0  # atno 9058 bound_to 9051
  122.9076  243.6497  319.6859 H   0  0  0  0  0  0  0  0  0  0  0  0  # atno 9099 bound_to 9075
  121.7975  239.9840  320.2389 H   0  0  0  0  0  0  0  0  0  0  0  0  # atno 9142 bound_to 9121
  114.7870  238.5572  321.9179 H   0  0  0  0  0  0  0  0  0  0  0  0  # atno 9150 bound_to 9132
  121.0611  240.5989  324.6744 H   0  0  0  0  0  0  0  0  0  0  0  0  # atno 9176 bound_to 9159
  123.3251  237.5827  326.5941 H   0  0  0  0  0  0  0  0  0  0  0  0  # atno 9196 bound_to 9189
  119.1224  238.7382  327.8927 H   0  0  0  0  0  0  0  0  0  0  0  0  # atno 9251 bound_to 9236
  114.8807  237.7102  330.5156 H   0  0  0  0  0  0  0  0  0  0  0  0  # atno 9388 bound_to 9352
  112.5906  237.9125  328.0126 H   0  0  0  0  0  0  0  0  0  0  0  0  # atno 9405 bound_to 9397
  126.7273  237.8107  323.3158 H   0  0  0  0  0  0  0  0  0  0  0  0  # atno 11118 bound_to 11102
  115.6853  240.7078  316.7701 LP  0  0  0  0  0  0  0  0  0  0  0  0  # atno 13518 bound_to 8422
  115.9443  239.2565  315.8608 LP  0  0  0  0  0  0  0  0  0  0  0  0  # atno 13519 bound_to 8422
  118.5306  244.3069  318.3188 LP  0  0  0  0  0  0  0  0  0  0  0  0  # atno 13521 bound_to 8459
  118.5550  243.8896  316.6380 LP  0  0  0  0  0  0  0  0  0  0  0  0  # atno 13522 bound_to 8459
  116.0633  242.6586  316.9356 LP  0  0  0  0  0  0  0  0  0  0  0  0  # atno 13523 bound_to 8482
  114.5851  245.7463  317.0387 LP  0  0  0  0  0  0  0  0  0  0  0  0  # atno 13524 bound_to 8504
  116.4013  246.8947  315.7102 LP  0  0  0  0  0  0  0  0  0  0  0  0  # atno 13525 bound_to 8999
  116.8154  247.8316  317.1069 LP  0  0  0  0  0  0  0  0  0  0  0  0  # atno 13526 bound_to 8999
  120.8185  245.1026  316.1609 LP  0  0  0  0  0  0  0  0  0  0  0  0  # atno 13527 bound_to 9051
  122.5343  241.6622  316.8949 LP  0  0  0  0  0  0  0  0  0  0  0  0  # atno 13528 bound_to 9054
  122.0013  243.0013  315.9344 LP  0  0  0  0  0  0  0  0  0  0  0  0  # atno 13529 bound_to 9054
  123.0073  243.2800  317.9795 LP  0  0  0  0  0  0  0  0  0  0  0  0  # atno 13530 bound_to 9075
  122.0133  242.2951  322.3230 LP  0  0  0  0  0  0  0  0  0  0  0  0  # atno 13531 bound_to 9078
  122.9854  243.2084  321.2181 LP  0  0  0  0  0  0  0  0  0  0  0  0  # atno 13532 bound_to 9078
  123.2262  240.4955  321.1087 LP  0  0  0  0  0  0  0  0  0  0  0  0  # atno 13533 bound_to 9121
  124.2944  239.6725  322.8295 LP  0  0  0  0  0  0  0  0  0  0  0  0  # atno 13534 bound_to 9124
  123.9130  238.5519  324.0939 LP  0  0  0  0  0  0  0  0  0  0  0  0  # atno 13535 bound_to 9124
  115.1000  238.8370  320.3461 LP  0  0  0  0  0  0  0  0  0  0  0  0  # atno 13536 bound_to 9132
  115.0133  240.0824  321.3987 LP  0  0  0  0  0  0  0  0  0  0  0  0  # atno 13537 bound_to 9132
  122.5863  240.2221  323.9077 LP  0  0  0  0  0  0  0  0  0  0  0  0  # atno 13538 bound_to 9159
  119.9957  238.3783  325.6243 LP  0  0  0  0  0  0  0  0  0  0  0  0  # atno 13539 bound_to 9162
  119.9643  239.1460  327.1767 LP  0  0  0  0  0  0  0  0  0  0  0  0  # atno 13540 bound_to 9162
  118.1315  238.3685  329.2849 LP  0  0  0  0  0  0  0  0  0  0  0  0  # atno 13541 bound_to 9236
  121.9925  248.7217  327.9985 LP  0  0  0  0  0  0  0  0  0  0  0  0  # atno 13550 bound_to 3616
  124.6778  247.7916  326.8749 LP  0  0  0  0  0  0  0  0  0  0  0  0  # atno 13551 bound_to 3645
  118.6250  248.2672  315.9990 LP  0  0  0  0  0  0  0  0  0  0  0  0  # atno 13552 bound_to 9031
  122.4424  246.4539  315.2750 LP  0  0  0  0  0  0  0  0  0  0  0  0  # atno 13553 bound_to 9034
  121.5338  247.8539  315.7382 LP  0  0  0  0  0  0  0  0  0  0  0  0  # atno 13554 bound_to 9034
  120.6490  237.4594  318.1992 LP  0  0  0  0  0  0  0  0  0  0  0  0  # atno 13555 bound_to 8404
  120.6032  238.7166  317.0088 LP  0  0  0  0  0  0  0  0  0  0  0  0  # atno 13556 bound_to 8404
  121.8858  238.4897  327.0068 LP  0  0  0  0  0  0  0  0  0  0  0  0  # atno 13557 bound_to 9189
  126.3812  246.2463  316.3988 LP  0  0  0  0  0  0  0  0  0  0  0  0  # atno 13558 bound_to 4938
  124.9962  246.6234  317.1772 LP  0  0  0  0  0  0  0  0  0  0  0  0  # atno 13559 bound_to 4938
  119.7825  244.4640  313.1044 LP  0  0  0  0  0  0  0  0  0  0  0  0  # atno 13560 bound_to 9036
  120.8815  245.1456  314.1015 LP  0  0  0  0  0  0  0  0  0  0  0  0  # atno 13561 bound_to 9036
  112.6912  245.8674  316.2914 LP  0  0  0  0  0  0  0  0  0  0  0  0  # atno 13562 bound_to 8485
  113.2933  244.2741  315.9771 LP  0  0  0  0  0  0  0  0  0  0  0  0  # atno 13563 bound_to 8485
  114.2138  249.9173  316.3438 LP  0  0  0  0  0  0  0  0  0  0  0  0  # atno 13564 bound_to 8507
  114.2115  248.6753  315.1366 LP  0  0  0  0  0  0  0  0  0  0  0  0  # atno 13565 bound_to 8507
  115.6150  248.8230  314.5767 LP  0  0  0  0  0  0  0  0  0  0  0  0  # atno 13566 bound_to 8996
  111.2469  247.7346  317.0872 LP  0  0  0  0  0  0  0  0  0  0  0  0  # atno 13567 bound_to 8535
  123.0487  246.8483  313.1836 LP  0  0  0  0  0  0  0  0  0  0  0  0  # atno 13570 bound_to 4954
  120.8960  248.9719  314.2038 LP  0  0  0  0  0  0  0  0  0  0  0  0  # atno 13571 bound_to 4957
  119.6202  248.7016  313.0640 LP  0  0  0  0  0  0  0  0  0  0  0  0  # atno 13572 bound_to 4957
  109.7966  247.5670  318.8546 LP  0  0  0  0  0  0  0  0  0  0  0  0  # atno 13573 bound_to 5599
  110.6872  247.0113  317.4770 LP  0  0  0  0  0  0  0  0  0  0  0  0  # atno 13574 bound_to 5599
  111.9045  239.5358  319.6476 LP  0  0  0  0  0  0  0  0  0  0  0  0  # atno 13575 bound_to 8378
  112.6837  238.8096  320.8854 LP  0  0  0  0  0  0  0  0  0  0  0  0  # atno 13576 bound_to 8378
  108.4613  244.9955  316.6351 LP  0  0  0  0  0  0  0  0  0  0  0  0  # atno 13581 bound_to 5624
  112.1867  240.3034  317.0053 LP  0  0  0  0  0  0  0  0  0  0  0  0  # atno 13582 bound_to 5698
  111.1458  239.2737  317.9305 LP  0  0  0  0  0  0  0  0  0  0  0  0  # atno 13583 bound_to 5698
  114.3105  237.9423  326.6157 LP  0  0  0  0  0  0  0  0  0  0  0  0  # atno 13584 bound_to 9239
  114.5131  238.4047  328.2725 LP  0  0  0  0  0  0  0  0  0  0  0  0  # atno 13585 bound_to 9239
  107.6055  244.4255  319.8246 LP  0  0  0  0  0  0  0  0  0  0  0  0  # atno 13586 bound_to 5601
  106.4885  244.4910  318.6352 LP  0  0  0  0  0  0  0  0  0  0  0  0  # atno 13587 bound_to 5601
  109.2923  242.2589  315.2934 LP  0  0  0  0  0  0  0  0  0  0  0  0  # atno 13588 bound_to 5627
  108.5833  243.8147  315.0167 LP  0  0  0  0  0  0  0  0  0  0  0  0  # atno 13589 bound_to 5627
  112.3182  243.6239  315.3633 LP  0  0  0  0  0  0  0  0  0  0  0  0  # atno 13590 bound_to 5657
  111.6232  241.6513  315.2761 LP  0  0  0  0  0  0  0  0  0  0  0  0  # atno 13591 bound_to 5695
  109.4545  238.2695  315.1367 LP  0  0  0  0  0  0  0  0  0  0  0  0  # atno 13592 bound_to 5736
  108.8638  236.1212  317.8559 LP  0  0  0  0  0  0  0  0  0  0  0  0  # atno 13593 bound_to 5785
  116.4662  236.0269  319.0371 LP  0  0  0  0  0  0  0  0  0  0  0  0  # atno 13596 bound_to 8370
  118.0761  235.3907  319.0955 LP  0  0  0  0  0  0  0  0  0  0  0  0  # atno 13597 bound_to 8370
  112.4704  236.5720  329.1242 LP  0  0  0  0  0  0  0  0  0  0  0  0  # atno 13598 bound_to 9397
  110.4917  236.8573  330.8582 LP  0  0  0  0  0  0  0  0  0  0  0  0  # atno 13601 bound_to 9355
  109.9529  236.7296  329.2170 LP  0  0  0  0  0  0  0  0  0  0  0  0  # atno 13602 bound_to 9355
  109.3735  233.7023  328.0060 LP  0  0  0  0  0  0  0  0  0  0  0  0  # atno 13603 bound_to 9400
  109.0883  235.1338  327.0737 LP  0  0  0  0  0  0  0  0  0  0  0  0  # atno 13604 bound_to 9400
  113.9331  236.4421  331.2557 LP  0  0  0  0  0  0  0  0  0  0  0  0  # atno 13608 bound_to 9352

> <Gold.Score>
     Fitness  S(hb_ext) S(vdw_ext)  S(hb_int)    S(int)      intcor
     34.33       1.78      25.87       0.00      -3.02      -0.76

> <Gold.Goldscore.Fitness>
34.3346

> <Gold.Goldscore.Internal.Vdw>
-3.0231

> <Gold.Goldscore.Internal.Torsion>
-0.7557

> <Gold.Goldscore.External.Vdw>
25.8738

> <Gold.Goldscore.Internal.HBond>
0.0000

> <Gold.Goldscore.External.HBond>
1.7783

> <Gold.Goldscore.Internal.Correction>
-0.7585

> <Gold.Goldscore.Hbonds>
donor molecule, donor type, donor heavy atom, donor atom, acceptor molecule, acceptor atom, score
      L1  H    10    23       P1  8378  0.89

> <Gold.Goldscore.Internal.Vdw.Weighted>
-3.0231

> <Gold.Goldscore.Internal.Torsion.Weighted>
-0.7557

> <Gold.Goldscore.External.Vdw.Weighted>
35.5765

> <Gold.Goldscore.Internal.HBond.Weighted>
0.0000

> <Gold.Goldscore.External.HBond.Weighted>
1.7783

> <Gold.Goldscore.Internal.Correction.Weighted>
-0.7585

> <Gold.Rescore>
     Score     S(PLP)   S(hbond)     S(cho)   S(metal)  DE(clash)   DE(tors)     intcor
     34.69     -33.50       1.00       0.00       0.00       0.00       0.91       ----

> <Gold.PLP.Fitness>
34.6915

> <Gold.PLP.PLP>
-33.5050

> <Gold.PLP.part.hbond>
-1.5123

> <Gold.PLP.part.metal>
0.0000

> <Gold.PLP.part.buried>
-9.6711

> <Gold.PLP.part.nonpolar>
-24.5432

> <Gold.PLP.part.repulsive>
2.4629

> <Gold.PLP.ligand.clash>
0.0000

> <Gold.PLP.ligand.torsion>
0.9067

> <Gold.PLP.Chemscore.Hbond>
1.0000

> <Gold.PLP.Chemscore.CHOScore>
0.0000

> <Gold.PLP.Chemscore.Metal>
0.0000

> <Gold.Chemscore.Hbonds>
donor molecule, donor type, donor heavy atom, donor atom, acceptor molecule, acceptor atom, score
      L1  H    10    23       P1  8378  0.76

> <Gold.PLP.Chemscore.Internal.Correction>
   9.000000E+99

