#       Name:                CT1002167954
#       Creating user name   hitesit
#       Creation time:       Sun Apr 16 20:17:44 2023


#       File generated by GOLD software.
#

@<TRIPOS>MOLECULE
CT1002167954|ligand_prepared|mol2|1|dock6
    29    30     1
SMALL
NO_CHARGES


@<TRIPOS>ATOM
      1 C1         112.6166 242.0219 323.7505 C.3            1 RES1               0.0000
      2 C2         113.7415 242.8073 323.0459 C.ar           1 RES1               0.0000
      3 C3         113.2785 240.8028 324.3862 C.2            1 RES1               0.0000
      4 C4         111.9891 242.9832 324.7540 C.2            1 RES1               0.0000
      5 C5         111.5025 241.5339 322.7955 C.3            1 RES1               0.0000
      6 C6         114.6444 243.5674 323.7834 C.ar           1 RES1               0.0000
      7 C7         113.8905 242.7794 321.6618 C.ar           1 RES1               0.0000
      8 N8         113.4377 240.8047 325.7406 N.am           1 RES1               0.0000
      9 O9         113.6901 239.8715 323.7054 O.2            1 RES1               0.0000
     10 N10        112.1223 242.6966 326.0874 N.am           1 RES1               0.0000
     11 O11        111.3950 243.9949 324.4025 O.2            1 RES1               0.0000
     12 C12        110.2849 240.9703 323.5111 C.3            1 RES1               0.0000
     13 C13        115.6612 244.2717 323.1602 C.ar           1 RES1               0.0000
     14 C14        114.9079 243.4847 321.0406 C.ar           1 RES1               0.0000
     15 C15        112.8445 241.6673 326.6270 C.2            1 RES1               0.0000
     16 C16        115.7939 244.2305 321.7886 C.ar           1 RES1               0.0000
     17 O17        112.9624 241.5065 327.8384 O.2            1 RES1               0.0000
     18 H18        111.1845 242.3737 322.1655 H              1 RES1               0.0000
     19 H19        111.9155 240.7590 322.1379 H              1 RES1               0.0000
     20 H20        114.5542 243.6137 324.8636 H              1 RES1               0.0000
     21 H21        113.2044 242.2003 321.0531 H              1 RES1               0.0000
     22 H22        114.0551 240.0996 326.1305 H              1 RES1               0.0000
     23 H23        111.6381 243.3071 326.7379 H              1 RES1               0.0000
     24 H24        109.5341 240.6426 322.7951 H              1 RES1               0.0000
     25 H25        110.5604 240.1171 324.1276 H              1 RES1               0.0000
     26 H26        109.8337 241.7223 324.1551 H              1 RES1               0.0000
     27 H27        116.3550 244.8582 323.7533 H              1 RES1               0.0000
     28 H28        115.0082 243.4499 319.9608 H              1 RES1               0.0000
     29 H29        116.5907 244.7820 321.3006 H              1 RES1               0.0000
@<TRIPOS>BOND
    1    1    2 1     
    2    1    3 1     
    3    1    4 1     
    4    1    5 1     
    5    2    6 ar    
    6    2    7 ar    
    7    3    8 1     
    8    3    9 2     
    9    4   10 1     
   10    4   11 2     
   11    5   12 1     
   12    5   18 1     
   13    5   19 1     
   14    6   13 ar    
   15    6   20 1     
   16    7   14 ar    
   17    7   21 1     
   18    8   15 1     
   19    8   22 1     
   20   10   15 1     
   21   10   23 1     
   22   12   24 1     
   23   12   25 1     
   24   12   26 1     
   25   13   16 ar    
   26   13   27 1     
   27   14   16 ar    
   28   14   28 1     
   29   15   17 2     
   30   16   29 1     
@<TRIPOS>SUBSTRUCTURE
      1 RES1           1
@<TRIPOS>SET
DONOR_HYDROGENS      STATIC     ATOMS    <user>   **** ""
2 22 23
ATOM$RED        STATIC     ATOMS    COLORGROUP SYSTEM
2 22 23
@<TRIPOS>COMMENT
> <Gold.Version>
2022.3.0

> <Gold.Id.Protein>
unknown|4uh5_clean|pdb

> <Gold.Protein.RotatedTorsions>
[ 8492 8482 8483 8484 ] final  169.00 input   34.95 | X-H torsion
[ 8520 8504 8505 8506 ] final  -42.44 input  102.00 | X-H torsion
[ 9058 9051 9052 9053 ] final  151.22 input   39.76 | X-H torsion
[ 9099 9075 9076 9077 ] final   59.31 input   37.88 | X-H torsion
[ 9142 9121 9122 9123 ] final   96.96 input   94.46 | X-H torsion
[ 9150 9132 9131 9129 ] final   50.54 input   60.01 | X-H torsion
[ 9176 9159 9160 9161 ] final  -62.22 input   86.63 | X-H torsion
[ 9251 9236 9237 9238 ] final  162.45 input  127.08 | X-H torsion
[ 3623 3616 3617 3618 ] final  -18.03 input   94.27 | X-H torsion
[ 3649 3645 3646 3647 ] final -101.73 input   86.49 | X-H torsion
[ 9041 9031 9032 9033 ] final   -2.92 input   26.45 | X-H torsion
[ 9196 9189 9190 9191 ] final  -38.24 input  130.40 | X-H torsion
[ 4948 4938 4937 4934 ] final  -42.55 input   60.00 | X-H torsion
[ 9045 9036 9035 9032 ] final   23.53 input   59.99 | X-H torsion
[ 9007 8996 8997 8998 ] final  -53.48 input   49.09 | X-H torsion
[ 8546 8535 8536 8537 ] final   62.94 input   50.11 | X-H torsion
[ 4964 4954 4955 4956 ] final  -57.83 input   27.83 | X-H torsion
[ 8387 8378 8377 8375 ] final -122.42 input   59.99 | X-H torsion
[ 5633 5624 5625 5626 ] final -135.21 input   44.71 | X-H torsion
[ 5606 5601 5600 5597 ] final   96.58 input   59.98 | X-H torsion
[ 5665 5657 5658 5659 ] final  -10.76 input  114.33 | X-H torsion
[ 5703 5695 5696 5697 ] final -131.45 input   57.04 | X-H torsion
[ 5747 5736 5737 5738 ] final  143.36 input   30.88 | X-H torsion
[ 5805 5785 5786 5787 ] final   96.39 input   92.04 | X-H torsion
[ 9405 9397 9398 9399 ] final   30.71 input  123.68 | X-H torsion
[ 9388 9352 9353 9354 ] final -117.35 input  105.06 | X-H torsion
[ 11118 11102 11103 11104 ] final -116.10 input   57.11 | X-H torsion
[ 8379 8367 8368 8369 ] final  -94.92 input   85.33 | X-H torsion
[ 5602 5596 5597 5598 ] final  161.11 input  106.64 | X-H torsion
[ 13518 8422 8421 8420 ] final -152.25 input    0.00 | X-H torsion
[ 13521 8459 8458 8457 ] final   37.55 input   -0.00 | X-H torsion
[ 13525 8999 8998 8997 ] final -155.24 input   -0.00 | X-H torsion
[ 13528 9054 9053 9052 ] final -121.48 input   -0.00 | X-H torsion
[ 13531 9078 9077 9076 ] final   61.39 input    0.00 | X-H torsion
[ 13534 9124 9123 9122 ] final   88.06 input   -0.00 | X-H torsion
[ 13539 9162 9161 9160 ] final  -66.52 input   -0.00 | X-H torsion
[ 13553 9034 9033 9032 ] final  -25.82 input    0.00 | X-H torsion
[ 13555 8404 8403 8402 ] final   -4.85 input    0.00 | X-H torsion
[ 13562 8485 8484 8483 ] final   -5.48 input    0.00 | X-H torsion
[ 13564 8507 8506 8505 ] final  113.53 input   -0.00 | X-H torsion
[ 13571 4957 4956 4955 ] final -150.99 input   -0.00 | X-H torsion
[ 13573 5599 5598 5597 ] final -132.78 input   -0.00 | X-H torsion
[ 13582 5698 5697 5696 ] final   99.15 input   -0.00 | X-H torsion
[ 13584 9239 9238 9237 ] final -103.39 input    0.00 | X-H torsion
[ 13588 5627 5626 5625 ] final -104.79 input    0.00 | X-H torsion
[ 13596 8370 8369 8368 ] final   78.16 input   -0.00 | X-H torsion
[ 13601 9355 9354 9353 ] final -175.05 input   -0.00 | X-H torsion
[ 13603 9400 9399 9398 ] final   13.44 input   -0.00 | X-H torsion

> <Gold.Protein.ActiveResidues>
 MET341  TRP414  CYS420  VAL421  GLY422  LEU429  LEU460  SER462  ALA463  ILE464 
 SER482  GLN483  LEU484  ILE485  ARG486  TYR487  ASP500  ALA502  ASN503  TRP566 
 TYR567  GLY568  LEU569  PRO570  ALA571  VAL572  SER573  ASN574  PRO588  PHE589 
 SER590  GLY591  TRP592  TYR593  MET594  GLY595  GLU597  ILE598  ARG601  ASP602 
 ASP605  ARG608  ILE653  VAL654  TRP683  PRO687  PHE696  HIS697  TYR711  HEM750 
 H4B760 

> <Gold.Protein.RotatedAtoms>
  122.8947  249.4600  326.7835 H   0  0  0  0  0  0  0  0  0  0  0  0  # atno 3623 bound_to 3616
  125.0386  248.2327  327.0203 H   0  0  0  0  0  0  0  0  0  0  0  0  # atno 3649 bound_to 3645
  125.1256  246.2891  316.9047 H   0  0  0  0  0  0  0  0  0  0  0  0  # atno 4948 bound_to 4938
  123.2906  248.3442  314.0344 H   0  0  0  0  0  0  0  0  0  0  0  0  # atno 4964 bound_to 4954
  105.6779  245.8543  317.0821 H   0  0  0  0  0  0  0  0  0  0  0  0  # atno 5602 bound_to 5596
  107.5594  244.4473  319.9341 H   0  0  0  0  0  0  0  0  0  0  0  0  # atno 5606 bound_to 5601
  109.0759  245.9117  317.6693 H   0  0  0  0  0  0  0  0  0  0  0  0  # atno 5633 bound_to 5624
  111.2141  243.2130  315.6123 H   0  0  0  0  0  0  0  0  0  0  0  0  # atno 5665 bound_to 5657
  111.3485  241.5081  313.6396 H   0  0  0  0  0  0  0  0  0  0  0  0  # atno 5703 bound_to 5695
  109.7841  239.6921  315.8014 H   0  0  0  0  0  0  0  0  0  0  0  0  # atno 5747 bound_to 5736
  108.3700  236.3628  318.8316 H   0  0  0  0  0  0  0  0  0  0  0  0  # atno 5805 bound_to 5785
  115.3873  232.7605  318.4751 H   0  0  0  0  0  0  0  0  0  0  0  0  # atno 8379 bound_to 8367
  111.9030  239.5286  319.6497 H   0  0  0  0  0  0  0  0  0  0  0  0  # atno 8387 bound_to 8378
  116.5872  242.8479  317.1015 H   0  0  0  0  0  0  0  0  0  0  0  0  # atno 8492 bound_to 8482
  114.6995  246.1840  316.5261 H   0  0  0  0  0  0  0  0  0  0  0  0  # atno 8520 bound_to 8504
  111.2573  247.6795  317.0643 H   0  0  0  0  0  0  0  0  0  0  0  0  # atno 8546 bound_to 8535
  115.7743  248.8637  313.9499 H   0  0  0  0  0  0  0  0  0  0  0  0  # atno 9007 bound_to 8996
  119.8378  248.3081  315.4164 H   0  0  0  0  0  0  0  0  0  0  0  0  # atno 9041 bound_to 9031
  120.8318  245.5825  314.0518 H   0  0  0  0  0  0  0  0  0  0  0  0  # atno 9045 bound_to 9036
  120.6138  246.0683  317.3896 H   0  0  0  0  0  0  0  0  0  0  0  0  # atno 9058 bound_to 9051
  123.5434  243.6225  319.4671 H   0  0  0  0  0  0  0  0  0  0  0  0  # atno 9099 bound_to 9075
  122.5068  239.3744  320.5020 H   0  0  0  0  0  0  0  0  0  0  0  0  # atno 9142 bound_to 9121
  115.0242  240.0819  321.3556 H   0  0  0  0  0  0  0  0  0  0  0  0  # atno 9150 bound_to 9132
  122.0423  239.6151  323.9533 H   0  0  0  0  0  0  0  0  0  0  0  0  # atno 9176 bound_to 9159
  121.7984  238.4423  326.7537 H   0  0  0  0  0  0  0  0  0  0  0  0  # atno 9196 bound_to 9189
  119.0351  239.3147  328.4265 H   0  0  0  0  0  0  0  0  0  0  0  0  # atno 9251 bound_to 9236
  114.1591  237.0669  331.7399 H   0  0  0  0  0  0  0  0  0  0  0  0  # atno 9388 bound_to 9352
  112.8196  236.4682  328.8904 H   0  0  0  0  0  0  0  0  0  0  0  0  # atno 9405 bound_to 9397
  126.6317  237.3519  323.5673 H   0  0  0  0  0  0  0  0  0  0  0  0  # atno 11118 bound_to 11102
  115.7060  240.7833  316.6259 LP  0  0  0  0  0  0  0  0  0  0  0  0  # atno 13518 bound_to 8422
  115.9237  239.1811  316.0051 LP  0  0  0  0  0  0  0  0  0  0  0  0  # atno 13519 bound_to 8422
  118.9902  243.3773  317.3048 LP  0  0  0  0  0  0  0  0  0  0  0  0  # atno 13521 bound_to 8459
  118.0955  244.8192  317.6521 LP  0  0  0  0  0  0  0  0  0  0  0  0  # atno 13522 bound_to 8459
  115.3317  243.5065  318.1215 LP  0  0  0  0  0  0  0  0  0  0  0  0  # atno 13523 bound_to 8482
  115.5729  246.5381  317.9980 LP  0  0  0  0  0  0  0  0  0  0  0  0  # atno 13524 bound_to 8504
  117.1971  246.9508  316.8915 LP  0  0  0  0  0  0  0  0  0  0  0  0  # atno 13525 bound_to 8999
  116.0195  247.7755  315.9256 LP  0  0  0  0  0  0  0  0  0  0  0  0  # atno 13526 bound_to 8999
  120.5561  244.5267  316.5619 LP  0  0  0  0  0  0  0  0  0  0  0  0  # atno 13527 bound_to 9051
  121.6726  241.9143  316.8853 LP  0  0  0  0  0  0  0  0  0  0  0  0  # atno 13528 bound_to 9054
  122.8630  242.7492  315.9441 LP  0  0  0  0  0  0  0  0  0  0  0  0  # atno 13529 bound_to 9054
  122.3884  243.3065  318.1925 LP  0  0  0  0  0  0  0  0  0  0  0  0  # atno 13530 bound_to 9075
  121.8983  243.1070  321.2582 LP  0  0  0  0  0  0  0  0  0  0  0  0  # atno 13531 bound_to 9078
  123.1004  242.3964  322.2828 LP  0  0  0  0  0  0  0  0  0  0  0  0  # atno 13532 bound_to 9078
  122.5371  241.0877  320.8531 LP  0  0  0  0  0  0  0  0  0  0  0  0  # atno 13533 bound_to 9121
  124.4227  239.8897  323.2525 LP  0  0  0  0  0  0  0  0  0  0  0  0  # atno 13534 bound_to 9124
  123.7847  238.3347  323.6709 LP  0  0  0  0  0  0  0  0  0  0  0  0  # atno 13535 bound_to 9124
  114.7806  238.5872  321.9500 LP  0  0  0  0  0  0  0  0  0  0  0  0  # atno 13536 bound_to 9132
  115.0937  238.7963  320.3611 LP  0  0  0  0  0  0  0  0  0  0  0  0  # atno 13537 bound_to 9132
  121.6296  241.1813  324.6108 LP  0  0  0  0  0  0  0  0  0  0  0  0  # atno 13538 bound_to 9159
  119.9825  239.3804  327.0069 LP  0  0  0  0  0  0  0  0  0  0  0  0  # atno 13539 bound_to 9162
  119.9775  238.1438  325.7941 LP  0  0  0  0  0  0  0  0  0  0  0  0  # atno 13540 bound_to 9162
  118.2164  237.8075  328.7655 LP  0  0  0  0  0  0  0  0  0  0  0  0  # atno 13541 bound_to 9236
  122.0107  249.1143  328.2533 LP  0  0  0  0  0  0  0  0  0  0  0  0  # atno 13550 bound_to 3616
  123.8834  248.7410  325.8149 LP  0  0  0  0  0  0  0  0  0  0  0  0  # atno 13551 bound_to 3645
  118.1860  247.8688  315.0697 LP  0  0  0  0  0  0  0  0  0  0  0  0  # atno 13552 bound_to 9031
  121.4815  247.2551  314.8115 LP  0  0  0  0  0  0  0  0  0  0  0  0  # atno 13553 bound_to 9034
  122.4946  247.0528  316.2017 LP  0  0  0  0  0  0  0  0  0  0  0  0  # atno 13554 bound_to 9034
  120.8883  237.3453  317.9640 LP  0  0  0  0  0  0  0  0  0  0  0  0  # atno 13555 bound_to 8404
  120.3639  238.8307  317.2440 LP  0  0  0  0  0  0  0  0  0  0  0  0  # atno 13556 bound_to 8404
  123.3609  237.6591  326.8525 LP  0  0  0  0  0  0  0  0  0  0  0  0  # atno 13557 bound_to 9189
  125.8832  247.6060  317.4872 LP  0  0  0  0  0  0  0  0  0  0  0  0  # atno 13558 bound_to 4938
  126.6762  246.5731  316.5019 LP  0  0  0  0  0  0  0  0  0  0  0  0  # atno 13559 bound_to 4938
  119.6476  245.8148  312.9601 LP  0  0  0  0  0  0  0  0  0  0  0  0  # atno 13560 bound_to 9036
  120.0852  244.2999  313.3844 LP  0  0  0  0  0  0  0  0  0  0  0  0  # atno 13561 bound_to 9036
  113.3577  244.4262  315.6860 LP  0  0  0  0  0  0  0  0  0  0  0  0  # atno 13562 bound_to 8485
  112.6268  245.7153  316.5826 LP  0  0  0  0  0  0  0  0  0  0  0  0  # atno 13563 bound_to 8485
  114.0320  248.7962  315.0566 LP  0  0  0  0  0  0  0  0  0  0  0  0  # atno 13564 bound_to 8507
  114.3933  249.7964  316.4238 LP  0  0  0  0  0  0  0  0  0  0  0  0  # atno 13565 bound_to 8507
  115.7352  250.4122  314.7590 LP  0  0  0  0  0  0  0  0  0  0  0  0  # atno 13566 bound_to 8996
  112.7755  248.4930  316.7869 LP  0  0  0  0  0  0  0  0  0  0  0  0  # atno 13567 bound_to 8535
  123.2044  246.8580  313.1221 LP  0  0  0  0  0  0  0  0  0  0  0  0  # atno 13570 bound_to 4954
  119.5790  249.1669  313.2098 LP  0  0  0  0  0  0  0  0  0  0  0  0  # atno 13571 bound_to 4957
  120.9372  248.5066  314.0580 LP  0  0  0  0  0  0  0  0  0  0  0  0  # atno 13572 bound_to 4957
  110.6295  247.0994  317.4149 LP  0  0  0  0  0  0  0  0  0  0  0  0  # atno 13573 bound_to 5599
  109.8544  247.4789  318.9167 LP  0  0  0  0  0  0  0  0  0  0  0  0  # atno 13574 bound_to 5599
  112.6849  238.8121  320.8840 LP  0  0  0  0  0  0  0  0  0  0  0  0  # atno 13575 bound_to 8378
  111.2473  238.2279  320.3754 LP  0  0  0  0  0  0  0  0  0  0  0  0  # atno 13576 bound_to 8378
  108.4084  244.3577  317.2202 LP  0  0  0  0  0  0  0  0  0  0  0  0  # atno 13581 bound_to 5624
  111.1510  240.4820  317.5279 LP  0  0  0  0  0  0  0  0  0  0  0  0  # atno 13582 bound_to 5698
  112.1815  239.0951  317.4079 LP  0  0  0  0  0  0  0  0  0  0  0  0  # atno 13583 bound_to 5698
  114.4519  237.6889  328.1607 LP  0  0  0  0  0  0  0  0  0  0  0  0  # atno 13584 bound_to 9239
  114.3717  238.6580  326.7274 LP  0  0  0  0  0  0  0  0  0  0  0  0  # atno 13585 bound_to 9239
  106.6057  244.4687  318.6159 LP  0  0  0  0  0  0  0  0  0  0  0  0  # atno 13586 bound_to 5601
  105.9665  244.7381  320.0942 LP  0  0  0  0  0  0  0  0  0  0  0  0  # atno 13587 bound_to 5601
  109.2809  242.2607  315.3283 LP  0  0  0  0  0  0  0  0  0  0  0  0  # atno 13588 bound_to 5627
  108.5947  243.8129  314.9818 LP  0  0  0  0  0  0  0  0  0  0  0  0  # atno 13589 bound_to 5627
  111.8352  244.7039  314.9498 LP  0  0  0  0  0  0  0  0  0  0  0  0  # atno 13590 bound_to 5657
  112.1339  241.5654  315.1998 LP  0  0  0  0  0  0  0  0  0  0  0  0  # atno 13591 bound_to 5695
  110.0355  238.0050  315.4004 LP  0  0  0  0  0  0  0  0  0  0  0  0  # atno 13592 bound_to 5736
  108.0123  236.9174  317.2169 LP  0  0  0  0  0  0  0  0  0  0  0  0  # atno 13593 bound_to 5785
  117.4449  234.9153  319.3667 LP  0  0  0  0  0  0  0  0  0  0  0  0  # atno 13596 bound_to 8370
  117.0974  236.5022  318.7658 LP  0  0  0  0  0  0  0  0  0  0  0  0  # atno 13597 bound_to 8370
  112.2452  237.9918  328.2613 LP  0  0  0  0  0  0  0  0  0  0  0  0  # atno 13598 bound_to 9397
  110.0891  236.3681  329.2951 LP  0  0  0  0  0  0  0  0  0  0  0  0  # atno 13601 bound_to 9355
  110.3554  237.2188  330.7801 LP  0  0  0  0  0  0  0  0  0  0  0  0  # atno 13602 bound_to 9355
  109.1313  235.0544  326.9609 LP  0  0  0  0  0  0  0  0  0  0  0  0  # atno 13603 bound_to 9400
  109.3305  233.7817  328.1188 LP  0  0  0  0  0  0  0  0  0  0  0  0  # atno 13604 bound_to 9400
  114.6382  237.0708  330.0593 LP  0  0  0  0  0  0  0  0  0  0  0  0  # atno 13608 bound_to 9352

> <Gold.Score>
     Fitness  S(hb_ext) S(vdw_ext)  S(hb_int)    S(int)      intcor
     35.37       1.20      24.90       0.00      -0.07      -0.76

> <Gold.Goldscore.Fitness>
35.3705

> <Gold.Goldscore.Internal.Vdw>
-0.3122

> <Gold.Goldscore.Internal.Torsion>
-0.5161

> <Gold.Goldscore.External.Vdw>
24.9006

> <Gold.Goldscore.Internal.HBond>
0.0000

> <Gold.Goldscore.External.HBond>
1.2020

> <Gold.Goldscore.Internal.Correction>
-0.7585

> <Gold.Goldscore.Hbonds>
donor molecule, donor type, donor heavy atom, donor atom, acceptor molecule, acceptor atom, score
      L1  H     8    22       P1  9239  0.60

> <Gold.Goldscore.Internal.Vdw.Weighted>
-0.3122

> <Gold.Goldscore.Internal.Torsion.Weighted>
-0.5161

> <Gold.Goldscore.External.Vdw.Weighted>
34.2383

> <Gold.Goldscore.Internal.HBond.Weighted>
0.0000

> <Gold.Goldscore.External.HBond.Weighted>
1.2020

> <Gold.Goldscore.Internal.Correction.Weighted>
-0.7585

> <Gold.Rescore>
     Score     S(PLP)   S(hbond)     S(cho)   S(metal)  DE(clash)   DE(tors)     intcor
     32.46     -34.63       0.00       0.00       0.00       0.00       1.08       ----

> <Gold.PLP.Fitness>
32.4604

> <Gold.PLP.PLP>
-34.6281

> <Gold.PLP.part.hbond>
-2.0000

> <Gold.PLP.part.metal>
0.0000

> <Gold.PLP.part.buried>
-8.5712

> <Gold.PLP.part.nonpolar>
-26.8572

> <Gold.PLP.part.repulsive>
2.1498

> <Gold.PLP.ligand.clash>
0.0000

> <Gold.PLP.ligand.torsion>
1.0839

> <Gold.PLP.Chemscore.Hbond>
0.0000

> <Gold.PLP.Chemscore.CHOScore>
0.0000

> <Gold.PLP.Chemscore.Metal>
0.0000

> <Gold.Chemscore.Hbonds>
donor molecule, donor type, donor heavy atom, donor atom, acceptor molecule, acceptor atom, score
      L1  H     8    22       P1  9239  0.05

> <Gold.PLP.Chemscore.Internal.Correction>
   9.000000E+99

