#       Name:                CT1002167954
#       Creating user name   hitesit
#       Creation time:       Sun Apr 16 20:17:45 2023


#       File generated by GOLD software.
#

@<TRIPOS>MOLECULE
CT1002167954|ligand_prepared|mol2|1|dock7
    29    30     1
SMALL
NO_CHARGES


@<TRIPOS>ATOM
      1 C1         113.3169 242.3927 324.3677 C.3            1 RES1               0.0000
      2 C2         112.7898 242.6581 325.7927 C.ar           1 RES1               0.0000
      3 C3         113.7207 240.9217 324.3274 C.2            1 RES1               0.0000
      4 C4         112.1793 242.7518 323.4183 C.2            1 RES1               0.0000
      5 C5         114.5461 243.2501 323.9864 C.3            1 RES1               0.0000
      6 C6         111.4220 242.7024 326.0455 C.ar           1 RES1               0.0000
      7 C7         113.6575 242.8576 326.8632 C.ar           1 RES1               0.0000
      8 N8         112.9107 240.0627 323.6448 N.am           1 RES1               0.0000
      9 O9         114.7134 240.5152 324.9186 O.2            1 RES1               0.0000
     10 N10        111.6126 241.7427 322.6845 N.am           1 RES1               0.0000
     11 O11        111.7573 243.8967 323.3113 O.2            1 RES1               0.0000
     12 C12        114.9560 243.1197 322.5280 C.3            1 RES1               0.0000
     13 C13        110.9391 242.9347 327.3226 C.ar           1 RES1               0.0000
     14 C14        113.1724 243.0900 328.1396 C.ar           1 RES1               0.0000
     15 C15        111.9062 240.4095 322.7774 C.2            1 RES1               0.0000
     16 C16        111.8138 243.1282 328.3705 C.ar           1 RES1               0.0000
     17 O17        111.3150 239.5553 322.1233 O.2            1 RES1               0.0000
     18 H18        114.3213 244.3029 324.1972 H              1 RES1               0.0000
     19 H19        115.3925 242.9548 324.6188 H              1 RES1               0.0000
     20 H20        110.7184 242.5549 325.2329 H              1 RES1               0.0000
     21 H21        114.7303 242.8329 326.7048 H              1 RES1               0.0000
     22 H22        113.0663 239.0706 323.7931 H              1 RES1               0.0000
     23 H23        110.9066 242.0102 322.0060 H              1 RES1               0.0000
     24 H24        115.8228 243.7414 322.3138 H              1 RES1               0.0000
     25 H25        115.2110 242.0891 322.2896 H              1 RES1               0.0000
     26 H26        114.1462 243.4292 321.8705 H              1 RES1               0.0000
     27 H27        109.8689 242.9652 327.4989 H              1 RES1               0.0000
     28 H28        113.8645 243.2423 328.9612 H              1 RES1               0.0000
     29 H29        111.4352 243.3098 329.3709 H              1 RES1               0.0000
@<TRIPOS>BOND
    1    1    2 1     
    2    1    3 1     
    3    1    4 1     
    4    1    5 1     
    5    2    6 ar    
    6    2    7 ar    
    7    3    8 1     
    8    3    9 2     
    9    4   10 1     
   10    4   11 2     
   11    5   12 1     
   12    5   18 1     
   13    5   19 1     
   14    6   13 ar    
   15    6   20 1     
   16    7   14 ar    
   17    7   21 1     
   18    8   15 1     
   19    8   22 1     
   20   10   15 1     
   21   10   23 1     
   22   12   24 1     
   23   12   25 1     
   24   12   26 1     
   25   13   16 ar    
   26   13   27 1     
   27   14   16 ar    
   28   14   28 1     
   29   15   17 2     
   30   16   29 1     
@<TRIPOS>SUBSTRUCTURE
      1 RES1           1
@<TRIPOS>SET
DONOR_HYDROGENS      STATIC     ATOMS    <user>   **** ""
2 22 23
ATOM$RED        STATIC     ATOMS    COLORGROUP SYSTEM
2 22 23
@<TRIPOS>COMMENT
> <Gold.Version>
2022.3.0

> <Gold.Id.Protein>
unknown|4uh5_clean|pdb

> <Gold.Protein.RotatedTorsions>
[ 8492 8482 8483 8484 ] final -158.37 input   34.95 | X-H torsion
[ 8520 8504 8505 8506 ] final -174.75 input  102.00 | X-H torsion
[ 9058 9051 9052 9053 ] final  100.46 input   39.76 | X-H torsion
[ 9099 9075 9076 9077 ] final -167.24 input   37.88 | X-H torsion
[ 9142 9121 9122 9123 ] final   -0.78 input   94.46 | X-H torsion
[ 9150 9132 9131 9129 ] final -121.00 input   60.01 | X-H torsion
[ 9176 9159 9160 9161 ] final   36.24 input   86.63 | X-H torsion
[ 9251 9236 9237 9238 ] final -141.44 input  127.08 | X-H torsion
[ 3623 3616 3617 3618 ] final -103.94 input   94.27 | X-H torsion
[ 3649 3645 3646 3647 ] final   82.32 input   86.49 | X-H torsion
[ 9041 9031 9032 9033 ] final  -49.50 input   26.45 | X-H torsion
[ 9196 9189 9190 9191 ] final  173.99 input  130.40 | X-H torsion
[ 4948 4938 4937 4934 ] final   -4.74 input   60.00 | X-H torsion
[ 9045 9036 9035 9032 ] final -108.87 input   59.99 | X-H torsion
[ 9007 8996 8997 8998 ] final  -36.82 input   49.09 | X-H torsion
[ 8546 8535 8536 8537 ] final  -31.63 input   50.11 | X-H torsion
[ 4964 4954 4955 4956 ] final -174.90 input   27.83 | X-H torsion
[ 8387 8378 8377 8375 ] final  -81.20 input   59.99 | X-H torsion
[ 5633 5624 5625 5626 ] final   24.79 input   44.71 | X-H torsion
[ 5606 5601 5600 5597 ] final  148.26 input   59.98 | X-H torsion
[ 5665 5657 5658 5659 ] final   63.12 input  114.33 | X-H torsion
[ 5703 5695 5696 5697 ] final   37.12 input   57.04 | X-H torsion
[ 5747 5736 5737 5738 ] final  -63.61 input   30.88 | X-H torsion
[ 5805 5785 5786 5787 ] final   98.76 input   92.04 | X-H torsion
[ 9405 9397 9398 9399 ] final  125.39 input  123.68 | X-H torsion
[ 9388 9352 9353 9354 ] final   31.62 input  105.06 | X-H torsion
[ 11118 11102 11103 11104 ] final -116.06 input   57.11 | X-H torsion
[ 8379 8367 8368 8369 ] final   66.76 input   85.33 | X-H torsion
[ 5602 5596 5597 5598 ] final  116.15 input  106.64 | X-H torsion
[ 13518 8422 8421 8420 ] final   -3.17 input    0.00 | X-H torsion
[ 13521 8459 8458 8457 ] final  -27.22 input   -0.00 | X-H torsion
[ 13525 8999 8998 8997 ] final   89.63 input   -0.00 | X-H torsion
[ 13528 9054 9053 9052 ] final -178.99 input   -0.00 | X-H torsion
[ 13531 9078 9077 9076 ] final   19.55 input    0.00 | X-H torsion
[ 13534 9124 9123 9122 ] final   55.77 input   -0.00 | X-H torsion
[ 13539 9162 9161 9160 ] final -142.55 input   -0.00 | X-H torsion
[ 13553 9034 9033 9032 ] final   97.81 input    0.00 | X-H torsion
[ 13555 8404 8403 8402 ] final -158.10 input    0.00 | X-H torsion
[ 13562 8485 8484 8483 ] final  141.48 input    0.00 | X-H torsion
[ 13564 8507 8506 8505 ] final  135.73 input   -0.00 | X-H torsion
[ 13571 4957 4956 4955 ] final  -12.03 input   -0.00 | X-H torsion
[ 13573 5599 5598 5597 ] final   75.16 input   -0.00 | X-H torsion
[ 13582 5698 5697 5696 ] final  -17.68 input   -0.00 | X-H torsion
[ 13584 9239 9238 9237 ] final   26.00 input    0.00 | X-H torsion
[ 13588 5627 5626 5625 ] final  156.50 input    0.00 | X-H torsion
[ 13596 8370 8369 8368 ] final  -74.02 input   -0.00 | X-H torsion
[ 13601 9355 9354 9353 ] final   83.44 input   -0.00 | X-H torsion
[ 13603 9400 9399 9398 ] final  132.68 input   -0.00 | X-H torsion

> <Gold.Protein.ActiveResidues>
 MET341  TRP414  CYS420  VAL421  GLY422  LEU429  LEU460  SER462  ALA463  ILE464 
 SER482  GLN483  LEU484  ILE485  ARG486  TYR487  ASP500  ALA502  ASN503  TRP566 
 TYR567  GLY568  LEU569  PRO570  ALA571  VAL572  SER573  ASN574  PRO588  PHE589 
 SER590  GLY591  TRP592  TYR593  MET594  GLY595  GLU597  ILE598  ARG601  ASP602 
 ASP605  ARG608  ILE653  VAL654  TRP683  PRO687  PHE696  HIS697  TYR711  HEM750 
 H4B760 

> <Gold.Protein.RotatedAtoms>
  122.6447  250.1163  327.7693 H   0  0  0  0  0  0  0  0  0  0  0  0  # atno 3623 bound_to 3616
  123.8474  248.6891  325.8100 H   0  0  0  0  0  0  0  0  0  0  0  0  # atno 3649 bound_to 3645
  125.5652  246.0381  316.5708 H   0  0  0  0  0  0  0  0  0  0  0  0  # atno 4948 bound_to 4938
  123.9634  247.3627  313.1163 H   0  0  0  0  0  0  0  0  0  0  0  0  # atno 4964 bound_to 4954
  105.9704  245.2614  317.2281 H   0  0  0  0  0  0  0  0  0  0  0  0  # atno 5602 bound_to 5596
  106.9502  244.6085  320.4526 H   0  0  0  0  0  0  0  0  0  0  0  0  # atno 5606 bound_to 5601
  108.3886  244.4773  316.9398 H   0  0  0  0  0  0  0  0  0  0  0  0  # atno 5633 bound_to 5624
  112.2289  243.4593  315.4423 H   0  0  0  0  0  0  0  0  0  0  0  0  # atno 5665 bound_to 5657
  111.9802  241.5923  315.2795 H   0  0  0  0  0  0  0  0  0  0  0  0  # atno 5703 bound_to 5695
  110.3601  238.0603  315.6466 H   0  0  0  0  0  0  0  0  0  0  0  0  # atno 5747 bound_to 5736
  108.3974  236.3431  318.8180 H   0  0  0  0  0  0  0  0  0  0  0  0  # atno 5805 bound_to 5785
  114.8187  234.3243  318.9873 H   0  0  0  0  0  0  0  0  0  0  0  0  # atno 8379 bound_to 8367
  111.3704  239.1413  319.6189 H   0  0  0  0  0  0  0  0  0  0  0  0  # atno 8387 bound_to 8378
  116.8149  243.1357  317.4342 H   0  0  0  0  0  0  0  0  0  0  0  0  # atno 8492 bound_to 8482
  115.1560  245.9710  318.0645 H   0  0  0  0  0  0  0  0  0  0  0  0  # atno 8520 bound_to 8504
  111.8267  248.7758  317.4354 H   0  0  0  0  0  0  0  0  0  0  0  0  # atno 8546 bound_to 8535
  115.7100  248.7817  314.1839 H   0  0  0  0  0  0  0  0  0  0  0  0  # atno 9007 bound_to 8996
  119.4087  248.4099  315.9519 H   0  0  0  0  0  0  0  0  0  0  0  0  # atno 9041 bound_to 9031
  119.5703  245.6391  312.8943 H   0  0  0  0  0  0  0  0  0  0  0  0  # atno 9045 bound_to 9036
  120.3456  245.4852  317.8025 H   0  0  0  0  0  0  0  0  0  0  0  0  # atno 9058 bound_to 9051
  123.0387  243.2664  317.9607 H   0  0  0  0  0  0  0  0  0  0  0  0  # atno 9099 bound_to 9075
  123.2952  240.2626  321.1150 H   0  0  0  0  0  0  0  0  0  0  0  0  # atno 9142 bound_to 9121
  114.8865  238.2250  321.2257 H   0  0  0  0  0  0  0  0  0  0  0  0  # atno 9150 bound_to 9132
  121.0176  240.2183  324.5724 H   0  0  0  0  0  0  0  0  0  0  0  0  # atno 9176 bound_to 9159
  123.2299  237.5793  326.3901 H   0  0  0  0  0  0  0  0  0  0  0  0  # atno 9196 bound_to 9189
  118.5847  239.2619  329.1259 H   0  0  0  0  0  0  0  0  0  0  0  0  # atno 9251 bound_to 9236
  114.3899  236.6761  330.0982 H   0  0  0  0  0  0  0  0  0  0  0  0  # atno 9388 bound_to 9352
  113.1561  237.3009  327.9578 H   0  0  0  0  0  0  0  0  0  0  0  0  # atno 9405 bound_to 9397
  126.6315  237.3515  323.5676 H   0  0  0  0  0  0  0  0  0  0  0  0  # atno 11118 bound_to 11102
  115.9698  239.4615  315.6411 LP  0  0  0  0  0  0  0  0  0  0  0  0  # atno 13518 bound_to 8422
  115.6598  240.5029  316.9899 LP  0  0  0  0  0  0  0  0  0  0  0  0  # atno 13519 bound_to 8422
  118.8994  243.7104  318.1658 LP  0  0  0  0  0  0  0  0  0  0  0  0  # atno 13521 bound_to 8459
  118.1863  244.4861  316.7911 LP  0  0  0  0  0  0  0  0  0  0  0  0  # atno 13522 bound_to 8459
  115.1084  243.2242  317.7951 LP  0  0  0  0  0  0  0  0  0  0  0  0  # atno 13523 bound_to 8482
  115.1277  246.7457  316.4980 LP  0  0  0  0  0  0  0  0  0  0  0  0  # atno 13524 bound_to 8504
  116.3599  246.9431  315.6931 LP  0  0  0  0  0  0  0  0  0  0  0  0  # atno 13525 bound_to 8999
  116.8567  247.7832  317.1240 LP  0  0  0  0  0  0  0  0  0  0  0  0  # atno 13526 bound_to 8999
  120.8152  245.0902  316.1628 LP  0  0  0  0  0  0  0  0  0  0  0  0  # atno 13527 bound_to 9051
  122.4636  241.6542  316.9173 LP  0  0  0  0  0  0  0  0  0  0  0  0  # atno 13528 bound_to 9054
  122.0720  243.0093  315.9121 LP  0  0  0  0  0  0  0  0  0  0  0  0  # atno 13529 bound_to 9054
  122.8797  243.6531  319.6588 LP  0  0  0  0  0  0  0  0  0  0  0  0  # atno 13530 bound_to 9075
  122.4664  243.2782  321.0837 LP  0  0  0  0  0  0  0  0  0  0  0  0  # atno 13531 bound_to 9078
  122.5323  242.2253  322.4574 LP  0  0  0  0  0  0  0  0  0  0  0  0  # atno 13532 bound_to 9078
  121.7711  240.2248  320.2576 LP  0  0  0  0  0  0  0  0  0  0  0  0  # atno 13533 bound_to 9121
  124.2982  239.6799  322.8373 LP  0  0  0  0  0  0  0  0  0  0  0  0  # atno 13534 bound_to 9124
  123.9092  238.5444  324.0861 LP  0  0  0  0  0  0  0  0  0  0  0  0  # atno 13535 bound_to 9124
  115.1542  239.6117  320.4181 LP  0  0  0  0  0  0  0  0  0  0  0  0  # atno 13536 bound_to 9132
  114.8589  239.6424  322.0239 LP  0  0  0  0  0  0  0  0  0  0  0  0  # atno 13537 bound_to 9132
  122.6287  240.5932  324.0071 LP  0  0  0  0  0  0  0  0  0  0  0  0  # atno 13538 bound_to 9159
  119.9276  238.3241  327.1458 LP  0  0  0  0  0  0  0  0  0  0  0  0  # atno 13539 bound_to 9162
  120.0324  239.2001  325.6552 LP  0  0  0  0  0  0  0  0  0  0  0  0  # atno 13540 bound_to 9162
  118.6546  237.8589  328.0849 LP  0  0  0  0  0  0  0  0  0  0  0  0  # atno 13541 bound_to 9236
  122.2532  248.4777  327.2971 LP  0  0  0  0  0  0  0  0  0  0  0  0  # atno 13550 bound_to 3616
  125.0552  248.2921  327.0055 LP  0  0  0  0  0  0  0  0  0  0  0  0  # atno 13551 bound_to 3645
  118.6100  247.7681  314.5406 LP  0  0  0  0  0  0  0  0  0  0  0  0  # atno 13552 bound_to 9031
  121.9636  247.6752  316.1977 LP  0  0  0  0  0  0  0  0  0  0  0  0  # atno 13553 bound_to 9034
  122.0125  246.6326  314.8154 LP  0  0  0  0  0  0  0  0  0  0  0  0  # atno 13554 bound_to 9034
  120.1478  238.8096  317.5808 LP  0  0  0  0  0  0  0  0  0  0  0  0  # atno 13555 bound_to 8404
  121.1045  237.3665  317.6273 LP  0  0  0  0  0  0  0  0  0  0  0  0  # atno 13556 bound_to 8404
  121.9778  238.4930  327.2039 LP  0  0  0  0  0  0  0  0  0  0  0  0  # atno 13557 bound_to 9189
  125.3347  247.3390  317.5205 LP  0  0  0  0  0  0  0  0  0  0  0  0  # atno 13558 bound_to 4938
  126.7817  247.0929  316.8049 LP  0  0  0  0  0  0  0  0  0  0  0  0  # atno 13559 bound_to 4938
  120.2352  244.2931  313.5221 LP  0  0  0  0  0  0  0  0  0  0  0  0  # atno 13560 bound_to 9036
  120.7683  245.7645  313.9883 LP  0  0  0  0  0  0  0  0  0  0  0  0  # atno 13561 bound_to 9036
  112.6325  245.3231  316.8805 LP  0  0  0  0  0  0  0  0  0  0  0  0  # atno 13562 bound_to 8485
  113.3520  244.8184  315.3880 LP  0  0  0  0  0  0  0  0  0  0  0  0  # atno 13563 bound_to 8485
  113.7977  249.0318  315.0276 LP  0  0  0  0  0  0  0  0  0  0  0  0  # atno 13564 bound_to 8507
  114.6276  249.5609  316.4528 LP  0  0  0  0  0  0  0  0  0  0  0  0  # atno 13565 bound_to 8507
  115.7980  250.4923  314.5304 LP  0  0  0  0  0  0  0  0  0  0  0  0  # atno 13566 bound_to 8996
  112.2133  247.4104  316.4205 LP  0  0  0  0  0  0  0  0  0  0  0  0  # atno 13567 bound_to 8535
  122.5438  247.8216  314.0235 LP  0  0  0  0  0  0  0  0  0  0  0  0  # atno 13570 bound_to 4954
  120.6889  248.0880  313.6952 LP  0  0  0  0  0  0  0  0  0  0  0  0  # atno 13571 bound_to 4957
  119.8273  249.5855  313.5727 LP  0  0  0  0  0  0  0  0  0  0  0  0  # atno 13572 bound_to 4957
  110.1046  247.1573  319.0106 LP  0  0  0  0  0  0  0  0  0  0  0  0  # atno 13573 bound_to 5599
  110.3792  247.4210  317.3209 LP  0  0  0  0  0  0  0  0  0  0  0  0  # atno 13574 bound_to 5599
  112.7504  239.3208  320.4624 LP  0  0  0  0  0  0  0  0  0  0  0  0  # atno 13575 bound_to 8378
  111.7183  238.1093  320.8280 LP  0  0  0  0  0  0  0  0  0  0  0  0  # atno 13576 bound_to 8378
  109.0749  245.7485  317.9275 LP  0  0  0  0  0  0  0  0  0  0  0  0  # atno 13581 bound_to 5624
  112.4024  239.8860  317.0222 LP  0  0  0  0  0  0  0  0  0  0  0  0  # atno 13582 bound_to 5698
  110.9301  239.6911  317.9135 LP  0  0  0  0  0  0  0  0  0  0  0  0  # atno 13583 bound_to 5698
  114.4628  239.0338  327.3588 LP  0  0  0  0  0  0  0  0  0  0  0  0  # atno 13584 bound_to 9239
  114.3608  237.3131  327.5294 LP  0  0  0  0  0  0  0  0  0  0  0  0  # atno 13585 bound_to 9239
  107.3705  244.3668  318.8993 LP  0  0  0  0  0  0  0  0  0  0  0  0  # atno 13586 bound_to 5601
  105.8154  244.6777  319.2885 LP  0  0  0  0  0  0  0  0  0  0  0  0  # atno 13587 bound_to 5601
  109.1603  243.0952  314.3201 LP  0  0  0  0  0  0  0  0  0  0  0  0  # atno 13588 bound_to 5627
  108.7153  242.9784  315.9900 LP  0  0  0  0  0  0  0  0  0  0  0  0  # atno 13589 bound_to 5627
  110.8373  244.4617  315.1169 LP  0  0  0  0  0  0  0  0  0  0  0  0  # atno 13590 bound_to 5657
  111.5169  241.4832  313.5979 LP  0  0  0  0  0  0  0  0  0  0  0  0  # atno 13591 bound_to 5695
  109.4818  239.5734  315.5492 LP  0  0  0  0  0  0  0  0  0  0  0  0  # atno 13592 bound_to 5736
  107.9853  236.9367  317.2303 LP  0  0  0  0  0  0  0  0  0  0  0  0  # atno 13593 bound_to 5785
  116.7243  236.3519  318.8732 LP  0  0  0  0  0  0  0  0  0  0  0  0  # atno 13596 bound_to 8370
  117.8180  235.0656  319.2594 LP  0  0  0  0  0  0  0  0  0  0  0  0  # atno 13597 bound_to 8370
  111.9144  237.1733  329.1781 LP  0  0  0  0  0  0  0  0  0  0  0  0  # atno 13598 bound_to 9397
  109.9171  237.5802  329.8431 LP  0  0  0  0  0  0  0  0  0  0  0  0  # atno 13601 bound_to 9355
  110.5275  236.0066  330.2320 LP  0  0  0  0  0  0  0  0  0  0  0  0  # atno 13602 bound_to 9355
  109.5128  233.6438  327.2731 LP  0  0  0  0  0  0  0  0  0  0  0  0  # atno 13603 bound_to 9400
  108.9490  235.1923  327.8066 LP  0  0  0  0  0  0  0  0  0  0  0  0  # atno 13604 bound_to 9400
  114.4127  237.4527  331.6636 LP  0  0  0  0  0  0  0  0  0  0  0  0  # atno 13608 bound_to 9352

> <Gold.Score>
     Fitness  S(hb_ext) S(vdw_ext)  S(hb_int)    S(int)      intcor
     33.13       3.10      22.72       0.00      -1.21      -0.76

> <Gold.Goldscore.Fitness>
33.1256

> <Gold.Goldscore.Internal.Vdw>
-1.5198

> <Gold.Goldscore.Internal.Torsion>
-0.4522

> <Gold.Goldscore.External.Vdw>
22.7165

> <Gold.Goldscore.Internal.HBond>
0.0000

> <Gold.Goldscore.External.HBond>
3.1039

> <Gold.Goldscore.Internal.Correction>
-0.7585

> <Gold.Goldscore.Hbonds>
donor molecule, donor type, donor heavy atom, donor atom, acceptor molecule, acceptor atom, score
      L1  H     8    22       P1  9404  0.46
      L1  H    10    23       P1  5632  0.06

> <Gold.Goldscore.Internal.Vdw.Weighted>
-1.5198

> <Gold.Goldscore.Internal.Torsion.Weighted>
-0.4522

> <Gold.Goldscore.External.Vdw.Weighted>
31.2352

> <Gold.Goldscore.Internal.HBond.Weighted>
0.0000

> <Gold.Goldscore.External.HBond.Weighted>
3.1039

> <Gold.Goldscore.Internal.Correction.Weighted>
-0.7585

> <Gold.Rescore>
     Score     S(PLP)   S(hbond)     S(cho)   S(metal)  DE(clash)   DE(tors)     intcor
     24.41     -26.97       0.08       0.00       0.00       2.01       0.39       ----

> <Gold.PLP.Fitness>
24.4113

> <Gold.PLP.PLP>
-26.9666

> <Gold.PLP.part.hbond>
-4.6503

> <Gold.PLP.part.metal>
0.0000

> <Gold.PLP.part.buried>
0.9352

> <Gold.PLP.part.nonpolar>
-22.7482

> <Gold.PLP.part.repulsive>
0.7529

> <Gold.PLP.ligand.clash>
2.0085

> <Gold.PLP.ligand.torsion>
0.3880

> <Gold.PLP.Chemscore.Hbond>
0.0764

> <Gold.PLP.Chemscore.CHOScore>
0.0000

> <Gold.PLP.Chemscore.Metal>
0.0000

> <Gold.Chemscore.Hbonds>
donor molecule, donor type, donor heavy atom, donor atom, acceptor molecule, acceptor atom, score
      L1  H     8    22       P1  9404  0.40

> <Gold.PLP.Chemscore.Internal.Correction>
   9.000000E+99

