#       Name:                CT1002167954
#       Creating user name   hitesit
#       Creation time:       Sun Apr 16 20:17:43 2023


#       File generated by GOLD software.
#

@<TRIPOS>MOLECULE
CT1002167954|ligand_prepared|mol2|1|dock5
    29    30     1
SMALL
NO_CHARGES


@<TRIPOS>ATOM
      1 C1         113.0675 242.5672 324.0493 C.3            1 RES1               0.0000
      2 C2         112.9658 242.5500 325.5881 C.ar           1 RES1               0.0000
      3 C3         113.3743 241.1343 323.6241 C.2            1 RES1               0.0000
      4 C4         111.7311 243.0948 323.5393 C.2            1 RES1               0.0000
      5 C5         114.1838 243.4901 323.5071 C.3            1 RES1               0.0000
      6 C6         114.1139 242.5124 326.3738 C.ar           1 RES1               0.0000
      7 C7         111.7333 242.5740 326.2354 C.ar           1 RES1               0.0000
      8 N8         112.3681 240.4173 323.0468 N.am           1 RES1               0.0000
      9 O9         114.4708 240.6280 323.8283 O.2            1 RES1               0.0000
     10 N10        110.9372 242.2421 322.8178 N.am           1 RES1               0.0000
     11 O11        111.3508 244.2361 323.7699 O.2            1 RES1               0.0000
     12 C12        114.1431 243.6809 321.9991 C.3            1 RES1               0.0000
     13 C13        114.0330 242.5022 327.7564 C.ar           1 RES1               0.0000
     14 C14        111.6546 242.5635 327.6182 C.ar           1 RES1               0.0000
     15 C15        111.1814 240.9180 322.5747 C.2            1 RES1               0.0000
     16 C16        112.8035 242.5282 328.3795 C.ar           1 RES1               0.0000
     17 O17        110.3932 240.2017 321.9640 O.2            1 RES1               0.0000
     18 H18        114.0961 244.4713 323.9897 H              1 RES1               0.0000
     19 H19        115.1573 243.0665 323.7832 H              1 RES1               0.0000
     20 H20        115.0902 242.4891 325.9012 H              1 RES1               0.0000
     21 H21        110.8162 242.6009 325.6567 H              1 RES1               0.0000
     22 H22        112.5111 239.4163 322.9579 H              1 RES1               0.0000
     23 H23        110.0854 242.6306 322.4256 H              1 RES1               0.0000
     24 H24        114.9472 244.3364 321.6714 H              1 RES1               0.0000
     25 H25        114.2530 242.7275 321.4866 H              1 RES1               0.0000
     26 H26        113.1980 244.1240 321.6918 H              1 RES1               0.0000
     27 H27        114.9400 242.4729 328.3510 H              1 RES1               0.0000
     28 H28        110.6848 242.5834 328.1043 H              1 RES1               0.0000
     29 H29        112.7403 242.5205 329.4626 H              1 RES1               0.0000
@<TRIPOS>BOND
    1    1    2 1     
    2    1    3 1     
    3    1    4 1     
    4    1    5 1     
    5    2    6 ar    
    6    2    7 ar    
    7    3    8 1     
    8    3    9 2     
    9    4   10 1     
   10    4   11 2     
   11    5   12 1     
   12    5   18 1     
   13    5   19 1     
   14    6   13 ar    
   15    6   20 1     
   16    7   14 ar    
   17    7   21 1     
   18    8   15 1     
   19    8   22 1     
   20   10   15 1     
   21   10   23 1     
   22   12   24 1     
   23   12   25 1     
   24   12   26 1     
   25   13   16 ar    
   26   13   27 1     
   27   14   16 ar    
   28   14   28 1     
   29   15   17 2     
   30   16   29 1     
@<TRIPOS>SUBSTRUCTURE
      1 RES1           1
@<TRIPOS>SET
DONOR_HYDROGENS      STATIC     ATOMS    <user>   **** ""
2 22 23
ATOM$RED        STATIC     ATOMS    COLORGROUP SYSTEM
2 22 23
@<TRIPOS>COMMENT
> <Gold.Version>
2022.3.0

> <Gold.Id.Protein>
unknown|4uh5_clean|pdb

> <Gold.Protein.RotatedTorsions>
[ 8492 8482 8483 8484 ] final   78.85 input   34.95 | X-H torsion
[ 8520 8504 8505 8506 ] final  164.58 input  102.00 | X-H torsion
[ 9058 9051 9052 9053 ] final -156.60 input   39.76 | X-H torsion
[ 9099 9075 9076 9077 ] final   45.31 input   37.88 | X-H torsion
[ 9142 9121 9122 9123 ] final  -43.04 input   94.46 | X-H torsion
[ 9150 9132 9131 9129 ] final   -0.58 input   60.01 | X-H torsion
[ 9176 9159 9160 9161 ] final -153.92 input   86.63 | X-H torsion
[ 9251 9236 9237 9238 ] final    1.88 input  127.08 | X-H torsion
[ 3623 3616 3617 3618 ] final  107.41 input   94.27 | X-H torsion
[ 3649 3645 3646 3647 ] final  122.07 input   86.49 | X-H torsion
[ 9041 9031 9032 9033 ] final -151.90 input   26.45 | X-H torsion
[ 9196 9189 9190 9191 ] final   49.94 input  130.40 | X-H torsion
[ 4948 4938 4937 4934 ] final    6.65 input   60.00 | X-H torsion
[ 9045 9036 9035 9032 ] final  164.08 input   59.99 | X-H torsion
[ 9007 8996 8997 8998 ] final  107.54 input   49.09 | X-H torsion
[ 8546 8535 8536 8537 ] final   98.19 input   50.11 | X-H torsion
[ 4964 4954 4955 4956 ] final   74.13 input   27.83 | X-H torsion
[ 8387 8378 8377 8375 ] final -161.29 input   59.99 | X-H torsion
[ 5633 5624 5625 5626 ] final   17.91 input   44.71 | X-H torsion
[ 5606 5601 5600 5597 ] final   74.19 input   59.98 | X-H torsion
[ 5665 5657 5658 5659 ] final    0.55 input  114.33 | X-H torsion
[ 5703 5695 5696 5697 ] final -163.90 input   57.04 | X-H torsion
[ 5747 5736 5737 5738 ] final   24.07 input   30.88 | X-H torsion
[ 5805 5785 5786 5787 ] final   98.95 input   92.04 | X-H torsion
[ 9405 9397 9398 9399 ] final -120.82 input  123.68 | X-H torsion
[ 9388 9352 9353 9354 ] final -177.57 input  105.06 | X-H torsion
[ 11118 11102 11103 11104 ] final   41.21 input   57.11 | X-H torsion
[ 8379 8367 8368 8369 ] final -121.70 input   85.33 | X-H torsion
[ 5602 5596 5597 5598 ] final -179.03 input  106.64 | X-H torsion
[ 13518 8422 8421 8420 ] final  161.99 input    0.00 | X-H torsion
[ 13521 8459 8458 8457 ] final   43.59 input   -0.00 | X-H torsion
[ 13525 8999 8998 8997 ] final    6.82 input   -0.00 | X-H torsion
[ 13528 9054 9053 9052 ] final   53.38 input   -0.00 | X-H torsion
[ 13531 9078 9077 9076 ] final   42.01 input    0.00 | X-H torsion
[ 13534 9124 9123 9122 ] final -166.41 input   -0.00 | X-H torsion
[ 13539 9162 9161 9160 ] final  165.74 input   -0.00 | X-H torsion
[ 13553 9034 9033 9032 ] final  103.78 input    0.00 | X-H torsion
[ 13555 8404 8403 8402 ] final -116.98 input    0.00 | X-H torsion
[ 13562 8485 8484 8483 ] final -109.94 input    0.00 | X-H torsion
[ 13564 8507 8506 8505 ] final  -84.79 input   -0.00 | X-H torsion
[ 13571 4957 4956 4955 ] final  159.61 input   -0.00 | X-H torsion
[ 13573 5599 5598 5597 ] final -156.69 input   -0.00 | X-H torsion
[ 13582 5698 5697 5696 ] final -103.38 input   -0.00 | X-H torsion
[ 13584 9239 9238 9237 ] final  127.01 input    0.00 | X-H torsion
[ 13588 5627 5626 5625 ] final    3.11 input    0.00 | X-H torsion
[ 13596 8370 8369 8368 ] final -101.51 input   -0.00 | X-H torsion
[ 13601 9355 9354 9353 ] final  171.31 input   -0.00 | X-H torsion
[ 13603 9400 9399 9398 ] final -175.07 input   -0.00 | X-H torsion

> <Gold.Protein.ActiveResidues>
 MET341  TRP414  CYS420  VAL421  GLY422  LEU429  LEU460  SER462  ALA463  ILE464 
 SER482  GLN483  LEU484  ILE485  ARG486  TYR487  ASP500  ALA502  ASN503  TRP566 
 TYR567  GLY568  LEU569  PRO570  ALA571  VAL572  SER573  ASN574  PRO588  PHE589 
 SER590  GLY591  TRP592  TYR593  MET594  GLY595  GLU597  ILE598  ARG601  ASP602 
 ASP605  ARG608  ILE653  VAL654  TRP683  PRO687  PHE696  HIS697  TYR711  HEM750 
 H4B760 

> <Gold.Protein.RotatedAtoms>
  122.0663  248.5073  327.7313 H   0  0  0  0  0  0  0  0  0  0  0  0  # atno 3623 bound_to 3616
  123.7856  248.1189  325.9799 H   0  0  0  0  0  0  0  0  0  0  0  0  # atno 3649 bound_to 3645
  125.7354  246.0257  316.4976 H   0  0  0  0  0  0  0  0  0  0  0  0  # atno 4948 bound_to 4938
  122.6043  246.9998  313.4759 H   0  0  0  0  0  0  0  0  0  0  0  0  # atno 4964 bound_to 4954
  105.6817  246.1091  316.9139 H   0  0  0  0  0  0  0  0  0  0  0  0  # atno 5602 bound_to 5596
  107.6352  244.3964  319.5823 H   0  0  0  0  0  0  0  0  0  0  0  0  # atno 5606 bound_to 5601
  108.3901  244.5476  316.8597 H   0  0  0  0  0  0  0  0  0  0  0  0  # atno 5633 bound_to 5624
  111.3811  243.1669  315.6201 H   0  0  0  0  0  0  0  0  0  0  0  0  # atno 5665 bound_to 5657
  111.8283  241.4261  313.5557 H   0  0  0  0  0  0  0  0  0  0  0  0  # atno 5703 bound_to 5695
  109.2937  238.3999  315.1182 H   0  0  0  0  0  0  0  0  0  0  0  0  # atno 5747 bound_to 5736
  108.3996  236.3416  318.8169 H   0  0  0  0  0  0  0  0  0  0  0  0  # atno 5805 bound_to 5785
  115.0312  232.7292  318.2777 H   0  0  0  0  0  0  0  0  0  0  0  0  # atno 8379 bound_to 8367
  112.4296  239.5900  319.9768 H   0  0  0  0  0  0  0  0  0  0  0  0  # atno 8387 bound_to 8378
  115.3440  242.7442  317.1519 H   0  0  0  0  0  0  0  0  0  0  0  0  # atno 8492 bound_to 8482
  115.3584  246.2102  318.1156 H   0  0  0  0  0  0  0  0  0  0  0  0  # atno 8520 bound_to 8504
  111.5471  247.3733  316.7404 H   0  0  0  0  0  0  0  0  0  0  0  0  # atno 8546 bound_to 8535
  115.6688  250.2568  314.9934 H   0  0  0  0  0  0  0  0  0  0  0  0  # atno 9007 bound_to 8996
  118.1732  248.0276  315.5082 H   0  0  0  0  0  0  0  0  0  0  0  0  # atno 9041 bound_to 9031
  119.8519  244.4118  313.1713 H   0  0  0  0  0  0  0  0  0  0  0  0  # atno 9045 bound_to 9036
  120.8729  246.0642  316.6507 H   0  0  0  0  0  0  0  0  0  0  0  0  # atno 9058 bound_to 9051
  123.3652  243.6434  319.5873 H   0  0  0  0  0  0  0  0  0  0  0  0  # atno 9099 bound_to 9075
  123.0306  240.8443  321.0894 H   0  0  0  0  0  0  0  0  0  0  0  0  # atno 9142 bound_to 9121
  114.8637  239.6443  322.0151 H   0  0  0  0  0  0  0  0  0  0  0  0  # atno 9150 bound_to 9132
  122.6239  240.7387  324.0647 H   0  0  0  0  0  0  0  0  0  0  0  0  # atno 9176 bound_to 9159
  122.6105  238.2517  327.6696 H   0  0  0  0  0  0  0  0  0  0  0  0  # atno 9196 bound_to 9189
  118.3251  237.7206  328.5039 H   0  0  0  0  0  0  0  0  0  0  0  0  # atno 9251 bound_to 9236
  114.6431  237.7361  331.4168 H   0  0  0  0  0  0  0  0  0  0  0  0  # atno 9388 bound_to 9352
  111.9673  237.9135  328.5793 H   0  0  0  0  0  0  0  0  0  0  0  0  # atno 9405 bound_to 9397
  125.2997  238.2197  324.2486 H   0  0  0  0  0  0  0  0  0  0  0  0  # atno 11118 bound_to 11102
  115.6530  240.3090  317.1010 LP  0  0  0  0  0  0  0  0  0  0  0  0  # atno 13518 bound_to 8422
  115.9766  239.6553  315.5300 LP  0  0  0  0  0  0  0  0  0  0  0  0  # atno 13519 bound_to 8422
  118.9684  243.3907  317.2171 LP  0  0  0  0  0  0  0  0  0  0  0  0  # atno 13521 bound_to 8459
  118.1173  244.8058  317.7397 LP  0  0  0  0  0  0  0  0  0  0  0  0  # atno 13522 bound_to 8459
  116.5511  243.6082  318.0720 LP  0  0  0  0  0  0  0  0  0  0  0  0  # atno 13523 bound_to 8482
  114.9304  246.5125  316.4482 LP  0  0  0  0  0  0  0  0  0  0  0  0  # atno 13524 bound_to 8504
  116.0476  247.9580  316.1227 LP  0  0  0  0  0  0  0  0  0  0  0  0  # atno 13525 bound_to 8999
  117.1691  246.7683  316.6944 LP  0  0  0  0  0  0  0  0  0  0  0  0  # atno 13526 bound_to 8999
  120.3057  244.5306  317.2760 LP  0  0  0  0  0  0  0  0  0  0  0  0  # atno 13527 bound_to 9051
  122.8059  242.7956  315.9194 LP  0  0  0  0  0  0  0  0  0  0  0  0  # atno 13528 bound_to 9054
  121.7297  241.8679  316.9099 LP  0  0  0  0  0  0  0  0  0  0  0  0  # atno 13529 bound_to 9054
  122.5619  243.2862  318.0755 LP  0  0  0  0  0  0  0  0  0  0  0  0  # atno 13530 bound_to 9075
  122.1387  243.2171  321.1354 LP  0  0  0  0  0  0  0  0  0  0  0  0  # atno 13531 bound_to 9078
  122.8600  242.2864  322.4056 LP  0  0  0  0  0  0  0  0  0  0  0  0  # atno 13532 bound_to 9078
  122.0282  239.6597  320.2824 LP  0  0  0  0  0  0  0  0  0  0  0  0  # atno 13533 bound_to 9121
  124.1539  239.0655  324.3250 LP  0  0  0  0  0  0  0  0  0  0  0  0  # atno 13534 bound_to 9124
  124.0535  239.1589  322.5984 LP  0  0  0  0  0  0  0  0  0  0  0  0  # atno 13535 bound_to 9124
  114.8817  238.2185  321.2320 LP  0  0  0  0  0  0  0  0  0  0  0  0  # atno 13536 bound_to 9132
  115.1543  239.6058  320.4148 LP  0  0  0  0  0  0  0  0  0  0  0  0  # atno 13537 bound_to 9132
  121.0625  240.0858  324.5022 LP  0  0  0  0  0  0  0  0  0  0  0  0  # atno 13538 bound_to 9159
  119.9352  237.9052  326.5174 LP  0  0  0  0  0  0  0  0  0  0  0  0  # atno 13539 bound_to 9162
  120.0247  239.6191  326.2836 LP  0  0  0  0  0  0  0  0  0  0  0  0  # atno 13540 bound_to 9162
  118.9073  239.3587  328.6902 LP  0  0  0  0  0  0  0  0  0  0  0  0  # atno 13541 bound_to 9236
  122.8142  250.0383  327.3340 LP  0  0  0  0  0  0  0  0  0  0  0  0  # atno 13550 bound_to 3616
  125.1160  248.8530  326.8383 LP  0  0  0  0  0  0  0  0  0  0  0  0  # atno 13551 bound_to 3645
  119.8308  248.1458  314.9791 LP  0  0  0  0  0  0  0  0  0  0  0  0  # atno 13552 bound_to 9031
  122.0287  247.6237  316.2330 LP  0  0  0  0  0  0  0  0  0  0  0  0  # atno 13553 bound_to 9034
  121.9475  246.6841  314.7802 LP  0  0  0  0  0  0  0  0  0  0  0  0  # atno 13554 bound_to 9034
  120.0248  238.4879  318.0820 LP  0  0  0  0  0  0  0  0  0  0  0  0  # atno 13555 bound_to 8404
  121.2275  237.6882  317.1260 LP  0  0  0  0  0  0  0  0  0  0  0  0  # atno 13556 bound_to 8404
  122.5762  237.8434  325.9676 LP  0  0  0  0  0  0  0  0  0  0  0  0  # atno 13557 bound_to 9189
  125.2068  247.2078  317.4827 LP  0  0  0  0  0  0  0  0  0  0  0  0  # atno 13558 bound_to 4938
  126.7382  247.2366  316.9164 LP  0  0  0  0  0  0  0  0  0  0  0  0  # atno 13559 bound_to 4938
  120.8851  245.2556  314.1032 LP  0  0  0  0  0  0  0  0  0  0  0  0  # atno 13560 bound_to 9036
  119.8348  246.0384  313.1282 LP  0  0  0  0  0  0  0  0  0  0  0  0  # atno 13561 bound_to 9036
  112.9958  245.7431  315.5884 LP  0  0  0  0  0  0  0  0  0  0  0  0  # atno 13562 bound_to 8485
  112.9887  244.3984  316.6801 LP  0  0  0  0  0  0  0  0  0  0  0  0  # atno 13563 bound_to 8485
  114.1782  249.9361  316.3229 LP  0  0  0  0  0  0  0  0  0  0  0  0  # atno 13564 bound_to 8507
  114.2471  248.6565  315.1575 LP  0  0  0  0  0  0  0  0  0  0  0  0  # atno 13565 bound_to 8507
  115.8383  249.0513  313.7396 LP  0  0  0  0  0  0  0  0  0  0  0  0  # atno 13566 bound_to 8996
  112.4893  248.7953  317.1068 LP  0  0  0  0  0  0  0  0  0  0  0  0  # atno 13567 bound_to 8535
  123.8781  248.1779  313.6705 LP  0  0  0  0  0  0  0  0  0  0  0  0  # atno 13570 bound_to 4954
  119.9103  249.6295  313.6570 LP  0  0  0  0  0  0  0  0  0  0  0  0  # atno 13571 bound_to 4957
  120.6059  248.0439  313.6108 LP  0  0  0  0  0  0  0  0  0  0  0  0  # atno 13572 bound_to 4957
  110.7736  246.8567  317.6363 LP  0  0  0  0  0  0  0  0  0  0  0  0  # atno 13573 bound_to 5599
  109.7103  247.7216  318.6952 LP  0  0  0  0  0  0  0  0  0  0  0  0  # atno 13574 bound_to 5599
  112.2840  238.3490  321.0191 LP  0  0  0  0  0  0  0  0  0  0  0  0  # atno 13575 bound_to 8378
  111.1179  238.6292  319.9108 LP  0  0  0  0  0  0  0  0  0  0  0  0  # atno 13576 bound_to 8378
  109.0735  245.6804  318.0052 LP  0  0  0  0  0  0  0  0  0  0  0  0  # atno 13581 bound_to 5624
  111.9260  238.9718  317.5922 LP  0  0  0  0  0  0  0  0  0  0  0  0  # atno 13582 bound_to 5698
  111.4065  240.6053  317.3436 LP  0  0  0  0  0  0  0  0  0  0  0  0  # atno 13583 bound_to 5698
  114.3100  237.9312  326.6189 LP  0  0  0  0  0  0  0  0  0  0  0  0  # atno 13584 bound_to 9239
  114.5136  238.4157  328.2693 LP  0  0  0  0  0  0  0  0  0  0  0  0  # atno 13585 bound_to 9239
  106.2622  244.5394  318.7208 LP  0  0  0  0  0  0  0  0  0  0  0  0  # atno 13586 bound_to 5601
  106.2337  244.7186  320.3437 LP  0  0  0  0  0  0  0  0  0  0  0  0  # atno 13587 bound_to 5601
  108.5682  243.3323  315.8804 LP  0  0  0  0  0  0  0  0  0  0  0  0  # atno 13588 bound_to 5627
  109.3074  242.7414  314.4297 LP  0  0  0  0  0  0  0  0  0  0  0  0  # atno 13589 bound_to 5627
  111.6709  244.7492  314.9421 LP  0  0  0  0  0  0  0  0  0  0  0  0  # atno 13590 bound_to 5657
  111.6652  241.6455  315.2818 LP  0  0  0  0  0  0  0  0  0  0  0  0  # atno 13591 bound_to 5695
  110.5068  239.2470  316.0571 LP  0  0  0  0  0  0  0  0  0  0  0  0  # atno 13592 bound_to 5736
  107.9831  236.9383  317.2314 LP  0  0  0  0  0  0  0  0  0  0  0  0  # atno 13593 bound_to 5785
  117.0926  236.5015  318.7667 LP  0  0  0  0  0  0  0  0  0  0  0  0  # atno 13596 bound_to 8370
  117.4497  234.9161  319.3658 LP  0  0  0  0  0  0  0  0  0  0  0  0  # atno 13597 bound_to 8370
  113.0831  236.5711  328.5671 LP  0  0  0  0  0  0  0  0  0  0  0  0  # atno 13598 bound_to 9397
  110.0130  236.5491  329.2336 LP  0  0  0  0  0  0  0  0  0  0  0  0  # atno 13601 bound_to 9355
  110.4315  237.0378  330.8416 LP  0  0  0  0  0  0  0  0  0  0  0  0  # atno 13602 bound_to 9355
  109.3689  233.7101  328.0193 LP  0  0  0  0  0  0  0  0  0  0  0  0  # atno 13603 bound_to 9400
  109.0929  235.1259  327.0604 LP  0  0  0  0  0  0  0  0  0  0  0  0  # atno 13604 bound_to 9400
  114.1653  236.4168  330.3751 LP  0  0  0  0  0  0  0  0  0  0  0  0  # atno 13608 bound_to 9352

> <Gold.Score>
     Fitness  S(hb_ext) S(vdw_ext)  S(hb_int)    S(int)      intcor
     33.30       0.88      24.37       0.00      -1.09      -0.76

> <Gold.Goldscore.Fitness>
33.3000

> <Gold.Goldscore.Internal.Vdw>
-1.3536

> <Gold.Goldscore.Internal.Torsion>
-0.4975

> <Gold.Goldscore.External.Vdw>
24.3697

> <Gold.Goldscore.Internal.HBond>
0.0000

> <Gold.Goldscore.External.HBond>
0.8842

> <Gold.Goldscore.Internal.Correction>
-0.7585

> <Gold.Goldscore.Hbonds>
donor molecule, donor type, donor heavy atom, donor atom, acceptor molecule, acceptor atom, score
      P1  H  9132  9150       L1     9  0.44

> <Gold.Goldscore.Internal.Vdw.Weighted>
-1.3536

> <Gold.Goldscore.Internal.Torsion.Weighted>
-0.4975

> <Gold.Goldscore.External.Vdw.Weighted>
33.5083

> <Gold.Goldscore.Internal.HBond.Weighted>
0.0000

> <Gold.Goldscore.External.HBond.Weighted>
0.8842

> <Gold.Goldscore.Internal.Correction.Weighted>
-0.7585

> <Gold.Rescore>
     Score     S(PLP)   S(hbond)     S(cho)   S(metal)  DE(clash)   DE(tors)     intcor
     18.75     -19.28       0.41       0.00       0.00       0.30       0.73       ----

> <Gold.PLP.Fitness>
18.7494

> <Gold.PLP.PLP>
-19.2750

> <Gold.PLP.part.hbond>
-3.8063

> <Gold.PLP.part.metal>
0.0000

> <Gold.PLP.part.buried>
5.9499

> <Gold.PLP.part.nonpolar>
-20.6150

> <Gold.PLP.part.repulsive>
0.6768

> <Gold.PLP.ligand.clash>
0.3010

> <Gold.PLP.ligand.torsion>
0.7266

> <Gold.PLP.Chemscore.Hbond>
0.4095

> <Gold.PLP.Chemscore.CHOScore>
0.0000

> <Gold.PLP.Chemscore.Metal>
0.0000

> <Gold.Chemscore.Hbonds>
donor molecule, donor type, donor heavy atom, donor atom, acceptor molecule, acceptor atom, score
      P1  H  9132  9150       L1     9  1.00

> <Gold.PLP.Chemscore.Internal.Correction>
   9.000000E+99

