#       Name:                CT1002167954
#       Creating user name   hitesit
#       Creation time:       Sun Apr 16 20:17:41 2023


#       File generated by GOLD software.
#

@<TRIPOS>MOLECULE
CT1002167954|ligand_prepared|mol2|1|dock3
    29    30     1
SMALL
NO_CHARGES


@<TRIPOS>ATOM
      1 C1         112.7698 242.7164 324.3868 C.3            1 RES1               0.0000
      2 C2         113.9495 243.5114 323.7909 C.ar           1 RES1               0.0000
      3 C3         111.6154 242.8580 323.3991 C.2            1 RES1               0.0000
      4 C4         113.2656 241.2854 324.5633 C.2            1 RES1               0.0000
      5 C5         112.3016 243.2335 325.7670 C.3            1 RES1               0.0000
      6 C6         113.9734 244.9012 323.8582 C.ar           1 RES1               0.0000
      7 C7         115.0204 242.8700 323.1741 C.ar           1 RES1               0.0000
      8 N8         111.3029 241.7740 322.6328 N.am           1 RES1               0.0000
      9 O9         111.0140 243.9168 323.2665 O.2            1 RES1               0.0000
     10 N10        112.6821 240.3054 323.8037 N.am           1 RES1               0.0000
     11 O11        114.1677 241.0002 325.3412 O.2            1 RES1               0.0000
     12 C12        111.3229 242.3058 326.4695 C.3            1 RES1               0.0000
     13 C13        115.0309 245.6236 323.3309 C.ar           1 RES1               0.0000
     14 C14        116.0769 243.5944 322.6472 C.ar           1 RES1               0.0000
     15 C15        111.7445 240.4894 322.8243 C.2            1 RES1               0.0000
     16 C16        116.0834 244.9708 322.7255 C.ar           1 RES1               0.0000
     17 O17        111.3070 239.5645 322.1460 O.2            1 RES1               0.0000
     18 H18        113.1804 243.3714 326.4090 H              1 RES1               0.0000
     19 H19        111.8263 244.2132 325.6343 H              1 RES1               0.0000
     20 H20        113.1527 245.4324 324.3288 H              1 RES1               0.0000
     21 H21        115.0361 241.7879 323.1001 H              1 RES1               0.0000
     22 H22        110.6837 241.9331 321.8444 H              1 RES1               0.0000
     23 H23        112.9736 239.3503 323.9854 H              1 RES1               0.0000
     24 H24        111.0266 242.7157 327.4328 H              1 RES1               0.0000
     25 H25        110.4256 242.1663 325.8702 H              1 RES1               0.0000
     26 H26        111.7717 241.3294 326.6403 H              1 RES1               0.0000
     27 H27        115.0306 246.7068 323.3939 H              1 RES1               0.0000
     28 H28        116.9029 243.0764 322.1710 H              1 RES1               0.0000
     29 H29        116.9119 245.5369 322.3128 H              1 RES1               0.0000
@<TRIPOS>BOND
    1    1    2 1     
    2    1    3 1     
    3    1    4 1     
    4    1    5 1     
    5    2    6 ar    
    6    2    7 ar    
    7    3    8 1     
    8    3    9 2     
    9    4   10 1     
   10    4   11 2     
   11    5   12 1     
   12    5   18 1     
   13    5   19 1     
   14    6   13 ar    
   15    6   20 1     
   16    7   14 ar    
   17    7   21 1     
   18    8   15 1     
   19    8   22 1     
   20   10   15 1     
   21   10   23 1     
   22   12   24 1     
   23   12   25 1     
   24   12   26 1     
   25   13   16 ar    
   26   13   27 1     
   27   14   16 ar    
   28   14   28 1     
   29   15   17 2     
   30   16   29 1     
@<TRIPOS>SUBSTRUCTURE
      1 RES1           1
@<TRIPOS>SET
DONOR_HYDROGENS      STATIC     ATOMS    <user>   **** ""
2 22 23
ATOM$RED        STATIC     ATOMS    COLORGROUP SYSTEM
2 22 23
@<TRIPOS>COMMENT
> <Gold.Version>
2022.3.0

> <Gold.Id.Protein>
unknown|4uh5_clean|pdb

> <Gold.Protein.RotatedTorsions>
[ 8492 8482 8483 8484 ] final   61.86 input   34.95 | X-H torsion
[ 8520 8504 8505 8506 ] final -136.35 input  102.00 | X-H torsion
[ 9058 9051 9052 9053 ] final   61.48 input   39.76 | X-H torsion
[ 9099 9075 9076 9077 ] final -171.99 input   37.88 | X-H torsion
[ 9142 9121 9122 9123 ] final  -33.20 input   94.46 | X-H torsion
[ 9150 9132 9131 9129 ] final  -23.54 input   60.01 | X-H torsion
[ 9176 9159 9160 9161 ] final  100.98 input   86.63 | X-H torsion
[ 9251 9236 9237 9238 ] final  -91.96 input  127.08 | X-H torsion
[ 3623 3616 3617 3618 ] final   95.37 input   94.27 | X-H torsion
[ 3649 3645 3646 3647 ] final  117.79 input   86.49 | X-H torsion
[ 9041 9031 9032 9033 ] final  134.89 input   26.45 | X-H torsion
[ 9196 9189 9190 9191 ] final   32.05 input  130.40 | X-H torsion
[ 4948 4938 4937 4934 ] final   71.37 input   60.00 | X-H torsion
[ 9045 9036 9035 9032 ] final  -67.85 input   59.99 | X-H torsion
[ 9007 8996 8997 8998 ] final  -94.33 input   49.09 | X-H torsion
[ 8546 8535 8536 8537 ] final -158.02 input   50.11 | X-H torsion
[ 4964 4954 4955 4956 ] final    5.33 input   27.83 | X-H torsion
[ 8387 8378 8377 8375 ] final -140.49 input   59.99 | X-H torsion
[ 5633 5624 5625 5626 ] final  -15.77 input   44.71 | X-H torsion
[ 5606 5601 5600 5597 ] final    0.88 input   59.98 | X-H torsion
[ 5665 5657 5658 5659 ] final   84.76 input  114.33 | X-H torsion
[ 5703 5695 5696 5697 ] final -179.26 input   57.04 | X-H torsion
[ 5747 5736 5737 5738 ] final  162.93 input   30.88 | X-H torsion
[ 5805 5785 5786 5787 ] final -131.63 input   92.04 | X-H torsion
[ 9405 9397 9398 9399 ] final    1.24 input  123.68 | X-H torsion
[ 9388 9352 9353 9354 ] final  175.26 input  105.06 | X-H torsion
[ 11118 11102 11103 11104 ] final   81.02 input   57.11 | X-H torsion
[ 8379 8367 8368 8369 ] final  -72.40 input   85.33 | X-H torsion
[ 5602 5596 5597 5598 ] final   91.00 input  106.64 | X-H torsion
[ 13518 8422 8421 8420 ] final   22.47 input    0.00 | X-H torsion
[ 13521 8459 8458 8457 ] final   40.75 input   -0.00 | X-H torsion
[ 13525 8999 8998 8997 ] final  -49.45 input   -0.00 | X-H torsion
[ 13528 9054 9053 9052 ] final  -48.17 input   -0.00 | X-H torsion
[ 13531 9078 9077 9076 ] final  -43.93 input    0.00 | X-H torsion
[ 13534 9124 9123 9122 ] final  -46.82 input   -0.00 | X-H torsion
[ 13539 9162 9161 9160 ] final  -34.18 input   -0.00 | X-H torsion
[ 13553 9034 9033 9032 ] final  -65.22 input    0.00 | X-H torsion
[ 13555 8404 8403 8402 ] final   30.25 input    0.00 | X-H torsion
[ 13562 8485 8484 8483 ] final   26.77 input    0.00 | X-H torsion
[ 13564 8507 8506 8505 ] final   24.59 input   -0.00 | X-H torsion
[ 13571 4957 4956 4955 ] final  160.92 input   -0.00 | X-H torsion
[ 13573 5599 5598 5597 ] final  153.94 input   -0.00 | X-H torsion
[ 13582 5698 5697 5696 ] final   54.27 input   -0.00 | X-H torsion
[ 13584 9239 9238 9237 ] final -156.69 input    0.00 | X-H torsion
[ 13588 5627 5626 5625 ] final  -62.24 input    0.00 | X-H torsion
[ 13596 8370 8369 8368 ] final   19.49 input   -0.00 | X-H torsion
[ 13601 9355 9354 9353 ] final  -19.38 input   -0.00 | X-H torsion
[ 13603 9400 9399 9398 ] final  -43.25 input   -0.00 | X-H torsion

> <Gold.Protein.ActiveResidues>
 MET341  TRP414  CYS420  VAL421  GLY422  LEU429  LEU460  SER462  ALA463  ILE464 
 SER482  GLN483  LEU484  ILE485  ARG486  TYR487  ASP500  ALA502  ASN503  TRP566 
 TYR567  GLY568  LEU569  PRO570  ALA571  VAL572  SER573  ASN574  PRO588  PHE589 
 SER590  GLY591  TRP592  TYR593  MET594  GLY595  GLU597  ILE598  ARG601  ASP602 
 ASP605  ARG608  ILE653  VAL654  TRP683  PRO687  PHE696  HIS697  TYR711  HEM750 
 H4B760 

> <Gold.Protein.RotatedAtoms>
  122.1304  248.4550  327.5645 H   0  0  0  0  0  0  0  0  0  0  0  0  # atno 3623 bound_to 3616
  123.7766  248.1764  325.9496 H   0  0  0  0  0  0  0  0  0  0  0  0  # atno 3649 bound_to 3645
  126.6191  246.4969  316.4710 H   0  0  0  0  0  0  0  0  0  0  0  0  # atno 4948 bound_to 4938
  122.5299  247.8220  314.0323 H   0  0  0  0  0  0  0  0  0  0  0  0  # atno 4964 bound_to 4954
  106.2625  245.0243  317.1437 H   0  0  0  0  0  0  0  0  0  0  0  0  # atno 5602 bound_to 5596
  106.9935  244.4092  318.6674 H   0  0  0  0  0  0  0  0  0  0  0  0  # atno 5606 bound_to 5601
  108.4682  244.9882  316.6052 H   0  0  0  0  0  0  0  0  0  0  0  0  # atno 5633 bound_to 5624
  112.3745  243.7300  315.3207 H   0  0  0  0  0  0  0  0  0  0  0  0  # atno 5665 bound_to 5657
  112.0559  241.3978  313.6128 H   0  0  0  0  0  0  0  0  0  0  0  0  # atno 5703 bound_to 5695
  110.0482  239.6442  315.9433 H   0  0  0  0  0  0  0  0  0  0  0  0  # atno 5747 bound_to 5736
  108.5707  236.4798  317.2454 H   0  0  0  0  0  0  0  0  0  0  0  0  # atno 5805 bound_to 5785
  115.6225  232.9146  318.6739 H   0  0  0  0  0  0  0  0  0  0  0  0  # atno 8379 bound_to 8367
  112.1607  239.5993  319.7723 H   0  0  0  0  0  0  0  0  0  0  0  0  # atno 8387 bound_to 8378
  115.1859  242.8606  317.3232 H   0  0  0  0  0  0  0  0  0  0  0  0  # atno 8492 bound_to 8482
  114.7939  245.6803  317.7137 H   0  0  0  0  0  0  0  0  0  0  0  0  # atno 8520 bound_to 8504
  112.7717  247.9607  316.4878 H   0  0  0  0  0  0  0  0  0  0  0  0  # atno 8546 bound_to 8535
  115.9152  249.3165  313.5551 H   0  0  0  0  0  0  0  0  0  0  0  0  # atno 9007 bound_to 8996
  118.5460  247.7760  314.5637 H   0  0  0  0  0  0  0  0  0  0  0  0  # atno 9041 bound_to 9031
  119.9227  246.0930  313.2105 H   0  0  0  0  0  0  0  0  0  0  0  0  # atno 9045 bound_to 9036
  120.2577  244.9058  317.7052 H   0  0  0  0  0  0  0  0  0  0  0  0  # atno 9058 bound_to 9051
  123.1115  243.2709  317.9696 H   0  0  0  0  0  0  0  0  0  0  0  0  # atno 9099 bound_to 9075
  123.1241  240.7274  321.1166 H   0  0  0  0  0  0  0  0  0  0  0  0  # atno 9142 bound_to 9121
  114.8111  239.2957  322.1350 H   0  0  0  0  0  0  0  0  0  0  0  0  # atno 9150 bound_to 9132
  121.4065  241.0758  324.6804 H   0  0  0  0  0  0  0  0  0  0  0  0  # atno 9176 bound_to 9159
  122.3666  238.3645  327.6032 H   0  0  0  0  0  0  0  0  0  0  0  0  # atno 9196 bound_to 9189
  118.1953  238.6779  329.3655 H   0  0  0  0  0  0  0  0  0  0  0  0  # atno 9251 bound_to 9236
  114.6932  237.7789  331.3280 H   0  0  0  0  0  0  0  0  0  0  0  0  # atno 9388 bound_to 9352
  112.4622  236.5674  329.1411 H   0  0  0  0  0  0  0  0  0  0  0  0  # atno 9405 bound_to 9397
  125.5257  238.6578  323.9054 H   0  0  0  0  0  0  0  0  0  0  0  0  # atno 11118 bound_to 11102
  115.9343  239.2143  315.9332 LP  0  0  0  0  0  0  0  0  0  0  0  0  # atno 13518 bound_to 8422
  115.6954  240.7500  316.6977 LP  0  0  0  0  0  0  0  0  0  0  0  0  # atno 13519 bound_to 8422
  118.9792  243.3834  317.2579 LP  0  0  0  0  0  0  0  0  0  0  0  0  # atno 13521 bound_to 8459
  118.1065  244.8131  317.6989 LP  0  0  0  0  0  0  0  0  0  0  0  0  # atno 13522 bound_to 8459
  116.7062  243.4941  317.9040 LP  0  0  0  0  0  0  0  0  0  0  0  0  # atno 13523 bound_to 8482
  115.4809  247.0292  316.8401 LP  0  0  0  0  0  0  0  0  0  0  0  0  # atno 13524 bound_to 8504
  116.4464  248.1080  316.8196 LP  0  0  0  0  0  0  0  0  0  0  0  0  # atno 13525 bound_to 8999
  116.7703  246.6183  315.9975 LP  0  0  0  0  0  0  0  0  0  0  0  0  # atno 13526 bound_to 8999
  120.9003  245.6502  316.2568 LP  0  0  0  0  0  0  0  0  0  0  0  0  # atno 13527 bound_to 9051
  121.5115  242.7266  316.2662 LP  0  0  0  0  0  0  0  0  0  0  0  0  # atno 13528 bound_to 9054
  123.0241  241.9369  316.5631 LP  0  0  0  0  0  0  0  0  0  0  0  0  # atno 13529 bound_to 9054
  122.8089  243.6487  319.6501 LP  0  0  0  0  0  0  0  0  0  0  0  0  # atno 13530 bound_to 9075
  123.2580  243.0363  321.4647 LP  0  0  0  0  0  0  0  0  0  0  0  0  # atno 13531 bound_to 9078
  121.7407  242.4672  322.0764 LP  0  0  0  0  0  0  0  0  0  0  0  0  # atno 13532 bound_to 9078
  121.9374  239.7732  320.2560 LP  0  0  0  0  0  0  0  0  0  0  0  0  # atno 13533 bound_to 9121
  123.7789  238.4448  323.0155 LP  0  0  0  0  0  0  0  0  0  0  0  0  # atno 13534 bound_to 9124
  124.4285  239.7795  323.9079 LP  0  0  0  0  0  0  0  0  0  0  0  0  # atno 13535 bound_to 9124
  114.9546  238.2832  320.8697 LP  0  0  0  0  0  0  0  0  0  0  0  0  # atno 13536 bound_to 9132
  115.1345  239.8922  320.6563 LP  0  0  0  0  0  0  0  0  0  0  0  0  # atno 13537 bound_to 9132
  122.2495  239.7571  323.9018 LP  0  0  0  0  0  0  0  0  0  0  0  0  # atno 13538 bound_to 9159
  120.0114  239.6082  326.5827 LP  0  0  0  0  0  0  0  0  0  0  0  0  # atno 13539 bound_to 9162
  119.9486  237.9161  326.2183 LP  0  0  0  0  0  0  0  0  0  0  0  0  # atno 13540 bound_to 9162
  119.0336  238.4271  327.8518 LP  0  0  0  0  0  0  0  0  0  0  0  0  # atno 13541 bound_to 9236
  122.7520  250.0890  327.4958 LP  0  0  0  0  0  0  0  0  0  0  0  0  # atno 13550 bound_to 3616
  125.1248  248.7964  326.8681 LP  0  0  0  0  0  0  0  0  0  0  0  0  # atno 13551 bound_to 3645
  119.4625  248.3945  315.9124 LP  0  0  0  0  0  0  0  0  0  0  0  0  # atno 13552 bound_to 9031
  121.8291  246.7920  314.7360 LP  0  0  0  0  0  0  0  0  0  0  0  0  # atno 13553 bound_to 9034
  122.1470  247.5158  316.2771 LP  0  0  0  0  0  0  0  0  0  0  0  0  # atno 13554 bound_to 9034
  121.1526  237.4058  317.5176 LP  0  0  0  0  0  0  0  0  0  0  0  0  # atno 13555 bound_to 8404
  120.0996  238.7702  317.6904 LP  0  0  0  0  0  0  0  0  0  0  0  0  # atno 13556 bound_to 8404
  122.8119  237.7343  326.0318 LP  0  0  0  0  0  0  0  0  0  0  0  0  # atno 13557 bound_to 9189
  125.0762  246.3505  316.9664 LP  0  0  0  0  0  0  0  0  0  0  0  0  # atno 13558 bound_to 4938
  125.9783  247.6192  317.4595 LP  0  0  0  0  0  0  0  0  0  0  0  0  # atno 13559 bound_to 4938
  119.7690  244.4774  313.0918 LP  0  0  0  0  0  0  0  0  0  0  0  0  # atno 13560 bound_to 9036
  120.8795  245.1230  314.1001 LP  0  0  0  0  0  0  0  0  0  0  0  0  # atno 13561 bound_to 9036
  113.2491  244.2439  316.1175 LP  0  0  0  0  0  0  0  0  0  0  0  0  # atno 13562 bound_to 8485
  112.7354  245.8976  316.1510 LP  0  0  0  0  0  0  0  0  0  0  0  0  # atno 13563 bound_to 8485
  114.8647  248.7620  315.9385 LP  0  0  0  0  0  0  0  0  0  0  0  0  # atno 13564 bound_to 8507
  113.5606  249.8306  315.5419 LP  0  0  0  0  0  0  0  0  0  0  0  0  # atno 13565 bound_to 8507
  115.5976  249.9698  315.1446 LP  0  0  0  0  0  0  0  0  0  0  0  0  # atno 13566 bound_to 8996
  111.2801  248.2153  317.3562 LP  0  0  0  0  0  0  0  0  0  0  0  0  # atno 13567 bound_to 8535
  123.9512  247.3707  313.1242 LP  0  0  0  0  0  0  0  0  0  0  0  0  # atno 13570 bound_to 4954
  119.8968  249.6237  313.6438 LP  0  0  0  0  0  0  0  0  0  0  0  0  # atno 13571 bound_to 4957
  120.6194  248.0497  313.6241 LP  0  0  0  0  0  0  0  0  0  0  0  0  # atno 13572 bound_to 4957
  110.7725  246.6225  318.3207 LP  0  0  0  0  0  0  0  0  0  0  0  0  # atno 13573 bound_to 5599
  109.7113  247.9558  318.0109 LP  0  0  0  0  0  0  0  0  0  0  0  0  # atno 13574 bound_to 5599
  112.5313  238.5804  320.9858 LP  0  0  0  0  0  0  0  0  0  0  0  0  # atno 13575 bound_to 8378
  111.1415  238.3884  320.1502 LP  0  0  0  0  0  0  0  0  0  0  0  0  # atno 13576 bound_to 8378
  108.9977  245.2532  318.2520 LP  0  0  0  0  0  0  0  0  0  0  0  0  # atno 13581 bound_to 5624
  111.6993  240.6045  317.1795 LP  0  0  0  0  0  0  0  0  0  0  0  0  # atno 13582 bound_to 5698
  111.6332  238.9726  317.7563 LP  0  0  0  0  0  0  0  0  0  0  0  0  # atno 13583 bound_to 5698
  114.3565  237.3104  327.4891 LP  0  0  0  0  0  0  0  0  0  0  0  0  # atno 13584 bound_to 9239
  114.4671  239.0365  327.3991 LP  0  0  0  0  0  0  0  0  0  0  0  0  # atno 13585 bound_to 9239
  105.8046  244.7272  319.7320 LP  0  0  0  0  0  0  0  0  0  0  0  0  # atno 13586 bound_to 5601
  107.3377  244.5180  320.2541 LP  0  0  0  0  0  0  0  0  0  0  0  0  # atno 13587 bound_to 5601
  109.0028  242.5055  315.8358 LP  0  0  0  0  0  0  0  0  0  0  0  0  # atno 13588 bound_to 5627
  108.8728  243.5681  314.4742 LP  0  0  0  0  0  0  0  0  0  0  0  0  # atno 13589 bound_to 5627
  110.6942  244.1956  315.2365 LP  0  0  0  0  0  0  0  0  0  0  0  0  # atno 13590 bound_to 5657
  111.4429  241.6731  315.2261 LP  0  0  0  0  0  0  0  0  0  0  0  0  # atno 13591 bound_to 5695
  109.7815  238.0511  315.2640 LP  0  0  0  0  0  0  0  0  0  0  0  0  # atno 13592 bound_to 5736
  107.8141  236.8018  318.7839 LP  0  0  0  0  0  0  0  0  0  0  0  0  # atno 13593 bound_to 5785
  116.6417  235.1889  319.3554 LP  0  0  0  0  0  0  0  0  0  0  0  0  # atno 13596 bound_to 8370
  117.9005  236.2287  318.7772 LP  0  0  0  0  0  0  0  0  0  0  0  0  # atno 13597 bound_to 8370
  112.5966  237.8943  328.0148 LP  0  0  0  0  0  0  0  0  0  0  0  0  # atno 13598 bound_to 9397
  110.4831  236.8859  330.8582 LP  0  0  0  0  0  0  0  0  0  0  0  0  # atno 13601 bound_to 9355
  109.9614  236.7010  329.2170 LP  0  0  0  0  0  0  0  0  0  0  0  0  # atno 13602 bound_to 9355
  108.9529  235.2113  327.7481 LP  0  0  0  0  0  0  0  0  0  0  0  0  # atno 13603 bound_to 9400
  109.5089  233.6247  327.3316 LP  0  0  0  0  0  0  0  0  0  0  0  0  # atno 13604 bound_to 9400
  114.1163  236.3750  330.4618 LP  0  0  0  0  0  0  0  0  0  0  0  0  # atno 13608 bound_to 9352

> <Gold.Score>
     Fitness  S(hb_ext) S(vdw_ext)  S(hb_int)    S(int)      intcor
     32.38       4.11      21.39       0.00      -1.14      -0.79

> <Gold.Goldscore.Fitness>
32.3802

> <Gold.Goldscore.Internal.Vdw>
-1.3853

> <Gold.Goldscore.Internal.Torsion>
-0.5436

> <Gold.Goldscore.External.Vdw>
21.3926

> <Gold.Goldscore.Internal.HBond>
0.0000

> <Gold.Goldscore.External.HBond>
4.1093

> <Gold.Goldscore.Internal.Correction>
-0.7850

> <Gold.Goldscore.Hbonds>
donor molecule, donor type, donor heavy atom, donor atom, acceptor molecule, acceptor atom, score
      L1  H     8    22       P1  5632  0.05
      L1  H    10    23       P1  9404  0.64

> <Gold.Goldscore.Internal.Vdw.Weighted>
-1.3853

> <Gold.Goldscore.Internal.Torsion.Weighted>
-0.5436

> <Gold.Goldscore.External.Vdw.Weighted>
29.4148

> <Gold.Goldscore.Internal.HBond.Weighted>
0.0000

> <Gold.Goldscore.External.HBond.Weighted>
4.1093

> <Gold.Goldscore.Internal.Correction.Weighted>
-0.7850

> <Gold.Rescore>
     Score     S(PLP)   S(hbond)     S(cho)   S(metal)  DE(clash)   DE(tors)     intcor
     20.80     -21.91       0.23       0.00       0.00       0.00       0.90       ----

> <Gold.PLP.Fitness>
20.8019

> <Gold.PLP.PLP>
-21.9082

> <Gold.PLP.part.hbond>
-4.1485

> <Gold.PLP.part.metal>
0.0000

> <Gold.PLP.part.buried>
1.9270

> <Gold.PLP.part.nonpolar>
-19.5581

> <Gold.PLP.part.repulsive>
0.7856

> <Gold.PLP.ligand.clash>
0.0000

> <Gold.PLP.ligand.torsion>
0.8971

> <Gold.PLP.Chemscore.Hbond>
0.2293

> <Gold.PLP.Chemscore.CHOScore>
0.0000

> <Gold.PLP.Chemscore.Metal>
0.0000

> <Gold.Chemscore.Hbonds>
donor molecule, donor type, donor heavy atom, donor atom, acceptor molecule, acceptor atom, score
      L1  H    10    23       P1  9404  0.20

> <Gold.PLP.Chemscore.Internal.Correction>
   9.000000E+99

