#       Name:                CT1002167954
#       Creating user name   hitesit
#       Creation time:       Sun Apr 16 20:17:40 2023


#       File generated by GOLD software.
#

@<TRIPOS>MOLECULE
CT1002167954|ligand_prepared|mol2|1|dock2
    29    30     1
SMALL
NO_CHARGES


@<TRIPOS>ATOM
      1 C1         112.9429 241.7002 323.3601 C.3            1 RES1               0.0000
      2 C2         114.0308 242.6157 322.7627 C.ar           1 RES1               0.0000
      3 C3         113.6759 240.6415 324.1787 C.2            1 RES1               0.0000
      4 C4         112.0311 242.6027 324.1841 C.2            1 RES1               0.0000
      5 C5         112.0749 240.9859 322.2980 C.3            1 RES1               0.0000
      6 C6         114.8903 243.3295 323.5924 C.ar           1 RES1               0.0000
      7 C7         114.1886 242.7544 321.3863 C.ar           1 RES1               0.0000
      8 N8         113.6235 240.7453 325.5375 N.am           1 RES1               0.0000
      9 O9         114.3229 239.7519 323.6399 O.2            1 RES1               0.0000
     10 N10        112.0000 242.4168 325.5414 N.am           1 RES1               0.0000
     11 O11        111.3519 243.4840 323.6720 O.2            1 RES1               0.0000
     12 C12        111.0459 240.0336 322.8865 C.3            1 RES1               0.0000
     13 C13        115.8739 244.1499 323.0654 C.ar           1 RES1               0.0000
     14 C14        115.1728 243.5756 320.8613 C.ar           1 RES1               0.0000
     15 C15        112.7780 241.5495 326.2587 C.2            1 RES1               0.0000
     16 C16        116.0161 244.2732 321.6997 C.ar           1 RES1               0.0000
     17 O17        112.7318 241.4782 327.4834 O.2            1 RES1               0.0000
     18 H18        111.5536 241.7438 321.7003 H              1 RES1               0.0000
     19 H19        112.7330 240.4226 321.6249 H              1 RES1               0.0000
     20 H20        114.7920 243.2470 324.6697 H              1 RES1               0.0000
     21 H21        113.5358 242.2160 320.7076 H              1 RES1               0.0000
     22 H22        114.2731 240.1720 326.0664 H              1 RES1               0.0000
     23 H23        111.3352 242.9769 326.0655 H              1 RES1               0.0000
     24 H24        110.4644 239.5593 322.0988 H              1 RES1               0.0000
     25 H25        111.5314 239.2518 323.4669 H              1 RES1               0.0000
     26 H26        110.3589 240.5651 323.5418 H              1 RES1               0.0000
     27 H27        116.5342 244.6979 323.7295 H              1 RES1               0.0000
     28 H28        115.2807 243.6701 319.7858 H              1 RES1               0.0000
     29 H29        116.7870 244.9157 321.2871 H              1 RES1               0.0000
@<TRIPOS>BOND
    1    1    2 1     
    2    1    3 1     
    3    1    4 1     
    4    1    5 1     
    5    2    6 ar    
    6    2    7 ar    
    7    3    8 1     
    8    3    9 2     
    9    4   10 1     
   10    4   11 2     
   11    5   12 1     
   12    5   18 1     
   13    5   19 1     
   14    6   13 ar    
   15    6   20 1     
   16    7   14 ar    
   17    7   21 1     
   18    8   15 1     
   19    8   22 1     
   20   10   15 1     
   21   10   23 1     
   22   12   24 1     
   23   12   25 1     
   24   12   26 1     
   25   13   16 ar    
   26   13   27 1     
   27   14   16 ar    
   28   14   28 1     
   29   15   17 2     
   30   16   29 1     
@<TRIPOS>SUBSTRUCTURE
      1 RES1           1
@<TRIPOS>SET
DONOR_HYDROGENS      STATIC     ATOMS    <user>   **** ""
2 22 23
ATOM$RED        STATIC     ATOMS    COLORGROUP SYSTEM
2 22 23
@<TRIPOS>COMMENT
> <Gold.Version>
2022.3.0

> <Gold.Id.Protein>
unknown|4uh5_clean|pdb

> <Gold.Protein.RotatedTorsions>
[ 8492 8482 8483 8484 ] final   17.53 input   34.95 | X-H torsion
[ 8520 8504 8505 8506 ] final -149.30 input  102.00 | X-H torsion
[ 9058 9051 9052 9053 ] final  -17.04 input   39.76 | X-H torsion
[ 9099 9075 9076 9077 ] final -165.72 input   37.88 | X-H torsion
[ 9142 9121 9122 9123 ] final -103.83 input   94.46 | X-H torsion
[ 9150 9132 9131 9129 ] final  -12.84 input   60.01 | X-H torsion
[ 9176 9159 9160 9161 ] final -108.71 input   86.63 | X-H torsion
[ 9251 9236 9237 9238 ] final   57.15 input  127.08 | X-H torsion
[ 3623 3616 3617 3618 ] final   96.37 input   94.27 | X-H torsion
[ 3649 3645 3646 3647 ] final  -87.85 input   86.49 | X-H torsion
[ 9041 9031 9032 9033 ] final   78.43 input   26.45 | X-H torsion
[ 9196 9189 9190 9191 ] final  120.50 input  130.40 | X-H torsion
[ 4948 4938 4937 4934 ] final -135.81 input   60.00 | X-H torsion
[ 9045 9036 9035 9032 ] final -115.05 input   59.99 | X-H torsion
[ 9007 8996 8997 8998 ] final  -63.28 input   49.09 | X-H torsion
[ 8546 8535 8536 8537 ] final   64.34 input   50.11 | X-H torsion
[ 4964 4954 4955 4956 ] final   10.58 input   27.83 | X-H torsion
[ 8387 8378 8377 8375 ] final  -51.92 input   59.99 | X-H torsion
[ 5633 5624 5625 5626 ] final    9.34 input   44.71 | X-H torsion
[ 5606 5601 5600 5597 ] final -115.63 input   59.98 | X-H torsion
[ 5665 5657 5658 5659 ] final -138.66 input  114.33 | X-H torsion
[ 5703 5695 5696 5697 ] final  -32.18 input   57.04 | X-H torsion
[ 5747 5736 5737 5738 ] final  -29.72 input   30.88 | X-H torsion
[ 5805 5785 5786 5787 ] final  131.75 input   92.04 | X-H torsion
[ 9405 9397 9398 9399 ] final  160.85 input  123.68 | X-H torsion
[ 9388 9352 9353 9354 ] final  112.48 input  105.06 | X-H torsion
[ 11118 11102 11103 11104 ] final   19.09 input   57.11 | X-H torsion
[ 8379 8367 8368 8369 ] final -167.48 input   85.33 | X-H torsion
[ 5602 5596 5597 5598 ] final  -71.56 input  106.64 | X-H torsion
[ 13518 8422 8421 8420 ] final -149.48 input    0.00 | X-H torsion
[ 13521 8459 8458 8457 ] final  155.05 input   -0.00 | X-H torsion
[ 13525 8999 8998 8997 ] final  -19.57 input   -0.00 | X-H torsion
[ 13528 9054 9053 9052 ] final  118.57 input   -0.00 | X-H torsion
[ 13531 9078 9077 9076 ] final  154.45 input    0.00 | X-H torsion
[ 13534 9124 9123 9122 ] final -106.52 input   -0.00 | X-H torsion
[ 13539 9162 9161 9160 ] final  -10.69 input   -0.00 | X-H torsion
[ 13553 9034 9033 9032 ] final   -3.65 input    0.00 | X-H torsion
[ 13555 8404 8403 8402 ] final   84.64 input    0.00 | X-H torsion
[ 13562 8485 8484 8483 ] final   38.66 input    0.00 | X-H torsion
[ 13564 8507 8506 8505 ] final  164.56 input   -0.00 | X-H torsion
[ 13571 4957 4956 4955 ] final  -81.28 input   -0.00 | X-H torsion
[ 13573 5599 5598 5597 ] final  -86.62 input   -0.00 | X-H torsion
[ 13582 5698 5697 5696 ] final   -8.32 input   -0.00 | X-H torsion
[ 13584 9239 9238 9237 ] final -109.16 input    0.00 | X-H torsion
[ 13588 5627 5626 5625 ] final -154.53 input    0.00 | X-H torsion
[ 13596 8370 8369 8368 ] final   19.85 input   -0.00 | X-H torsion
[ 13601 9355 9354 9353 ] final -145.78 input   -0.00 | X-H torsion
[ 13603 9400 9399 9398 ] final   22.95 input   -0.00 | X-H torsion

> <Gold.Protein.ActiveResidues>
 MET341  TRP414  CYS420  VAL421  GLY422  LEU429  LEU460  SER462  ALA463  ILE464 
 SER482  GLN483  LEU484  ILE485  ARG486  TYR487  ASP500  ALA502  ASN503  TRP566 
 TYR567  GLY568  LEU569  PRO570  ALA571  VAL572  SER573  ASN574  PRO588  PHE589 
 SER590  GLY591  TRP592  TYR593  MET594  GLY595  GLU597  ILE598  ARG601  ASP602 
 ASP605  ARG608  ILE653  VAL654  TRP683  PRO687  PHE696  HIS697  TYR711  HEM750 
 H4B760 

> <Gold.Protein.RotatedAtoms>
  122.1245  248.4580  327.5785 H   0  0  0  0  0  0  0  0  0  0  0  0  # atno 3623 bound_to 3616
  125.1075  248.4328  327.0015 H   0  0  0  0  0  0  0  0  0  0  0  0  # atno 3649 bound_to 3645
  125.4826  247.4434  317.5305 H   0  0  0  0  0  0  0  0  0  0  0  0  # atno 4948 bound_to 4938
  122.4952  247.7547  314.0044 H   0  0  0  0  0  0  0  0  0  0  0  0  # atno 4964 bound_to 4954
  106.7454  246.2285  315.9692 H   0  0  0  0  0  0  0  0  0  0  0  0  # atno 5602 bound_to 5596
  105.8012  244.7237  319.6746 H   0  0  0  0  0  0  0  0  0  0  0  0  # atno 5606 bound_to 5601
  108.3990  244.6465  316.7717 H   0  0  0  0  0  0  0  0  0  0  0  0  # atno 5633 bound_to 5624
  111.0722  244.6722  315.0191 H   0  0  0  0  0  0  0  0  0  0  0  0  # atno 5665 bound_to 5657
  111.0407  241.6973  314.9376 H   0  0  0  0  0  0  0  0  0  0  0  0  # atno 5703 bound_to 5695
  109.9315  237.9692  315.3651 H   0  0  0  0  0  0  0  0  0  0  0  0  # atno 5747 bound_to 5736
  108.7225  236.1375  318.5014 H   0  0  0  0  0  0  0  0  0  0  0  0  # atno 5805 bound_to 5785
  114.4422  233.0547  318.1446 H   0  0  0  0  0  0  0  0  0  0  0  0  # atno 8379 bound_to 8367
  111.1545  238.7653  319.8085 H   0  0  0  0  0  0  0  0  0  0  0  0  # atno 8387 bound_to 8378
  115.1064  243.2631  317.8468 H   0  0  0  0  0  0  0  0  0  0  0  0  # atno 8492 bound_to 8482
  114.9065  245.7491  317.8635 H   0  0  0  0  0  0  0  0  0  0  0  0  # atno 8520 bound_to 8504
  111.2638  247.6635  317.0516 H   0  0  0  0  0  0  0  0  0  0  0  0  # atno 8546 bound_to 8535
  115.8118  248.9433  313.8271 H   0  0  0  0  0  0  0  0  0  0  0  0  # atno 9007 bound_to 8996
  119.3611  247.8944  314.4630 H   0  0  0  0  0  0  0  0  0  0  0  0  # atno 9041 bound_to 9031
  119.5410  245.5460  312.8689 H   0  0  0  0  0  0  0  0  0  0  0  0  # atno 9045 bound_to 9036
  120.5076  244.4352  316.7125 H   0  0  0  0  0  0  0  0  0  0  0  0  # atno 9058 bound_to 9051
  123.0151  243.2652  317.9591 H   0  0  0  0  0  0  0  0  0  0  0  0  # atno 9099 bound_to 9075
  122.2524  241.0880  320.7137 H   0  0  0  0  0  0  0  0  0  0  0  0  # atno 9142 bound_to 9121
  114.8329  239.4644  322.0965 H   0  0  0  0  0  0  0  0  0  0  0  0  # atno 9150 bound_to 9132
  122.5546  240.0855  323.8875 H   0  0  0  0  0  0  0  0  0  0  0  0  # atno 9176 bound_to 9159
  123.3407  237.7277  327.1696 H   0  0  0  0  0  0  0  0  0  0  0  0  # atno 9196 bound_to 9189
  118.8117  238.0218  327.9137 H   0  0  0  0  0  0  0  0  0  0  0  0  # atno 9251 bound_to 9236
  114.8741  237.6597  330.4332 H   0  0  0  0  0  0  0  0  0  0  0  0  # atno 9388 bound_to 9352
  112.8426  237.7338  327.9175 H   0  0  0  0  0  0  0  0  0  0  0  0  # atno 9405 bound_to 9397
  125.3162  237.9006  324.3600 H   0  0  0  0  0  0  0  0  0  0  0  0  # atno 11118 bound_to 11102
  115.7119  240.7980  316.5871 LP  0  0  0  0  0  0  0  0  0  0  0  0  # atno 13518 bound_to 8422
  115.9178  239.1663  316.0438 LP  0  0  0  0  0  0  0  0  0  0  0  0  # atno 13519 bound_to 8422
  118.1736  244.5101  316.8121 LP  0  0  0  0  0  0  0  0  0  0  0  0  # atno 13521 bound_to 8459
  118.9121  243.6863  318.1448 LP  0  0  0  0  0  0  0  0  0  0  0  0  # atno 13522 bound_to 8459
  116.7842  243.0993  317.3904 LP  0  0  0  0  0  0  0  0  0  0  0  0  # atno 13523 bound_to 8482
  115.3711  246.9621  316.6940 LP  0  0  0  0  0  0  0  0  0  0  0  0  # atno 13524 bound_to 8504
  116.1859  248.1176  316.4570 LP  0  0  0  0  0  0  0  0  0  0  0  0  # atno 13525 bound_to 8999
  117.0308  246.6087  316.3601 LP  0  0  0  0  0  0  0  0  0  0  0  0  # atno 13526 bound_to 8999
  120.6587  246.1050  317.2162 LP  0  0  0  0  0  0  0  0  0  0  0  0  # atno 13527 bound_to 9051
  123.0944  242.0745  316.4363 LP  0  0  0  0  0  0  0  0  0  0  0  0  # atno 13528 bound_to 9054
  121.4411  242.5890  316.3930 LP  0  0  0  0  0  0  0  0  0  0  0  0  # atno 13529 bound_to 9054
  122.9026  243.6543  319.6604 LP  0  0  0  0  0  0  0  0  0  0  0  0  # atno 13530 bound_to 9075
  121.9104  242.3410  322.2547 LP  0  0  0  0  0  0  0  0  0  0  0  0  # atno 13531 bound_to 9078
  123.0883  243.1625  321.2864 LP  0  0  0  0  0  0  0  0  0  0  0  0  # atno 13532 bound_to 9078
  122.7843  239.4230  320.6474 LP  0  0  0  0  0  0  0  0  0  0  0  0  # atno 13533 bound_to 9121
  123.8304  238.4020  323.8751 LP  0  0  0  0  0  0  0  0  0  0  0  0  # atno 13534 bound_to 9124
  124.3770  239.8224  323.0483 LP  0  0  0  0  0  0  0  0  0  0  0  0  # atno 13535 bound_to 9124
  114.9197  238.2347  321.0349 LP  0  0  0  0  0  0  0  0  0  0  0  0  # atno 13536 bound_to 9132
  115.1473  239.7709  320.5300 LP  0  0  0  0  0  0  0  0  0  0  0  0  # atno 13537 bound_to 9132
  121.1300  240.7227  324.6750 LP  0  0  0  0  0  0  0  0  0  0  0  0  # atno 13538 bound_to 9159
  120.0266  239.6100  326.2304 LP  0  0  0  0  0  0  0  0  0  0  0  0  # atno 13539 bound_to 9162
  119.9334  237.9142  326.5706 LP  0  0  0  0  0  0  0  0  0  0  0  0  # atno 13540 bound_to 9162
  118.4338  239.0656  329.2645 LP  0  0  0  0  0  0  0  0  0  0  0  0  # atno 13541 bound_to 9236
  122.7577  250.0861  327.4822 LP  0  0  0  0  0  0  0  0  0  0  0  0  # atno 13550 bound_to 3616
  123.8156  248.5441  325.8334 LP  0  0  0  0  0  0  0  0  0  0  0  0  # atno 13551 bound_to 3645
  118.6570  248.2775  316.0119 LP  0  0  0  0  0  0  0  0  0  0  0  0  # atno 13552 bound_to 9031
  121.3808  247.5091  315.0016 LP  0  0  0  0  0  0  0  0  0  0  0  0  # atno 13553 bound_to 9034
  122.5953  246.7987  316.0116 LP  0  0  0  0  0  0  0  0  0  0  0  0  # atno 13554 bound_to 9034
  121.1710  237.9519  316.9448 LP  0  0  0  0  0  0  0  0  0  0  0  0  # atno 13555 bound_to 8404
  120.0813  238.2241  318.2632 LP  0  0  0  0  0  0  0  0  0  0  0  0  # atno 13556 bound_to 8404
  121.8707  238.3497  326.4507 LP  0  0  0  0  0  0  0  0  0  0  0  0  # atno 13557 bound_to 9189
  126.7906  246.9427  316.7023 LP  0  0  0  0  0  0  0  0  0  0  0  0  # atno 13558 bound_to 4938
  125.4091  246.0733  316.6561 LP  0  0  0  0  0  0  0  0  0  0  0  0  # atno 13559 bound_to 4938
  120.3096  244.3062  313.5901 LP  0  0  0  0  0  0  0  0  0  0  0  0  # atno 13560 bound_to 9036
  120.7235  245.8453  313.9460 LP  0  0  0  0  0  0  0  0  0  0  0  0  # atno 13561 bound_to 9036
  113.1863  244.2404  316.2857 LP  0  0  0  0  0  0  0  0  0  0  0  0  # atno 13562 bound_to 8485
  112.7982  245.9010  315.9828 LP  0  0  0  0  0  0  0  0  0  0  0  0  # atno 13563 bound_to 8485
  113.5894  249.3901  315.1463 LP  0  0  0  0  0  0  0  0  0  0  0  0  # atno 13564 bound_to 8507
  114.8359  249.2025  316.3341 LP  0  0  0  0  0  0  0  0  0  0  0  0  # atno 13565 bound_to 8507
  115.6986  250.3344  314.8789 LP  0  0  0  0  0  0  0  0  0  0  0  0  # atno 13566 bound_to 8996
  112.7691  248.5088  316.7994 LP  0  0  0  0  0  0  0  0  0  0  0  0  # atno 13567 bound_to 8535
  123.9852  247.4368  313.1515 LP  0  0  0  0  0  0  0  0  0  0  0  0  # atno 13570 bound_to 4954
  119.9063  248.2372  313.1174 LP  0  0  0  0  0  0  0  0  0  0  0  0  # atno 13571 bound_to 4957
  120.6099  249.4363  314.1504 LP  0  0  0  0  0  0  0  0  0  0  0  0  # atno 13572 bound_to 4957
  110.1948  247.6187  317.3663 LP  0  0  0  0  0  0  0  0  0  0  0  0  # atno 13573 bound_to 5599
  110.2891  246.9596  318.9653 LP  0  0  0  0  0  0  0  0  0  0  0  0  # atno 13574 bound_to 5599
  112.5478  239.5540  320.0995 LP  0  0  0  0  0  0  0  0  0  0  0  0  # atno 13575 bound_to 8378
  112.1383  238.2547  320.9999 LP  0  0  0  0  0  0  0  0  0  0  0  0  # atno 13576 bound_to 8378
  109.0648  245.5845  318.0905 LP  0  0  0  0  0  0  0  0  0  0  0  0  # atno 13581 bound_to 5624
  112.3592  240.0192  317.0025 LP  0  0  0  0  0  0  0  0  0  0  0  0  # atno 13582 bound_to 5698
  110.9733  239.5579  317.9333 LP  0  0  0  0  0  0  0  0  0  0  0  0  # atno 13583 bound_to 5698
  114.4418  237.6194  328.1090 LP  0  0  0  0  0  0  0  0  0  0  0  0  # atno 13584 bound_to 9239
  114.3818  238.7275  326.7791 LP  0  0  0  0  0  0  0  0  0  0  0  0  # atno 13585 bound_to 9239
  107.2948  244.5293  320.2903 LP  0  0  0  0  0  0  0  0  0  0  0  0  # atno 13586 bound_to 5601
  107.0485  244.3991  318.6812 LP  0  0  0  0  0  0  0  0  0  0  0  0  # atno 13587 bound_to 5601
  109.3714  242.4896  314.6426 LP  0  0  0  0  0  0  0  0  0  0  0  0  # atno 13588 bound_to 5627
  108.5042  243.5840  315.6675 LP  0  0  0  0  0  0  0  0  0  0  0  0  # atno 13589 bound_to 5627
  111.9746  243.2691  315.5330 LP  0  0  0  0  0  0  0  0  0  0  0  0  # atno 13590 bound_to 5657
  112.4346  241.3806  313.9320 LP  0  0  0  0  0  0  0  0  0  0  0  0  # atno 13591 bound_to 5695
  109.8937  239.6610  315.8198 LP  0  0  0  0  0  0  0  0  0  0  0  0  # atno 13592 bound_to 5736
  107.6641  237.1399  317.5432 LP  0  0  0  0  0  0  0  0  0  0  0  0  # atno 13593 bound_to 5785
  116.6454  235.1851  319.3565 LP  0  0  0  0  0  0  0  0  0  0  0  0  # atno 13596 bound_to 8370
  117.8968  236.2325  318.7761 LP  0  0  0  0  0  0  0  0  0  0  0  0  # atno 13597 bound_to 8370
  112.2226  236.7477  329.2176 LP  0  0  0  0  0  0  0  0  0  0  0  0  # atno 13598 bound_to 9397
  110.2717  236.0721  329.5608 LP  0  0  0  0  0  0  0  0  0  0  0  0  # atno 13601 bound_to 9355
  110.1729  237.5147  330.5143 LP  0  0  0  0  0  0  0  0  0  0  0  0  # atno 13602 bound_to 9355
  109.1769  234.9578  326.8648 LP  0  0  0  0  0  0  0  0  0  0  0  0  # atno 13603 bound_to 9400
  109.2849  233.8783  328.2149 LP  0  0  0  0  0  0  0  0  0  0  0  0  # atno 13604 bound_to 9400
  113.9395  236.4914  331.3363 LP  0  0  0  0  0  0  0  0  0  0  0  0  # atno 13608 bound_to 9352

> <Gold.Score>
     Fitness  S(hb_ext) S(vdw_ext)  S(hb_int)    S(int)      intcor
     38.96       2.53      26.61       0.00      -0.16      -0.79

> <Gold.Goldscore.Fitness>
38.9600

> <Gold.Goldscore.Internal.Vdw>
-0.5661

> <Gold.Goldscore.Internal.Torsion>
-0.3803

> <Gold.Goldscore.External.Vdw>
26.6143

> <Gold.Goldscore.Internal.HBond>
0.0000

> <Gold.Goldscore.External.HBond>
2.5257

> <Gold.Goldscore.Internal.Correction>
-0.7859

> <Gold.Goldscore.Hbonds>
donor molecule, donor type, donor heavy atom, donor atom, acceptor molecule, acceptor atom, score
      P1  H  9132  9150       L1     9  0.97
      L1  H     8    22       P1  9239  0.29

> <Gold.Goldscore.Internal.Vdw.Weighted>
-0.5661

> <Gold.Goldscore.Internal.Torsion.Weighted>
-0.3803

> <Gold.Goldscore.External.Vdw.Weighted>
36.5947

> <Gold.Goldscore.Internal.HBond.Weighted>
0.0000

> <Gold.Goldscore.External.HBond.Weighted>
2.5257

> <Gold.Goldscore.Internal.Correction.Weighted>
-0.7859

> <Gold.Rescore>
     Score     S(PLP)   S(hbond)     S(cho)   S(metal)  DE(clash)   DE(tors)     intcor
     35.35     -32.39       1.00       0.00       0.00       0.00       0.02       ----

> <Gold.PLP.Fitness>
35.3451

> <Gold.PLP.PLP>
-32.3880

> <Gold.PLP.part.hbond>
-2.2722

> <Gold.PLP.part.metal>
0.0000

> <Gold.PLP.part.buried>
-7.0673

> <Gold.PLP.part.nonpolar>
-23.4453

> <Gold.PLP.part.repulsive>
0.6969

> <Gold.PLP.ligand.clash>
0.0000

> <Gold.PLP.ligand.torsion>
0.0215

> <Gold.PLP.Chemscore.Hbond>
1.0000

> <Gold.PLP.Chemscore.CHOScore>
0.0000

> <Gold.PLP.Chemscore.Metal>
0.0000

> <Gold.Chemscore.Hbonds>
donor molecule, donor type, donor heavy atom, donor atom, acceptor molecule, acceptor atom, score
      P1  H  9132  9150       L1     9  1.00

> <Gold.PLP.Chemscore.Internal.Correction>
   9.000000E+99

