#       Name:                CT1002167954
#       Creating user name   hitesit
#       Creation time:       Sun Apr 16 02:21:25 2023


#       File generated by GOLD software.
#

@<TRIPOS>MOLECULE
CT1002167954|ligand_prepared|mol2|1|dock7
    29    30     1
SMALL
NO_CHARGES


@<TRIPOS>ATOM
      1 C1          19.6691   2.9021 -21.6307 C.3            1 RES1               0.0000
      2 C2          19.4841   1.7724 -22.6642 C.ar           1 RES1               0.0000
      3 C3          18.6573   3.9850 -21.9940 C.2            1 RES1               0.0000
      4 C4          19.4396   2.2702 -20.2622 C.2            1 RES1               0.0000
      5 C5          21.0828   3.5289 -21.6365 C.3            1 RES1               0.0000
      6 C6          18.4439   1.8200 -23.5876 C.ar           1 RES1               0.0000
      7 C7          20.3455   0.6795 -22.7083 C.ar           1 RES1               0.0000
      8 N8          17.5603   4.1185 -21.1948 N.am           1 RES1               0.0000
      9 O9          18.7999   4.6849 -22.9890 O.2            1 RES1               0.0000
     10 N10         18.3523   2.6840 -19.5381 N.am           1 RES1               0.0000
     11 O11         20.1811   1.4057 -19.8117 O.2            1 RES1               0.0000
     12 C12         21.2641   4.6421 -20.6166 C.3            1 RES1               0.0000
     13 C13         18.2729   0.8131 -24.5231 C.ar           1 RES1               0.0000
     14 C14         20.1726  -0.3266 -23.6445 C.ar           1 RES1               0.0000
     15 C15         17.3851   3.5572 -19.9555 C.2            1 RES1               0.0000
     16 C16         19.1372  -0.2605 -24.5525 C.ar           1 RES1               0.0000
     17 O17         16.4075   3.8385 -19.2682 O.2            1 RES1               0.0000
     18 H18         21.8191   2.7413 -21.4342 H              1 RES1               0.0000
     19 H19         21.2872   3.9300 -22.6369 H              1 RES1               0.0000
     20 H20         17.7523   2.6559 -23.5781 H              1 RES1               0.0000
     21 H21         21.1664   0.6059 -22.0031 H              1 RES1               0.0000
     22 H22         16.7998   4.6882 -21.5517 H              1 RES1               0.0000
     23 H23         18.2551   2.3062 -18.6010 H              1 RES1               0.0000
     24 H24         22.2729   5.0469 -20.6628 H              1 RES1               0.0000
     25 H25         20.5643   5.4541 -20.8033 H              1 RES1               0.0000
     26 H26         21.0931   4.2725 -19.6077 H              1 RES1               0.0000
     27 H27         17.4557   0.8691 -25.2346 H              1 RES1               0.0000
     28 H28         20.8548  -1.1700 -23.6636 H              1 RES1               0.0000
     29 H29         19.0032  -1.0490 -25.2856 H              1 RES1               0.0000
@<TRIPOS>BOND
    1    1    2 1     
    2    1    3 1     
    3    1    4 1     
    4    1    5 1     
    5    2    6 ar    
    6    2    7 ar    
    7    3    8 1     
    8    3    9 2     
    9    4   10 1     
   10    4   11 2     
   11    5   12 1     
   12    5   18 1     
   13    5   19 1     
   14    6   13 ar    
   15    6   20 1     
   16    7   14 ar    
   17    7   21 1     
   18    8   15 1     
   19    8   22 1     
   20   10   15 1     
   21   10   23 1     
   22   12   24 1     
   23   12   25 1     
   24   12   26 1     
   25   13   16 ar    
   26   13   27 1     
   27   14   16 ar    
   28   14   28 1     
   29   15   17 2     
   30   16   29 1     
@<TRIPOS>SUBSTRUCTURE
      1 RES1           1
@<TRIPOS>SET
DONOR_HYDROGENS      STATIC     ATOMS    <user>   **** ""
2 22 23
ATOM$RED        STATIC     ATOMS    COLORGROUP SYSTEM
2 22 23
@<TRIPOS>COMMENT
> <Gold.Version>
2022.3.0

> <Gold.Id.Protein>
unknown|6m9l_clean|pdb

> <Gold.Protein.RotatedTorsions>
[ 1648 1641 1639 1636 ] final -122.88 input   60.02 | X-H torsion

> <Gold.Protein.ActiveResidues>
 TRP18   PRO29   VAL30   GLY31   GLY36   SER37   VAL38   CYS39   ALA40   ARG49  
 VAL50   ALA51   VAL52   LYS53   LYS54   LEU55   GLU71   LEU72   LEU75   ILE84  
 GLY85   LEU86   LEU87   ASP88   VAL89   VAL102  TYR103  LEU104  VAL105  THR106 
 HIS107  LEU108  MET109  GLY110  ALA111  ASP112  LEU113  ASN114  PRO153  SER154 
 ASN155  LEU156  ALA157  VAL158  ASN159  LYS165  LEU167  ASP168  PHE169 

> <Gold.Protein.RotatedAtoms>
   20.9169   -5.9368  -25.5948 H   0  0  0  0  0  0  0  0  0  0  0  0  # atno 1648 bound_to 1641
   21.4377   -7.3789  -25.0504 LP  0  0  0  0  0  0  0  0  0  0  0  0  # atno 5362 bound_to 1641
   21.8813   -6.8532  -26.5315 LP  0  0  0  0  0  0  0  0  0  0  0  0  # atno 5363 bound_to 1641

> <Gold.Score>
     Fitness  S(hb_ext) S(vdw_ext)  S(hb_int)    S(int)      intcor
     26.05       5.40      16.95       0.00      -2.66      -0.76

> <Gold.Goldscore.Fitness>
26.0453

> <Gold.Goldscore.Internal.Vdw>
-3.0548

> <Gold.Goldscore.Internal.Torsion>
-0.3668

> <Gold.Goldscore.External.Vdw>
16.9501

> <Gold.Goldscore.Internal.HBond>
0.0000

> <Gold.Goldscore.External.HBond>
5.3956

> <Gold.Goldscore.Internal.Correction>
-0.7650

> <Gold.Goldscore.Hbonds>
donor molecule, donor type, donor heavy atom, donor atom, acceptor molecule, acceptor atom, score
      L1  H     8    22       P1  1726  0.90

> <Gold.Goldscore.Internal.Vdw.Weighted>
-3.0548

> <Gold.Goldscore.Internal.Torsion.Weighted>
-0.3668

> <Gold.Goldscore.External.Vdw.Weighted>
23.3064

> <Gold.Goldscore.Internal.HBond.Weighted>
0.0000

> <Gold.Goldscore.External.HBond.Weighted>
5.3956

> <Gold.Goldscore.Internal.Correction.Weighted>
-0.7650

> <Gold.Rescore>
     Score     S(PLP)   S(hbond)     S(cho)   S(metal)  DE(clash)   DE(tors)     intcor
     23.65     -25.76       0.00       0.00       0.00       2.05       0.03       ----

> <Gold.PLP.Fitness>
23.6531

> <Gold.PLP.PLP>
-25.7566

> <Gold.PLP.part.hbond>
0.0000

> <Gold.PLP.part.metal>
0.0000

> <Gold.PLP.part.buried>
-2.7087

> <Gold.PLP.part.nonpolar>
-23.8602

> <Gold.PLP.part.repulsive>
0.2088

> <Gold.PLP.ligand.clash>
2.0533

> <Gold.PLP.ligand.torsion>
0.0251

> <Gold.PLP.Chemscore.Hbond>
0.0000

> <Gold.PLP.Chemscore.CHOScore>
0.0000

> <Gold.PLP.Chemscore.Metal>
0.0000

> <Gold.Chemscore.Hbonds>
donor molecule, donor type, donor heavy atom, donor atom, acceptor molecule, acceptor atom, score
      L1  H     8    22       P1  1726  0.70

> <Gold.PLP.Chemscore.Internal.Correction>
   9.000000E+99

