#       Name:                CT1002167954
#       Creating user name   hitesit
#       Creation time:       Sun Apr 16 02:21:27 2023


#       File generated by GOLD software.
#

@<TRIPOS>MOLECULE
CT1002167954|ligand_prepared|mol2|1|dock9
    29    30     1
SMALL
NO_CHARGES


@<TRIPOS>ATOM
      1 C1          21.1869   1.7814 -24.6657 C.3            1 RES1               0.0000
      2 C2          21.4342   0.9451 -23.3936 C.ar           1 RES1               0.0000
      3 C3          22.5329   1.8885 -25.3765 C.2            1 RES1               0.0000
      4 C4          20.1196   1.0399 -25.4630 C.2            1 RES1               0.0000
      5 C5          20.6658   3.2097 -24.3829 C.3            1 RES1               0.0000
      6 C6          22.0166   1.5215 -22.2687 C.ar           1 RES1               0.0000
      7 C7          21.0835  -0.4008 -23.3292 C.ar           1 RES1               0.0000
      8 N8          22.7111   1.1468 -26.5070 N.am           1 RES1               0.0000
      9 O9          23.4379   2.5826 -24.9299 O.2            1 RES1               0.0000
     10 N10         20.4754   0.5125 -26.6767 N.am           1 RES1               0.0000
     11 O11         18.9781   0.8932 -25.0436 O.2            1 RES1               0.0000
     12 C12         20.2448   3.9674 -25.6323 C.3            1 RES1               0.0000
     13 C13         22.2377   0.7801 -21.1199 C.ar           1 RES1               0.0000
     14 C14         21.3058  -1.1405 -22.1794 C.ar           1 RES1               0.0000
     15 C15         21.7308   0.5058 -27.2209 C.2            1 RES1               0.0000
     16 C16         21.8821  -0.5511 -21.0743 C.ar           1 RES1               0.0000
     17 O17         21.9837  -0.0367 -28.2927 O.2            1 RES1               0.0000
     18 H18         19.8070   3.1442 -23.7035 H              1 RES1               0.0000
     19 H19         21.4535   3.7786 -23.8736 H              1 RES1               0.0000
     20 H20         22.3052   2.5671 -22.2869 H              1 RES1               0.0000
     21 H21         20.6298  -0.8857 -24.1868 H              1 RES1               0.0000
     22 H22         23.6613   1.0608 -26.8536 H              1 RES1               0.0000
     23 H23         19.7358   0.0854 -27.2253 H              1 RES1               0.0000
     24 H24         19.8876   4.9630 -25.3776 H              1 RES1               0.0000
     25 H25         21.0817   4.0732 -26.3195 H              1 RES1               0.0000
     26 H26         19.4449   3.4425 -26.1504 H              1 RES1               0.0000
     27 H27         22.6928   1.2483 -20.2534 H              1 RES1               0.0000
     28 H28         21.0249  -2.1881 -22.1481 H              1 RES1               0.0000
     29 H29         22.0550  -1.1316 -20.1741 H              1 RES1               0.0000
@<TRIPOS>BOND
    1    1    2 1     
    2    1    3 1     
    3    1    4 1     
    4    1    5 1     
    5    2    6 ar    
    6    2    7 ar    
    7    3    8 1     
    8    3    9 2     
    9    4   10 1     
   10    4   11 2     
   11    5   12 1     
   12    5   18 1     
   13    5   19 1     
   14    6   13 ar    
   15    6   20 1     
   16    7   14 ar    
   17    7   21 1     
   18    8   15 1     
   19    8   22 1     
   20   10   15 1     
   21   10   23 1     
   22   12   24 1     
   23   12   25 1     
   24   12   26 1     
   25   13   16 ar    
   26   13   27 1     
   27   14   16 ar    
   28   14   28 1     
   29   15   17 2     
   30   16   29 1     
@<TRIPOS>SUBSTRUCTURE
      1 RES1           1
@<TRIPOS>SET
DONOR_HYDROGENS      STATIC     ATOMS    <user>   **** ""
2 22 23
ATOM$RED        STATIC     ATOMS    COLORGROUP SYSTEM
2 22 23
@<TRIPOS>COMMENT
> <Gold.Version>
2022.3.0

> <Gold.Id.Protein>
unknown|6m9l_clean|pdb

> <Gold.Protein.RotatedTorsions>
[ 1648 1641 1639 1636 ] final -135.72 input   60.02 | X-H torsion

> <Gold.Protein.ActiveResidues>
 TRP18   PRO29   VAL30   GLY31   GLY36   SER37   VAL38   CYS39   ALA40   ARG49  
 VAL50   ALA51   VAL52   LYS53   LYS54   LEU55   GLU71   LEU72   LEU75   ILE84  
 GLY85   LEU86   LEU87   ASP88   VAL89   VAL102  TYR103  LEU104  VAL105  THR106 
 HIS107  LEU108  MET109  GLY110  ALA111  ASP112  LEU113  ASN114  PRO153  SER154 
 ASN155  LEU156  ALA157  VAL158  ASN159  LYS165  LEU167  ASP168  PHE169 

> <Gold.Protein.RotatedAtoms>
   20.8727   -6.0234  -25.4094 H   0  0  0  0  0  0  0  0  0  0  0  0  # atno 1648 bound_to 1641
   21.5615   -7.4806  -25.1874 LP  0  0  0  0  0  0  0  0  0  0  0  0  # atno 5362 bound_to 1641
   21.8019   -6.6644  -26.5812 LP  0  0  0  0  0  0  0  0  0  0  0  0  # atno 5363 bound_to 1641

> <Gold.Score>
     Fitness  S(hb_ext) S(vdw_ext)  S(hb_int)    S(int)      intcor
     26.94       0.00      20.37       0.00      -1.06      -0.76

> <Gold.Goldscore.Fitness>
26.9395

> <Gold.Goldscore.Internal.Vdw>
-1.3679

> <Gold.Goldscore.Internal.Torsion>
-0.4599

> <Gold.Goldscore.External.Vdw>
20.3654

> <Gold.Goldscore.Internal.HBond>
0.0000

> <Gold.Goldscore.External.HBond>
0.0000

> <Gold.Goldscore.Internal.Correction>
-0.7650

> <Gold.Goldscore.Internal.Vdw.Weighted>
-1.3679

> <Gold.Goldscore.Internal.Torsion.Weighted>
-0.4599

> <Gold.Goldscore.External.Vdw.Weighted>
28.0024

> <Gold.Goldscore.Internal.HBond.Weighted>
0.0000

> <Gold.Goldscore.External.HBond.Weighted>
0.0000

> <Gold.Goldscore.Internal.Correction.Weighted>
-0.7650

> <Gold.Rescore>
     Score     S(PLP)   S(hbond)     S(cho)   S(metal)  DE(clash)   DE(tors)     intcor
     30.93     -32.53       0.00       0.00       0.00       1.18       0.21       ----

> <Gold.PLP.Fitness>
30.9288

> <Gold.PLP.PLP>
-32.5314

> <Gold.PLP.part.hbond>
0.0000

> <Gold.PLP.part.metal>
0.0000

> <Gold.PLP.part.buried>
-3.7148

> <Gold.PLP.part.nonpolar>
-29.3922

> <Gold.PLP.part.repulsive>
0.2374

> <Gold.PLP.ligand.clash>
1.1846

> <Gold.PLP.ligand.torsion>
0.2090

> <Gold.PLP.Chemscore.Hbond>
0.0000

> <Gold.PLP.Chemscore.CHOScore>
0.0000

> <Gold.PLP.Chemscore.Metal>
0.0000

> <Gold.PLP.Chemscore.Internal.Correction>
   9.000000E+99

