#       Name:                CT1002167954
#       Creating user name   hitesit
#       Creation time:       Sun Apr 16 20:25:35 2023


#       File generated by GOLD software.
#

@<TRIPOS>MOLECULE
CT1002167954|ligand_prepared|mol2|1|dock8
    29    30     1
SMALL
NO_CHARGES


@<TRIPOS>ATOM
      1 C1         228.2114  29.0886  12.5695 C.3            1 RES1               0.0000
      2 C2         228.8743  30.4423  12.8963 C.ar           1 RES1               0.0000
      3 C3         227.4630  29.2845  11.2542 C.2            1 RES1               0.0000
      4 C4         229.3410  28.0671  12.4963 C.2            1 RES1               0.0000
      5 C5         227.2042  28.6111  13.6414 C.3            1 RES1               0.0000
      6 C6         229.9288  30.9198  12.1239 C.ar           1 RES1               0.0000
      7 C7         228.4412  31.2247  13.9635 C.ar           1 RES1               0.0000
      8 N8         227.9979  28.7218  10.1330 N.am           1 RES1               0.0000
      9 O9         226.4403  29.9558  11.1949 O.2            1 RES1               0.0000
     10 N10        229.6009  27.4829  11.2843 N.am           1 RES1               0.0000
     11 O11        230.0192  27.7752  13.4736 O.2            1 RES1               0.0000
     12 C12        226.6507  27.2182  13.3853 C.3            1 RES1               0.0000
     13 C13        230.5269  32.1367  12.4062 C.ar           1 RES1               0.0000
     14 C14        229.0409  32.4413  14.2443 C.ar           1 RES1               0.0000
     15 C15        229.0007  27.7866  10.0928 C.2            1 RES1               0.0000
     16 C16        230.0832  32.8984  13.4662 C.ar           1 RES1               0.0000
     17 O17        229.3267  27.2567   9.0345 O.2            1 RES1               0.0000
     18 H18        227.6995  28.6199  14.6201 H              1 RES1               0.0000
     19 H19        226.3688  29.3210  13.6820 H              1 RES1               0.0000
     20 H20        230.2932  30.3331  11.2872 H              1 RES1               0.0000
     21 H21        227.6236  30.8846  14.5899 H              1 RES1               0.0000
     22 H22        227.6172  29.0243   9.2421 H              1 RES1               0.0000
     23 H23        230.3071  26.7539  11.2690 H              1 RES1               0.0000
     24 H24        225.9494  26.9322  14.1664 H              1 RES1               0.0000
     25 H25        226.1294  27.1796  12.4311 H              1 RES1               0.0000
     26 H26        227.4522  26.4827  13.3637 H              1 RES1               0.0000
     27 H27        231.3477  32.4914  11.7917 H              1 RES1               0.0000
     28 H28        228.6888  33.0372  15.0799 H              1 RES1               0.0000
     29 H29        230.5516  33.8519  13.6869 H              1 RES1               0.0000
@<TRIPOS>BOND
    1    1    2 1     
    2    1    3 1     
    3    1    4 1     
    4    1    5 1     
    5    2    6 ar    
    6    2    7 ar    
    7    3    8 1     
    8    3    9 2     
    9    4   10 1     
   10    4   11 2     
   11    5   12 1     
   12    5   18 1     
   13    5   19 1     
   14    6   13 ar    
   15    6   20 1     
   16    7   14 ar    
   17    7   21 1     
   18    8   15 1     
   19    8   22 1     
   20   10   15 1     
   21   10   23 1     
   22   12   24 1     
   23   12   25 1     
   24   12   26 1     
   25   13   16 ar    
   26   13   27 1     
   27   14   16 ar    
   28   14   28 1     
   29   15   17 2     
   30   16   29 1     
@<TRIPOS>SUBSTRUCTURE
      1 RES1           1
@<TRIPOS>SET
DONOR_HYDROGENS      STATIC     ATOMS    <user>   **** ""
2 22 23
ATOM$RED        STATIC     ATOMS    COLORGROUP SYSTEM
2 22 23
@<TRIPOS>COMMENT
> <Gold.Version>
2022.3.0

> <Gold.Id.Protein>
unknown|4d1n_clean|pdb

> <Gold.Protein.RotatedTorsions>
[ 16995 16956 16955 16953 ] final  -94.76 input   60.02 | X-H torsion
[ 18503 18464 18463 18461 ] final  115.76 input   59.99 | X-H torsion
[ 18563 18529 18530 18531 ] final   12.23 input   85.91 | X-H torsion
[ 18713 18683 18684 18685 ] final -168.97 input  120.10 | X-H torsion
[ 18779 18741 18742 18743 ] final  114.47 input   94.66 | X-H torsion
[ 18963 18915 18916 18917 ] final  148.42 input   99.61 | X-H torsion
[ 19029 19005 19006 19007 ] final -144.24 input  120.28 | X-H torsion
[ 17195 17175 17176 17177 ] final  132.40 input   50.47 | X-H torsion
[ 17251 17219 17220 17221 ] final  119.70 input  121.85 | X-H torsion
[ 18823 18809 18810 18811 ] final  159.35 input  109.66 | X-H torsion
[ 19103 19061 19062 19063 ] final  103.39 input   93.64 | X-H torsion
[ 18495 18453 18454 18455 ] final   -1.17 input  105.49 | X-H torsion
[ 18295 18273 18274 18275 ] final -141.74 input   34.55 | X-H torsion
[ 18327 18313 18314 18315 ] final  -87.29 input   52.32 | X-H torsion
[ 18409 18361 18362 18363 ] final  -26.86 input   29.77 | X-H torsion
[ 7524 7513 7514 7515 ] final -148.06 input   82.77 | X-H torsion
[ 7475 7455 7456 7457 ] final  -89.79 input   99.19 | X-H torsion
[ 18603 18589 18590 18591 ] final  -79.51 input  124.64 | X-H torsion
[ 10105 10094 10093 10090 ] final -102.08 input   59.99 | X-H torsion
[ 18299 18278 18277 18274 ] final  158.18 input   60.00 | X-H torsion
[ 11477 11459 11460 11461 ] final  -66.22 input   48.11 | X-H torsion
[ 18657 18629 18627 18624 ] final -152.66 input   60.03 | X-H torsion
[ 11425 11414 11413 11410 ] final  -43.30 input   60.02 | X-H torsion
[ 18875 18843 18844 18845 ] final  -17.25 input   86.72 | X-H torsion
[ 17303 17281 17282 17283 ] final   89.57 input   51.85 | X-H torsion
[ 22447 22415 22416 22417 ] final   48.91 input   56.20 | X-H torsion
[ 18243 18203 18204 18205 ] final   54.54 input   41.90 | X-H torsion
[ 11805 11781 11782 11783 ] final -166.22 input   87.31 | X-H torsion
[ 16987 16945 16946 16947 ] final -160.51 input   84.34 | X-H torsion
[ 27198 18532 18531 18530 ] final  -56.36 input   -0.00 | X-H torsion
[ 27200 18626 18625 18624 ] final   47.37 input    0.00 | X-H torsion
[ 27203 18686 18685 18684 ] final  178.19 input   -0.00 | X-H torsion
[ 27223 17126 17125 17124 ] final   99.71 input    0.00 | X-H torsion
[ 27227 11604 11603 11602 ] final -122.69 input    0.00 | X-H torsion
[ 27231 17052 17051 17050 ] final -124.95 input   -0.00 | X-H torsion
[ 27233 18744 18743 18742 ] final -134.26 input   -0.00 | X-H torsion
[ 27235 18592 18591 18590 ] final  -35.44 input   -0.00 | X-H torsion
[ 27238 18918 18917 18916 ] final  -62.57 input    0.00 | X-H torsion
[ 27240 19008 19007 19006 ] final   87.72 input    0.00 | X-H torsion
[ 27243 17178 17177 17176 ] final  -90.69 input    0.00 | X-H torsion
[ 27245 18364 18363 18362 ] final  -93.13 input    0.00 | X-H torsion
[ 27248 11412 11411 11410 ] final  -14.40 input   -0.00 | X-H torsion
[ 27250 18206 18205 18204 ] final -144.17 input   -0.00 | X-H torsion
[ 27254 17222 17221 17220 ] final  146.60 input   -0.00 | X-H torsion
[ 27259 18316 18315 18314 ] final -110.70 input   -0.00 | X-H torsion
[ 27261 18456 18455 18454 ] final  -80.39 input    0.00 | X-H torsion
[ 27264 18276 18275 18274 ] final -144.77 input    0.00 | X-H torsion
[ 27267 17016 17015 17014 ] final  -22.65 input    0.00 | X-H torsion
[ 27275 16948 16947 16946 ] final -129.70 input   -0.00 | X-H torsion

> <Gold.Protein.ActiveResidues>
 TRP414  CYS420  VAL421  GLY422  LEU460  SER462  SER482  GLN483  ILE485  ARG486 
 TYR487  ASP500  ASN503  TRP566  TYR567  GLY568  LEU569  PRO570  ALA571  VAL572 
 SER573  ASN574  PHE589  SER590  GLY591  TRP592  TYR593  MET594  GLY595  THR596 
 GLU597  ILE598  GLY599  VAL600  ARG601  ASP602  TYR603  ARG608  ILE653  VAL654 
 TRP683  PRO687  HEM750  H4B760 

> <Gold.Protein.RotatedAtoms>
  232.0925   33.8966   21.0529 H   0  0  0  0  0  0  0  0  0  0  0  0  # atno 7475 bound_to 7455
  234.1471   35.1656   19.0843 H   0  0  0  0  0  0  0  0  0  0  0  0  # atno 7524 bound_to 7513
  229.5798   40.6731   12.7472 H   0  0  0  0  0  0  0  0  0  0  0  0  # atno 10105 bound_to 10094
  220.6005   24.8622    8.4941 H   0  0  0  0  0  0  0  0  0  0  0  0  # atno 11425 bound_to 11414
  220.0382   28.0244    8.6734 H   0  0  0  0  0  0  0  0  0  0  0  0  # atno 11477 bound_to 11459
  225.3415   24.8464    1.9818 H   0  0  0  0  0  0  0  0  0  0  0  0  # atno 11805 bound_to 11781
  231.3074   27.8570    0.7461 H   0  0  0  0  0  0  0  0  0  0  0  0  # atno 16987 bound_to 16945
  228.2368   26.7404    6.5373 H   0  0  0  0  0  0  0  0  0  0  0  0  # atno 16995 bound_to 16956
  225.9853   32.6281    7.2309 H   0  0  0  0  0  0  0  0  0  0  0  0  # atno 17195 bound_to 17175
  224.3728   32.7880   11.0712 H   0  0  0  0  0  0  0  0  0  0  0  0  # atno 17251 bound_to 17219
  220.7265   30.3997   10.5580 H   0  0  0  0  0  0  0  0  0  0  0  0  # atno 17303 bound_to 17281
  221.4109   35.2853   11.7093 H   0  0  0  0  0  0  0  0  0  0  0  0  # atno 18243 bound_to 18203
  223.9415   36.8252   11.1950 H   0  0  0  0  0  0  0  0  0  0  0  0  # atno 18295 bound_to 18273
  225.7820   38.3368    7.3153 H   0  0  0  0  0  0  0  0  0  0  0  0  # atno 18299 bound_to 18278
  227.5387   37.6152   10.1812 H   0  0  0  0  0  0  0  0  0  0  0  0  # atno 18327 bound_to 18313
  231.0734   36.2529   10.9996 H   0  0  0  0  0  0  0  0  0  0  0  0  # atno 18409 bound_to 18361
  234.1184   34.9666    9.4798 H   0  0  0  0  0  0  0  0  0  0  0  0  # atno 18495 bound_to 18453
  229.1701   29.1229    7.2229 H   0  0  0  0  0  0  0  0  0  0  0  0  # atno 18503 bound_to 18464
  235.0063   31.4260   11.0563 H   0  0  0  0  0  0  0  0  0  0  0  0  # atno 18563 bound_to 18529
  237.4396   30.5985   11.0068 H   0  0  0  0  0  0  0  0  0  0  0  0  # atno 18603 bound_to 18589
  238.6455   27.4160   15.3893 H   0  0  0  0  0  0  0  0  0  0  0  0  # atno 18657 bound_to 18629
  236.3217   27.1419   12.9484 H   0  0  0  0  0  0  0  0  0  0  0  0  # atno 18713 bound_to 18683
  235.5586   26.9035    9.6259 H   0  0  0  0  0  0  0  0  0  0  0  0  # atno 18779 bound_to 18741
  237.6005   25.3411    8.1640 H   0  0  0  0  0  0  0  0  0  0  0  0  # atno 18823 bound_to 18809
  237.4706   22.5688    9.8396 H   0  0  0  0  0  0  0  0  0  0  0  0  # atno 18875 bound_to 18843
  236.0138   22.3166   12.4501 H   0  0  0  0  0  0  0  0  0  0  0  0  # atno 18963 bound_to 18915
  232.9290   21.7843   10.7690 H   0  0  0  0  0  0  0  0  0  0  0  0  # atno 19029 bound_to 19005
  235.1503   21.2113    8.0757 H   0  0  0  0  0  0  0  0  0  0  0  0  # atno 19103 bound_to 19061
  238.2998   34.3753   10.2035 H   0  0  0  0  0  0  0  0  0  0  0  0  # atno 22447 bound_to 22415
  226.8279   26.3575    5.8191 LP  0  0  0  0  0  0  0  0  0  0  0  0  # atno 27193 bound_to 16956
  226.9782   27.7675    6.6291 LP  0  0  0  0  0  0  0  0  0  0  0  0  # atno 27194 bound_to 16956
  229.8351   27.9035    8.0701 LP  0  0  0  0  0  0  0  0  0  0  0  0  # atno 27195 bound_to 18464
  230.1827   28.0851    6.4849 LP  0  0  0  0  0  0  0  0  0  0  0  0  # atno 27196 bound_to 18464
  235.1450   32.9763   11.8582 LP  0  0  0  0  0  0  0  0  0  0  0  0  # atno 27197 bound_to 18529
  235.9300   29.0697   12.0687 LP  0  0  0  0  0  0  0  0  0  0  0  0  # atno 27198 bound_to 18532
  236.1112   29.1762   10.3494 LP  0  0  0  0  0  0  0  0  0  0  0  0  # atno 27199 bound_to 18532
  237.0877   23.9682   12.8581 LP  0  0  0  0  0  0  0  0  0  0  0  0  # atno 27200 bound_to 18626
  236.0926   24.2127   11.4617 LP  0  0  0  0  0  0  0  0  0  0  0  0  # atno 27201 bound_to 18626
  236.6776   26.5931   11.3326 LP  0  0  0  0  0  0  0  0  0  0  0  0  # atno 27202 bound_to 18683
  233.7441   23.9585    9.7478 LP  0  0  0  0  0  0  0  0  0  0  0  0  # atno 27203 bound_to 18686
  233.3415   24.1878   11.4167 LP  0  0  0  0  0  0  0  0  0  0  0  0  # atno 27204 bound_to 18686
  234.9603   25.4694   10.4251 LP  0  0  0  0  0  0  0  0  0  0  0  0  # atno 27209 bound_to 18741
  236.1868   21.3156   11.0338 LP  0  0  0  0  0  0  0  0  0  0  0  0  # atno 27210 bound_to 18915
  234.4287   21.5656    9.9019 LP  0  0  0  0  0  0  0  0  0  0  0  0  # atno 27211 bound_to 19005
  226.8494   34.9464    8.7844 LP  0  0  0  0  0  0  0  0  0  0  0  0  # atno 27223 bound_to 17126
  227.2057   33.9486   10.1546 LP  0  0  0  0  0  0  0  0  0  0  0  0  # atno 27224 bound_to 17126
  226.0776   31.9339    8.8260 LP  0  0  0  0  0  0  0  0  0  0  0  0  # atno 27225 bound_to 17175
  223.4396   32.3588    9.6521 LP  0  0  0  0  0  0  0  0  0  0  0  0  # atno 27226 bound_to 17219
  225.8702   28.0370    4.4352 LP  0  0  0  0  0  0  0  0  0  0  0  0  # atno 27227 bound_to 11604
  224.7029   28.9069    5.3737 LP  0  0  0  0  0  0  0  0  0  0  0  0  # atno 27228 bound_to 11604
  226.4089   32.4533    5.7939 LP  0  0  0  0  0  0  0  0  0  0  0  0  # atno 27231 bound_to 17052
  227.3990   31.8524    4.5060 LP  0  0  0  0  0  0  0  0  0  0  0  0  # atno 27232 bound_to 17052
  236.1784   22.1685    8.5538 LP  0  0  0  0  0  0  0  0  0  0  0  0  # atno 27233 bound_to 18744
  235.2960   22.7902    7.1992 LP  0  0  0  0  0  0  0  0  0  0  0  0  # atno 27234 bound_to 18744
  237.7271   27.1066    8.8868 LP  0  0  0  0  0  0  0  0  0  0  0  0  # atno 27235 bound_to 18592
  238.5807   25.9902    9.8992 LP  0  0  0  0  0  0  0  0  0  0  0  0  # atno 27236 bound_to 18592
  236.6890   24.1550    9.0664 LP  0  0  0  0  0  0  0  0  0  0  0  0  # atno 27237 bound_to 18809
  234.0672   18.7197   10.4478 LP  0  0  0  0  0  0  0  0  0  0  0  0  # atno 27238 bound_to 18918
  232.3920   19.1559   10.3914 LP  0  0  0  0  0  0  0  0  0  0  0  0  # atno 27239 bound_to 18918
  232.2975   19.5796    6.3364 LP  0  0  0  0  0  0  0  0  0  0  0  0  # atno 27240 bound_to 19008
  232.5537   18.5311    7.6910 LP  0  0  0  0  0  0  0  0  0  0  0  0  # atno 27241 bound_to 19008
  233.7181   20.2299    7.8832 LP  0  0  0  0  0  0  0  0  0  0  0  0  # atno 27242 bound_to 19061
  221.6083   32.4175    8.6240 LP  0  0  0  0  0  0  0  0  0  0  0  0  # atno 27243 bound_to 17178
  222.5807   31.0159    8.3239 LP  0  0  0  0  0  0  0  0  0  0  0  0  # atno 27244 bound_to 17178
  233.6221   35.2216   11.9018 LP  0  0  0  0  0  0  0  0  0  0  0  0  # atno 27245 bound_to 18364
  232.0767   34.4765   11.6638 LP  0  0  0  0  0  0  0  0  0  0  0  0  # atno 27246 bound_to 18364
  232.7818   34.1092    8.7501 LP  0  0  0  0  0  0  0  0  0  0  0  0  # atno 27247 bound_to 18453
  220.2032   28.4362   11.4611 LP  0  0  0  0  0  0  0  0  0  0  0  0  # atno 27248 bound_to 11412
  221.5984   29.0194   10.6166 LP  0  0  0  0  0  0  0  0  0  0  0  0  # atno 27249 bound_to 11412
  224.7622   34.9927   11.2666 LP  0  0  0  0  0  0  0  0  0  0  0  0  # atno 27250 bound_to 18206
  223.0797   34.8085   10.8990 LP  0  0  0  0  0  0  0  0  0  0  0  0  # atno 27251 bound_to 18206
  220.2977   33.6965   11.0757 LP  0  0  0  0  0  0  0  0  0  0  0  0  # atno 27254 bound_to 17222
  221.5760   33.7646   12.2425 LP  0  0  0  0  0  0  0  0  0  0  0  0  # atno 27255 bound_to 17222
  224.4762   38.4678   10.9529 LP  0  0  0  0  0  0  0  0  0  0  0  0  # atno 27256 bound_to 18273
  228.0871   36.3764   11.2874 LP  0  0  0  0  0  0  0  0  0  0  0  0  # atno 27257 bound_to 18313
  231.3368   37.8234   10.2729 LP  0  0  0  0  0  0  0  0  0  0  0  0  # atno 27258 bound_to 18361
  229.9959   37.0309    8.0836 LP  0  0  0  0  0  0  0  0  0  0  0  0  # atno 27259 bound_to 18316
  230.2846   38.7142    8.3722 LP  0  0  0  0  0  0  0  0  0  0  0  0  # atno 27260 bound_to 18316
  236.9254   33.5592    9.6228 LP  0  0  0  0  0  0  0  0  0  0  0  0  # atno 27261 bound_to 18456
  236.3593   34.6323   10.8589 LP  0  0  0  0  0  0  0  0  0  0  0  0  # atno 27262 bound_to 18456
  232.6453   35.8121   19.7027 LP  0  0  0  0  0  0  0  0  0  0  0  0  # atno 27263 bound_to 7513
  227.6586   39.7071   10.7120 LP  0  0  0  0  0  0  0  0  0  0  0  0  # atno 27264 bound_to 18276
  226.0840   39.4022   11.3660 LP  0  0  0  0  0  0  0  0  0  0  0  0  # atno 27265 bound_to 18276
  232.6157   33.0452   19.6190 LP  0  0  0  0  0  0  0  0  0  0  0  0  # atno 27266 bound_to 7455
  232.5663   33.7679    5.0915 LP  0  0  0  0  0  0  0  0  0  0  0  0  # atno 27267 bound_to 17016
  231.1091   34.6084    5.5041 LP  0  0  0  0  0  0  0  0  0  0  0  0  # atno 27268 bound_to 17016
  239.1147   30.7515   11.4749 LP  0  0  0  0  0  0  0  0  0  0  0  0  # atno 27269 bound_to 18589
  230.2687   42.1369   12.9172 LP  0  0  0  0  0  0  0  0  0  0  0  0  # atno 27270 bound_to 10094
  230.1452   41.4560   11.4381 LP  0  0  0  0  0  0  0  0  0  0  0  0  # atno 27271 bound_to 10094
  226.0115   38.9747    8.7950 LP  0  0  0  0  0  0  0  0  0  0  0  0  # atno 27272 bound_to 18278
  224.5240   38.4794    8.3382 LP  0  0  0  0  0  0  0  0  0  0  0  0  # atno 27273 bound_to 18278
  221.4702   27.0141    8.5566 LP  0  0  0  0  0  0  0  0  0  0  0  0  # atno 27274 bound_to 11459
  231.4452   30.9555    4.1565 LP  0  0  0  0  0  0  0  0  0  0  0  0  # atno 27275 bound_to 16948
  232.3712   29.7115    3.3851 LP  0  0  0  0  0  0  0  0  0  0  0  0  # atno 27276 bound_to 16948

> <Gold.Score>
     Fitness  S(hb_ext) S(vdw_ext)  S(hb_int)    S(int)      intcor
     43.06       1.85      29.97       0.00      -0.01      -0.75

> <Gold.Goldscore.Fitness>
43.0553

> <Gold.Goldscore.Internal.Vdw>
-0.3461

> <Gold.Goldscore.Internal.Torsion>
-0.4138

> <Gold.Goldscore.External.Vdw>
29.9711

> <Gold.Goldscore.Internal.HBond>
0.0000

> <Gold.Goldscore.External.HBond>
1.8503

> <Gold.Goldscore.Internal.Correction>
-0.7546

> <Gold.Goldscore.Hbonds>
donor molecule, donor type, donor heavy atom, donor atom, acceptor molecule, acceptor atom, score
      P1  H 11466 11483       L1    17  0.28
      L1  H     8    22       P1 11467  0.21

> <Gold.Goldscore.Internal.Vdw.Weighted>
-0.3461

> <Gold.Goldscore.Internal.Torsion.Weighted>
-0.4138

> <Gold.Goldscore.External.Vdw.Weighted>
41.2103

> <Gold.Goldscore.Internal.HBond.Weighted>
0.0000

> <Gold.Goldscore.External.HBond.Weighted>
1.8503

> <Gold.Goldscore.Internal.Correction.Weighted>
-0.7546

> <Gold.Rescore>
     Score     S(PLP)   S(hbond)     S(cho)   S(metal)  DE(clash)   DE(tors)     intcor
     13.84     -11.11       1.02       0.00       0.00       0.00       0.17       ----

> <Gold.PLP.Fitness>
13.8358

> <Gold.PLP.PLP>
-11.1093

> <Gold.PLP.part.hbond>
-5.0464

> <Gold.PLP.part.metal>
0.0000

> <Gold.PLP.part.buried>
19.7422

> <Gold.PLP.part.nonpolar>
-37.6367

> <Gold.PLP.part.repulsive>
10.3980

> <Gold.PLP.ligand.clash>
0.0000

> <Gold.PLP.ligand.torsion>
0.1686

> <Gold.PLP.Chemscore.Hbond>
1.0212

> <Gold.PLP.Chemscore.CHOScore>
0.0000

> <Gold.PLP.Chemscore.Metal>
0.0000

> <Gold.Chemscore.Hbonds>
donor molecule, donor type, donor heavy atom, donor atom, acceptor molecule, acceptor atom, score
      L1  H     8    22       P1 11467  0.63

> <Gold.PLP.Chemscore.Internal.Correction>
   9.000000E+99

