#       Name:                CT1002167954
#       Creating user name   hitesit
#       Creation time:       Sun Apr 16 20:25:32 2023


#       File generated by GOLD software.
#

@<TRIPOS>MOLECULE
CT1002167954|ligand_prepared|mol2|1|dock5
    29    30     1
SMALL
NO_CHARGES


@<TRIPOS>ATOM
      1 C1         228.6822  32.4026  13.1758 C.3            1 RES1               0.0000
      2 C2         228.0510  31.1567  13.8302 C.ar           1 RES1               0.0000
      3 C3         228.0120  32.5571  11.8137 C.2            1 RES1               0.0000
      4 C4         228.4247  33.5628  14.1310 C.2            1 RES1               0.0000
      5 C5         230.2096  32.2899  12.9618 C.3            1 RES1               0.0000
      6 C6         226.9446  31.2787  14.6654 C.ar           1 RES1               0.0000
      7 C7         228.5615  29.8809  13.6064 C.ar           1 RES1               0.0000
      8 N8         227.1020  33.5623  11.6677 N.am           1 RES1               0.0000
      9 O9         228.2490  31.7841  10.8936 O.2            1 RES1               0.0000
     10 N10        227.6006  34.5724  13.7075 N.am           1 RES1               0.0000
     11 O11        228.9148  33.6037  15.2528 O.2            1 RES1               0.0000
     12 C12        230.8766  33.6071  12.5983 C.3            1 RES1               0.0000
     13 C13        226.3675  30.1653  15.2533 C.ar           1 RES1               0.0000
     14 C14        227.9831  28.7687  14.1955 C.ar           1 RES1               0.0000
     15 C15        226.9032  34.6097  12.5309 C.2            1 RES1               0.0000
     16 C16        226.8859  28.9097  15.0185 C.ar           1 RES1               0.0000
     17 O17        226.1386  35.5265  12.2445 O.2            1 RES1               0.0000
     18 H18        230.6674  31.9040  13.8809 H              1 RES1               0.0000
     19 H19        230.4014  31.5644  12.1615 H              1 RES1               0.0000
     20 H20        226.5242  32.2590  14.8639 H              1 RES1               0.0000
     21 H21        229.4247  29.7461  12.9635 H              1 RES1               0.0000
     22 H22        226.5151  33.5326  10.8401 H              1 RES1               0.0000
     23 H23        227.4977  35.3701  14.3267 H              1 RES1               0.0000
     24 H24        231.9472  33.4719  12.4594 H              1 RES1               0.0000
     25 H25        230.4629  34.0071  11.6749 H              1 RES1               0.0000
     26 H26        230.7274  34.3448  13.3841 H              1 RES1               0.0000
     27 H27        225.5050  30.2817  15.9013 H              1 RES1               0.0000
     28 H28        228.3948  27.7825  14.0084 H              1 RES1               0.0000
     29 H29        226.4335  28.0376  15.4788 H              1 RES1               0.0000
@<TRIPOS>BOND
    1    1    2 1     
    2    1    3 1     
    3    1    4 1     
    4    1    5 1     
    5    2    6 ar    
    6    2    7 ar    
    7    3    8 1     
    8    3    9 2     
    9    4   10 1     
   10    4   11 2     
   11    5   12 1     
   12    5   18 1     
   13    5   19 1     
   14    6   13 ar    
   15    6   20 1     
   16    7   14 ar    
   17    7   21 1     
   18    8   15 1     
   19    8   22 1     
   20   10   15 1     
   21   10   23 1     
   22   12   24 1     
   23   12   25 1     
   24   12   26 1     
   25   13   16 ar    
   26   13   27 1     
   27   14   16 ar    
   28   14   28 1     
   29   15   17 2     
   30   16   29 1     
@<TRIPOS>SUBSTRUCTURE
      1 RES1           1
@<TRIPOS>SET
DONOR_HYDROGENS      STATIC     ATOMS    <user>   **** ""
2 22 23
ATOM$RED        STATIC     ATOMS    COLORGROUP SYSTEM
2 22 23
@<TRIPOS>COMMENT
> <Gold.Version>
2022.3.0

> <Gold.Id.Protein>
unknown|4d1n_clean|pdb

> <Gold.Protein.RotatedTorsions>
[ 16995 16956 16955 16953 ] final -106.81 input   60.02 | X-H torsion
[ 18503 18464 18463 18461 ] final -164.74 input   59.99 | X-H torsion
[ 18563 18529 18530 18531 ] final  -55.20 input   85.91 | X-H torsion
[ 18713 18683 18684 18685 ] final  173.86 input  120.10 | X-H torsion
[ 18779 18741 18742 18743 ] final  -77.39 input   94.66 | X-H torsion
[ 18963 18915 18916 18917 ] final  129.93 input   99.61 | X-H torsion
[ 19029 19005 19006 19007 ] final -144.20 input  120.28 | X-H torsion
[ 17195 17175 17176 17177 ] final  -79.04 input   50.47 | X-H torsion
[ 17251 17219 17220 17221 ] final   16.23 input  121.85 | X-H torsion
[ 18823 18809 18810 18811 ] final  147.61 input  109.66 | X-H torsion
[ 19103 19061 19062 19063 ] final   56.47 input   93.64 | X-H torsion
[ 18495 18453 18454 18455 ] final  -36.45 input  105.49 | X-H torsion
[ 18295 18273 18274 18275 ] final   73.79 input   34.55 | X-H torsion
[ 18327 18313 18314 18315 ] final  144.60 input   52.32 | X-H torsion
[ 18409 18361 18362 18363 ] final   27.89 input   29.77 | X-H torsion
[ 7524 7513 7514 7515 ] final -116.34 input   82.77 | X-H torsion
[ 7475 7455 7456 7457 ] final  -12.57 input   99.19 | X-H torsion
[ 18603 18589 18590 18591 ] final  150.72 input  124.64 | X-H torsion
[ 10105 10094 10093 10090 ] final -145.94 input   59.99 | X-H torsion
[ 18299 18278 18277 18274 ] final  -85.47 input   60.00 | X-H torsion
[ 11477 11459 11460 11461 ] final  -29.65 input   48.11 | X-H torsion
[ 18657 18629 18627 18624 ] final -159.63 input   60.03 | X-H torsion
[ 11425 11414 11413 11410 ] final  -51.16 input   60.02 | X-H torsion
[ 18875 18843 18844 18845 ] final  -94.01 input   86.72 | X-H torsion
[ 17303 17281 17282 17283 ] final  134.23 input   51.85 | X-H torsion
[ 22447 22415 22416 22417 ] final  118.58 input   56.20 | X-H torsion
[ 18243 18203 18204 18205 ] final -126.28 input   41.90 | X-H torsion
[ 11805 11781 11782 11783 ] final  -61.54 input   87.31 | X-H torsion
[ 16987 16945 16946 16947 ] final   72.41 input   84.34 | X-H torsion
[ 27198 18532 18531 18530 ] final  -12.30 input   -0.00 | X-H torsion
[ 27200 18626 18625 18624 ] final  -54.74 input    0.00 | X-H torsion
[ 27203 18686 18685 18684 ] final  148.19 input   -0.00 | X-H torsion
[ 27223 17126 17125 17124 ] final -178.27 input    0.00 | X-H torsion
[ 27227 11604 11603 11602 ] final   32.68 input    0.00 | X-H torsion
[ 27231 17052 17051 17050 ] final  146.60 input   -0.00 | X-H torsion
[ 27233 18744 18743 18742 ] final   57.69 input   -0.00 | X-H torsion
[ 27235 18592 18591 18590 ] final  -99.57 input   -0.00 | X-H torsion
[ 27238 18918 18917 18916 ] final  111.11 input    0.00 | X-H torsion
[ 27240 19008 19007 19006 ] final -139.25 input    0.00 | X-H torsion
[ 27243 17178 17177 17176 ] final  -66.25 input    0.00 | X-H torsion
[ 27245 18364 18363 18362 ] final  -91.59 input    0.00 | X-H torsion
[ 27248 11412 11411 11410 ] final   23.76 input   -0.00 | X-H torsion
[ 27250 18206 18205 18204 ] final -115.81 input   -0.00 | X-H torsion
[ 27254 17222 17221 17220 ] final -101.78 input   -0.00 | X-H torsion
[ 27259 18316 18315 18314 ] final   17.80 input   -0.00 | X-H torsion
[ 27261 18456 18455 18454 ] final  115.90 input    0.00 | X-H torsion
[ 27264 18276 18275 18274 ] final   17.51 input    0.00 | X-H torsion
[ 27267 17016 17015 17014 ] final  117.25 input    0.00 | X-H torsion
[ 27275 16948 16947 16946 ] final   60.90 input   -0.00 | X-H torsion

> <Gold.Protein.ActiveResidues>
 TRP414  CYS420  VAL421  GLY422  LEU460  SER462  SER482  GLN483  ILE485  ARG486 
 TYR487  ASP500  ASN503  TRP566  TYR567  GLY568  LEU569  PRO570  ALA571  VAL572 
 SER573  ASN574  PHE589  SER590  GLY591  TRP592  TYR593  MET594  GLY595  THR596 
 GLU597  ILE598  GLY599  VAL600  ARG601  ASP602  TYR603  ARG608  ILE653  VAL654 
 TRP683  PRO687  HEM750  H4B760 

> <Gold.Protein.RotatedAtoms>
  232.1246   34.2580   20.0104 H   0  0  0  0  0  0  0  0  0  0  0  0  # atno 7475 bound_to 7455
  234.2662   35.4280   19.4729 H   0  0  0  0  0  0  0  0  0  0  0  0  # atno 7524 bound_to 7513
  229.7448   41.1520   13.2286 H   0  0  0  0  0  0  0  0  0  0  0  0  # atno 10105 bound_to 10094
  220.5516   24.7448    8.5115 H   0  0  0  0  0  0  0  0  0  0  0  0  # atno 11425 bound_to 11414
  220.0645   27.8141    8.1495 H   0  0  0  0  0  0  0  0  0  0  0  0  # atno 11477 bound_to 11459
  224.0415   24.4075    2.3371 H   0  0  0  0  0  0  0  0  0  0  0  0  # atno 11805 bound_to 11781
  231.1006   28.0401    2.3032 H   0  0  0  0  0  0  0  0  0  0  0  0  # atno 16987 bound_to 16945
  228.1993   26.5764    6.4358 H   0  0  0  0  0  0  0  0  0  0  0  0  # atno 16995 bound_to 16956
  226.3560   32.3156    8.8394 H   0  0  0  0  0  0  0  0  0  0  0  0  # atno 17195 bound_to 17175
  223.2704   33.2036   10.3125 H   0  0  0  0  0  0  0  0  0  0  0  0  # atno 17251 bound_to 17219
  220.9754   30.9749   10.3227 H   0  0  0  0  0  0  0  0  0  0  0  0  # atno 17303 bound_to 17281
  220.5115   36.6285   10.9929 H   0  0  0  0  0  0  0  0  0  0  0  0  # atno 18243 bound_to 18203
  224.2089   38.3278   10.5142 H   0  0  0  0  0  0  0  0  0  0  0  0  # atno 18295 bound_to 18273
  224.5241   38.4551    8.2830 H   0  0  0  0  0  0  0  0  0  0  0  0  # atno 18299 bound_to 18278
  227.7140   36.9549   11.6224 H   0  0  0  0  0  0  0  0  0  0  0  0  # atno 18327 bound_to 18313
  231.6749   36.7137   11.3076 H   0  0  0  0  0  0  0  0  0  0  0  0  # atno 18409 bound_to 18361
  233.7156   34.9628    9.8332 H   0  0  0  0  0  0  0  0  0  0  0  0  # atno 18495 bound_to 18453
  229.8232   28.6123    6.3597 H   0  0  0  0  0  0  0  0  0  0  0  0  # atno 18503 bound_to 18464
  235.4298   32.2193   10.6468 H   0  0  0  0  0  0  0  0  0  0  0  0  # atno 18563 bound_to 18529
  238.9207   31.1808   10.9026 H   0  0  0  0  0  0  0  0  0  0  0  0  # atno 18603 bound_to 18589
  238.5894   27.3339   15.4448 H   0  0  0  0  0  0  0  0  0  0  0  0  # atno 18657 bound_to 18629
  236.2743   27.3647   12.8201 H   0  0  0  0  0  0  0  0  0  0  0  0  # atno 18713 bound_to 18683
  234.7894   25.5225   10.3942 H   0  0  0  0  0  0  0  0  0  0  0  0  # atno 18779 bound_to 18741
  237.6682   25.3848    8.3256 H   0  0  0  0  0  0  0  0  0  0  0  0  # atno 18823 bound_to 18809
  238.5226   22.3090    9.6529 H   0  0  0  0  0  0  0  0  0  0  0  0  # atno 18875 bound_to 18843
  235.8976   22.4875   12.2596 H   0  0  0  0  0  0  0  0  0  0  0  0  # atno 18963 bound_to 18915
  232.9290   21.7837   10.7691 H   0  0  0  0  0  0  0  0  0  0  0  0  # atno 19029 bound_to 19005
  235.0815   20.7168    8.5701 H   0  0  0  0  0  0  0  0  0  0  0  0  # atno 19103 bound_to 19061
  238.1099   35.3659   10.2617 H   0  0  0  0  0  0  0  0  0  0  0  0  # atno 22447 bound_to 22415
  226.6870   26.4948    5.8410 LP  0  0  0  0  0  0  0  0  0  0  0  0  # atno 27193 bound_to 16956
  227.1570   27.7954    6.7094 LP  0  0  0  0  0  0  0  0  0  0  0  0  # atno 27194 bound_to 16956
  229.1686   28.8780    7.8252 LP  0  0  0  0  0  0  0  0  0  0  0  0  # atno 27195 bound_to 18464
  230.1913   27.6251    7.5994 LP  0  0  0  0  0  0  0  0  0  0  0  0  # atno 27196 bound_to 18464
  234.7354   32.2091   12.2542 LP  0  0  0  0  0  0  0  0  0  0  0  0  # atno 27197 bound_to 18529
  235.5111   29.4906   11.8051 LP  0  0  0  0  0  0  0  0  0  0  0  0  # atno 27198 bound_to 18532
  236.5301   28.7553   10.6130 LP  0  0  0  0  0  0  0  0  0  0  0  0  # atno 27199 bound_to 18532
  237.1552   23.9814   11.5128 LP  0  0  0  0  0  0  0  0  0  0  0  0  # atno 27200 bound_to 18626
  236.0250   24.1995   12.8070 LP  0  0  0  0  0  0  0  0  0  0  0  0  # atno 27201 bound_to 18626
  236.7246   26.3722   11.4597 LP  0  0  0  0  0  0  0  0  0  0  0  0  # atno 27202 bound_to 18683
  233.3747   24.2126    9.7442 LP  0  0  0  0  0  0  0  0  0  0  0  0  # atno 27203 bound_to 18686
  233.7109   23.9337   11.4203 LP  0  0  0  0  0  0  0  0  0  0  0  0  # atno 27204 bound_to 18686
  235.7124   26.8197    9.6739 LP  0  0  0  0  0  0  0  0  0  0  0  0  # atno 27209 bound_to 18741
  236.3020   21.1460   11.2228 LP  0  0  0  0  0  0  0  0  0  0  0  0  # atno 27210 bound_to 18915
  234.4287   21.5662    9.9018 LP  0  0  0  0  0  0  0  0  0  0  0  0  # atno 27211 bound_to 19005
  226.1694   34.4951    9.5755 LP  0  0  0  0  0  0  0  0  0  0  0  0  # atno 27223 bound_to 17126
  227.8858   34.3998    9.3636 LP  0  0  0  0  0  0  0  0  0  0  0  0  # atno 27224 bound_to 17126
  225.7083   32.2451    7.2237 LP  0  0  0  0  0  0  0  0  0  0  0  0  # atno 27225 bound_to 17175
  224.5010   31.9587   10.3826 LP  0  0  0  0  0  0  0  0  0  0  0  0  # atno 27226 bound_to 17219
  224.8872   29.1791    5.2052 LP  0  0  0  0  0  0  0  0  0  0  0  0  # atno 27227 bound_to 11604
  225.6859   27.7648    4.6036 LP  0  0  0  0  0  0  0  0  0  0  0  0  # atno 27228 bound_to 11604
  227.1786   31.5286    5.6837 LP  0  0  0  0  0  0  0  0  0  0  0  0  # atno 27231 bound_to 17052
  226.6293   32.7771    4.6162 LP  0  0  0  0  0  0  0  0  0  0  0  0  # atno 27232 bound_to 17052
  235.4509   22.7644    7.1105 LP  0  0  0  0  0  0  0  0  0  0  0  0  # atno 27233 bound_to 18744
  236.0234   22.1942    8.6426 LP  0  0  0  0  0  0  0  0  0  0  0  0  # atno 27234 bound_to 18744
  237.3075   26.6342    9.5548 LP  0  0  0  0  0  0  0  0  0  0  0  0  # atno 27235 bound_to 18592
  239.0004   26.4626    9.2313 LP  0  0  0  0  0  0  0  0  0  0  0  0  # atno 27236 bound_to 18592
  236.6228   24.1122    8.9082 LP  0  0  0  0  0  0  0  0  0  0  0  0  # atno 27237 bound_to 18809
  232.3894   19.1372   10.4849 LP  0  0  0  0  0  0  0  0  0  0  0  0  # atno 27238 bound_to 18918
  234.0698   18.7384   10.3543 LP  0  0  0  0  0  0  0  0  0  0  0  0  # atno 27239 bound_to 18918
  233.0389   18.4740    7.2033 LP  0  0  0  0  0  0  0  0  0  0  0  0  # atno 27240 bound_to 19008
  231.8123   19.6366    6.8241 LP  0  0  0  0  0  0  0  0  0  0  0  0  # atno 27241 bound_to 19008
  233.7853   20.7141    7.3991 LP  0  0  0  0  0  0  0  0  0  0  0  0  # atno 27242 bound_to 19061
  221.7682   32.5009    8.3050 LP  0  0  0  0  0  0  0  0  0  0  0  0  # atno 27243 bound_to 17178
  222.4207   30.9325    8.6429 LP  0  0  0  0  0  0  0  0  0  0  0  0  # atno 27244 bound_to 17178
  233.6115   35.2424   11.9028 LP  0  0  0  0  0  0  0  0  0  0  0  0  # atno 27245 bound_to 18364
  232.0872   34.4557   11.6628 LP  0  0  0  0  0  0  0  0  0  0  0  0  # atno 27246 bound_to 18364
  233.1752   34.1129    8.4049 LP  0  0  0  0  0  0  0  0  0  0  0  0  # atno 27247 bound_to 18453
  220.6422   28.0965   11.5724 LP  0  0  0  0  0  0  0  0  0  0  0  0  # atno 27248 bound_to 11412
  221.1593   29.3591   10.5053 LP  0  0  0  0  0  0  0  0  0  0  0  0  # atno 27249 bound_to 11412
  224.5784   34.9386   11.6452 LP  0  0  0  0  0  0  0  0  0  0  0  0  # atno 27250 bound_to 18206
  223.2635   34.8627   10.5204 LP  0  0  0  0  0  0  0  0  0  0  0  0  # atno 27251 bound_to 18206
  220.6517   33.5472   12.4560 LP  0  0  0  0  0  0  0  0  0  0  0  0  # atno 27254 bound_to 17222
  221.2220   33.9140   10.8622 LP  0  0  0  0  0  0  0  0  0  0  0  0  # atno 27255 bound_to 17222
  224.2121   36.9833   11.6255 LP  0  0  0  0  0  0  0  0  0  0  0  0  # atno 27256 bound_to 18273
  227.9167   37.0182    9.8863 LP  0  0  0  0  0  0  0  0  0  0  0  0  # atno 27257 bound_to 18313
  230.7545   37.3774    9.9748 LP  0  0  0  0  0  0  0  0  0  0  0  0  # atno 27258 bound_to 18361
  229.5740   38.4840    8.4634 LP  0  0  0  0  0  0  0  0  0  0  0  0  # atno 27259 bound_to 18316
  230.7065   37.2611    7.9923 LP  0  0  0  0  0  0  0  0  0  0  0  0  # atno 27260 bound_to 18316
  236.5214   34.5066   10.9935 LP  0  0  0  0  0  0  0  0  0  0  0  0  # atno 27261 bound_to 18456
  236.7634   33.6849    9.4881 LP  0  0  0  0  0  0  0  0  0  0  0  0  # atno 27262 bound_to 18456
  232.5292   35.5563   19.3240 LP  0  0  0  0  0  0  0  0  0  0  0  0  # atno 27263 bound_to 7513
  226.0159   39.4406   11.1109 LP  0  0  0  0  0  0  0  0  0  0  0  0  # atno 27264 bound_to 18276
  227.7268   39.6687   10.9670 LP  0  0  0  0  0  0  0  0  0  0  0  0  # atno 27265 bound_to 18276
  232.5844   32.6924   20.6367 LP  0  0  0  0  0  0  0  0  0  0  0  0  # atno 27266 bound_to 7455
  231.4607   34.9585    5.1775 LP  0  0  0  0  0  0  0  0  0  0  0  0  # atno 27267 bound_to 17016
  232.2148   33.4179    5.4181 LP  0  0  0  0  0  0  0  0  0  0  0  0  # atno 27268 bound_to 17016
  237.6596   30.1794   11.5772 LP  0  0  0  0  0  0  0  0  0  0  0  0  # atno 27269 bound_to 18589
  230.4197   42.2527   12.2392 LP  0  0  0  0  0  0  0  0  0  0  0  0  # atno 27270 bound_to 10094
  229.8280   40.8575   11.6310 LP  0  0  0  0  0  0  0  0  0  0  0  0  # atno 27271 bound_to 10094
  225.8379   38.3558    7.3275 LP  0  0  0  0  0  0  0  0  0  0  0  0  # atno 27272 bound_to 18278
  225.9640   38.9792    8.8315 LP  0  0  0  0  0  0  0  0  0  0  0  0  # atno 27273 bound_to 18278
  221.4452   27.2137    9.0538 LP  0  0  0  0  0  0  0  0  0  0  0  0  # atno 27274 bound_to 11459
  232.4867   29.8221    3.3786 LP  0  0  0  0  0  0  0  0  0  0  0  0  # atno 27275 bound_to 16948
  231.3297   30.8449    4.1630 LP  0  0  0  0  0  0  0  0  0  0  0  0  # atno 27276 bound_to 16948

> <Gold.Score>
     Fitness  S(hb_ext) S(vdw_ext)  S(hb_int)    S(int)      intcor
     45.32      11.08      25.33       0.00      -0.59      -0.76

> <Gold.Goldscore.Fitness>
45.3245

> <Gold.Goldscore.Internal.Vdw>
-0.7516

> <Gold.Goldscore.Internal.Torsion>
-0.6006

> <Gold.Goldscore.External.Vdw>
25.3347

> <Gold.Goldscore.Internal.HBond>
0.0000

> <Gold.Goldscore.External.HBond>
11.0829

> <Gold.Goldscore.Internal.Correction>
-0.7585

> <Gold.Goldscore.Hbonds>
donor molecule, donor type, donor heavy atom, donor atom, acceptor molecule, acceptor atom, score
      P1  H 17175 17195       L1     9  0.47
      P1  H 18313 18327       L1    17  0.05
      P1  M 26885 27277       L1    11  1.00
      L1  H     8    22       P1 17126  0.02

> <Gold.Goldscore.Internal.Vdw.Weighted>
-0.7516

> <Gold.Goldscore.Internal.Torsion.Weighted>
-0.6006

> <Gold.Goldscore.External.Vdw.Weighted>
34.8352

> <Gold.Goldscore.Internal.HBond.Weighted>
0.0000

> <Gold.Goldscore.External.HBond.Weighted>
11.0829

> <Gold.Goldscore.Internal.Correction.Weighted>
-0.7585

> <Gold.Rescore>
     Score     S(PLP)   S(hbond)     S(cho)   S(metal)  DE(clash)   DE(tors)     intcor
      7.54       0.62       1.50       0.00       1.00       0.00       1.17       ----

> <Gold.PLP.Fitness>
7.5438

> <Gold.PLP.PLP>
0.6159

> <Gold.PLP.part.hbond>
-2.4914

> <Gold.PLP.part.metal>
-0.4150

> <Gold.PLP.part.buried>
43.2778

> <Gold.PLP.part.nonpolar>
-51.9235

> <Gold.PLP.part.repulsive>
3.4039

> <Gold.PLP.ligand.clash>
0.0000

> <Gold.PLP.ligand.torsion>
1.1728

> <Gold.PLP.Chemscore.Hbond>
1.5018

> <Gold.PLP.Chemscore.CHOScore>
0.0000

> <Gold.PLP.Chemscore.Metal>
1.0000

> <Gold.Chemscore.Hbonds>
donor molecule, donor type, donor heavy atom, donor atom, acceptor molecule, acceptor atom, score
      L1  H     8    22       P1 17126  0.53
      P1  H 18313 18327       L1    17  0.47
      P1  M 26885 26885       L1    11  1.00

> <Gold.PLP.Chemscore.Internal.Correction>
   9.000000E+99

