#       Name:                CT1002167954
#       Creating user name   hitesit
#       Creation time:       Sun Apr 16 02:22:39 2023


#       File generated by GOLD software.
#

@<TRIPOS>MOLECULE
CT1002167954|ligand_prepared|mol2|1|dock5
    29    30     1
SMALL
NO_CHARGES


@<TRIPOS>ATOM
      1 C1          95.8572 271.5786 346.9513 C.3            1 RES1               0.0000
      2 C2          95.7983 272.0219 348.4274 C.ar           1 RES1               0.0000
      3 C3          97.1946 272.0734 346.4084 C.2            1 RES1               0.0000
      4 C4          95.7105 270.0610 346.9555 C.2            1 RES1               0.0000
      5 C5          94.7247 272.1657 346.0770 C.3            1 RES1               0.0000
      6 C6          96.3545 271.2303 349.4277 C.ar           1 RES1               0.0000
      7 C7          95.1947 273.2190 348.8032 C.ar           1 RES1               0.0000
      8 N8          98.1740 271.1472 346.2014 N.am           1 RES1               0.0000
      9 O9          97.3999 273.2632 346.2024 O.2            1 RES1               0.0000
     10 N10         96.7781 269.3116 346.5356 N.am           1 RES1               0.0000
     11 O11         94.6859 269.5070 347.3343 O.2            1 RES1               0.0000
     12 C12         94.5853 271.4922 344.7208 C.3            1 RES1               0.0000
     13 C13         96.3114 271.6224 350.7554 C.ar           1 RES1               0.0000
     14 C14         95.1525 273.6092 350.1316 C.ar           1 RES1               0.0000
     15 C15         98.0139 269.7849 346.1879 C.2            1 RES1               0.0000
     16 C16         95.7109 272.8122 351.1082 C.ar           1 RES1               0.0000
     17 O17         98.9410 269.0441 345.8734 O.2            1 RES1               0.0000
     18 H18         93.7752 272.0700 346.6180 H              1 RES1               0.0000
     19 H19         94.9161 273.2347 345.9223 H              1 RES1               0.0000
     20 H20         96.8291 270.2895 349.1695 H              1 RES1               0.0000
     21 H21         94.7479 273.8615 348.0521 H              1 RES1               0.0000
     22 H22         99.1123 271.5001 346.0420 H              1 RES1               0.0000
     23 H23         96.6386 268.3079 346.4767 H              1 RES1               0.0000
     24 H24         93.7770 271.9420 344.1481 H              1 RES1               0.0000
     25 H25         95.5036 271.5901 344.1454 H              1 RES1               0.0000
     26 H26         94.3694 270.4322 344.8370 H              1 RES1               0.0000
     27 H27         96.7511 270.9909 351.5203 H              1 RES1               0.0000
     28 H28         94.6783 274.5461 350.4047 H              1 RES1               0.0000
     29 H29         95.6776 273.1193 352.1482 H              1 RES1               0.0000
@<TRIPOS>BOND
    1    1    2 1     
    2    1    3 1     
    3    1    4 1     
    4    1    5 1     
    5    2    6 ar    
    6    2    7 ar    
    7    3    8 1     
    8    3    9 2     
    9    4   10 1     
   10    4   11 2     
   11    5   12 1     
   12    5   18 1     
   13    5   19 1     
   14    6   13 ar    
   15    6   20 1     
   16    7   14 ar    
   17    7   21 1     
   18    8   15 1     
   19    8   22 1     
   20   10   15 1     
   21   10   23 1     
   22   12   24 1     
   23   12   25 1     
   24   12   26 1     
   25   13   16 ar    
   26   13   27 1     
   27   14   16 ar    
   28   14   28 1     
   29   15   17 2     
   30   16   29 1     
@<TRIPOS>SUBSTRUCTURE
      1 RES1           1
@<TRIPOS>SET
DONOR_HYDROGENS      STATIC     ATOMS    <user>   **** ""
2 22 23
ATOM$RED        STATIC     ATOMS    COLORGROUP SYSTEM
2 22 23
@<TRIPOS>COMMENT
> <Gold.Version>
2022.3.0

> <Gold.Id.Protein>
unknown|5uo4_clean|pdb

> <Gold.Protein.RotatedTorsions>
[   11    1    2    3 ] final  -56.33 input   60.01 | X-H torsion

> <Gold.Protein.ActiveResidues>
 CYS302  PRO303  ARG304  PHE305  LEU306  HIS322  LEU323 

> <Gold.Protein.RotatedAtoms>
  101.7192  271.2234  342.5123 H   0  0  0  0  0  0  0  0  0  0  0  0  # atno 11   bound_to 1   
  101.6826  271.2543  344.1691 H   0  0  0  0  0  0  0  0  0  0  0  0  # atno 12   bound_to 1   
  103.1218  271.2587  343.3707 LP  0  0  0  0  0  0  0  0  0  0  0  0  # atno 13528 bound_to 1   

> <Gold.Score>
     Fitness  S(hb_ext) S(vdw_ext)  S(hb_int)    S(int)      intcor
     16.60       6.00       7.94       0.00      -0.32      -0.76

> <Gold.Goldscore.Fitness>
16.5962

> <Gold.Goldscore.Internal.Vdw>
-0.4400

> <Gold.Goldscore.Internal.Torsion>
-0.6396

> <Gold.Goldscore.External.Vdw>
7.9398

> <Gold.Goldscore.Internal.HBond>
0.0000

> <Gold.Goldscore.External.HBond>
6.0000

> <Gold.Goldscore.Internal.Correction>
-0.7585

> <Gold.Goldscore.Hbonds>
donor molecule, donor type, donor heavy atom, donor atom, acceptor molecule, acceptor atom, score
      P1  H    34    59       L1    11  1.00

> <Gold.Goldscore.Internal.Vdw.Weighted>
-0.4400

> <Gold.Goldscore.Internal.Torsion.Weighted>
-0.6396

> <Gold.Goldscore.External.Vdw.Weighted>
10.9173

> <Gold.Goldscore.Internal.HBond.Weighted>
0.0000

> <Gold.Goldscore.External.HBond.Weighted>
6.0000

> <Gold.Goldscore.Internal.Correction.Weighted>
-0.7585

> <Gold.Rescore>
     Score     S(PLP)   S(hbond)     S(cho)   S(metal)  DE(clash)   DE(tors)     intcor
     12.07     -12.24       0.67       0.00       0.00       0.00       1.08       ----

> <Gold.PLP.Fitness>
12.0736

> <Gold.PLP.PLP>
-12.2411

> <Gold.PLP.part.hbond>
-1.9664

> <Gold.PLP.part.metal>
0.0000

> <Gold.PLP.part.buried>
-2.8908

> <Gold.PLP.part.nonpolar>
-7.2401

> <Gold.PLP.part.repulsive>
0.1992

> <Gold.PLP.ligand.clash>
0.0000

> <Gold.PLP.ligand.torsion>
1.0829

> <Gold.PLP.Chemscore.Hbond>
0.6661

> <Gold.PLP.Chemscore.CHOScore>
0.0000

> <Gold.PLP.Chemscore.Metal>
0.0000

> <Gold.Chemscore.Hbonds>
donor molecule, donor type, donor heavy atom, donor atom, acceptor molecule, acceptor atom, score
      P1  H    34    59       L1    11  0.59

> <Gold.PLP.Chemscore.Internal.Correction>
   9.000000E+99

