#       Name:                CT1002167954
#       Creating user name   hitesit
#       Creation time:       Sun Apr 16 02:22:41 2023


#       File generated by GOLD software.
#

@<TRIPOS>MOLECULE
CT1002167954|ligand_prepared|mol2|1|dock10
    29    30     1
SMALL
NO_CHARGES


@<TRIPOS>ATOM
      1 C1          98.3653 271.5021 346.4414 C.3            1 RES1               0.0000
      2 C2          98.6561 271.9242 344.9868 C.ar           1 RES1               0.0000
      3 C3          97.1121 272.2620 346.8657 C.2            1 RES1               0.0000
      4 C4          98.1969 269.9869 346.4204 C.2            1 RES1               0.0000
      5 C5          99.5045 271.8424 347.4304 C.3            1 RES1               0.0000
      6 C6          98.0203 271.2893 343.9241 C.ar           1 RES1               0.0000
      7 C7          99.5540 272.9469 344.6924 C.ar           1 RES1               0.0000
      8 N8          95.9480 271.5579 346.9606 N.am           1 RES1               0.0000
      9 O9          97.1367 273.4685 347.0755 O.2            1 RES1               0.0000
     10 N10         96.9627 269.4738 346.7224 N.am           1 RES1               0.0000
     11 O11         99.1175 269.2334 346.1287 O.2            1 RES1               0.0000
     12 C12         99.3339 271.2108 348.8030 C.3            1 RES1               0.0000
     13 C13         98.2707 271.6649 342.6147 C.ar           1 RES1               0.0000
     14 C14         99.8032 273.3208 343.3823 C.ar           1 RES1               0.0000
     15 C15         95.8228 270.1919 346.9615 C.2            1 RES1               0.0000
     16 C16         99.1619 272.6811 342.3429 C.ar           1 RES1               0.0000
     17 O17         94.7374 269.6582 347.1721 O.2            1 RES1               0.0000
     18 H18        100.4564 271.5049 347.0022 H              1 RES1               0.0000
     19 H19         99.5570 272.9319 347.5472 H              1 RES1               0.0000
     20 H20         97.3177 270.4858 344.1184 H              1 RES1               0.0000
     21 H21        100.0709 273.4634 345.4940 H              1 RES1               0.0000
     22 H22         95.0913 272.0968 347.0379 H              1 RES1               0.0000
     23 H23         96.8867 268.4629 346.7738 H              1 RES1               0.0000
     24 H24        100.1598 271.4815 349.4575 H              1 RES1               0.0000
     25 H25         98.4090 271.5445 349.2689 H              1 RES1               0.0000
     26 H26         99.3031 270.1259 348.7272 H              1 RES1               0.0000
     27 H27         97.7645 271.1574 341.8003 H              1 RES1               0.0000
     28 H28        100.5058 274.1207 343.1730 H              1 RES1               0.0000
     29 H29         99.3576 272.9754 341.3171 H              1 RES1               0.0000
@<TRIPOS>BOND
    1    1    2 1     
    2    1    3 1     
    3    1    4 1     
    4    1    5 1     
    5    2    6 ar    
    6    2    7 ar    
    7    3    8 1     
    8    3    9 2     
    9    4   10 1     
   10    4   11 2     
   11    5   12 1     
   12    5   18 1     
   13    5   19 1     
   14    6   13 ar    
   15    6   20 1     
   16    7   14 ar    
   17    7   21 1     
   18    8   15 1     
   19    8   22 1     
   20   10   15 1     
   21   10   23 1     
   22   12   24 1     
   23   12   25 1     
   24   12   26 1     
   25   13   16 ar    
   26   13   27 1     
   27   14   16 ar    
   28   14   28 1     
   29   15   17 2     
   30   16   29 1     
@<TRIPOS>SUBSTRUCTURE
      1 RES1           1
@<TRIPOS>SET
DONOR_HYDROGENS      STATIC     ATOMS    <user>   **** ""
2 22 23
ATOM$RED        STATIC     ATOMS    COLORGROUP SYSTEM
2 22 23
@<TRIPOS>COMMENT
> <Gold.Version>
2022.3.0

> <Gold.Id.Protein>
unknown|5uo4_clean|pdb

> <Gold.Protein.RotatedTorsions>
[   11    1    2    3 ] final  -52.99 input   60.01 | X-H torsion

> <Gold.Protein.ActiveResidues>
 CYS302  PRO303  ARG304  PHE305  LEU306  HIS322  LEU323 

> <Gold.Protein.RotatedAtoms>
  101.6712  271.2231  342.5405 H   0  0  0  0  0  0  0  0  0  0  0  0  # atno 11   bound_to 1   
  101.7311  271.2557  344.1966 H   0  0  0  0  0  0  0  0  0  0  0  0  # atno 12   bound_to 1   
  103.1213  271.2577  343.3158 LP  0  0  0  0  0  0  0  0  0  0  0  0  # atno 13528 bound_to 1   

> <Gold.Score>
     Fitness  S(hb_ext) S(vdw_ext)  S(hb_int)    S(int)      intcor
     22.26       6.00      11.98       0.00      -0.22      -0.76

> <Gold.Goldscore.Fitness>
22.2551

> <Gold.Goldscore.Internal.Vdw>
-0.4397

> <Gold.Goldscore.Internal.Torsion>
-0.5347

> <Gold.Goldscore.External.Vdw>
11.9789

> <Gold.Goldscore.Internal.HBond>
0.0000

> <Gold.Goldscore.External.HBond>
6.0000

> <Gold.Goldscore.Internal.Correction>
-0.7585

> <Gold.Goldscore.Hbonds>
donor molecule, donor type, donor heavy atom, donor atom, acceptor molecule, acceptor atom, score
      P1  H    34    59       L1    17  1.00

> <Gold.Goldscore.Internal.Vdw.Weighted>
-0.4397

> <Gold.Goldscore.Internal.Torsion.Weighted>
-0.5347

> <Gold.Goldscore.External.Vdw.Weighted>
16.4710

> <Gold.Goldscore.Internal.HBond.Weighted>
0.0000

> <Gold.Goldscore.External.HBond.Weighted>
6.0000

> <Gold.Goldscore.Internal.Correction.Weighted>
-0.7585

> <Gold.Rescore>
     Score     S(PLP)   S(hbond)     S(cho)   S(metal)  DE(clash)   DE(tors)     intcor
      9.73      -8.08       0.98       0.00       0.00       0.00       0.64       ----

> <Gold.PLP.Fitness>
9.7251

> <Gold.PLP.PLP>
-8.0820

> <Gold.PLP.part.hbond>
-1.0000

> <Gold.PLP.part.metal>
0.0000

> <Gold.PLP.part.buried>
-2.9479

> <Gold.PLP.part.nonpolar>
-3.8455

> <Gold.PLP.part.repulsive>
0.1007

> <Gold.PLP.ligand.clash>
0.0000

> <Gold.PLP.ligand.torsion>
0.6424

> <Gold.PLP.Chemscore.Hbond>
0.9760

> <Gold.PLP.Chemscore.CHOScore>
0.0000

> <Gold.PLP.Chemscore.Metal>
0.0000

> <Gold.Chemscore.Hbonds>
donor molecule, donor type, donor heavy atom, donor atom, acceptor molecule, acceptor atom, score
      P1  H    34    59       L1    17  1.00

> <Gold.PLP.Chemscore.Internal.Correction>
   9.000000E+99

