#       Name:                CT1002167954
#       Creating user name   hitesit
#       Creation time:       Sun Apr 16 02:22:40 2023


#       File generated by GOLD software.
#

@<TRIPOS>MOLECULE
CT1002167954|ligand_prepared|mol2|1|dock6
    29    30     1
SMALL
NO_CHARGES


@<TRIPOS>ATOM
      1 C1         100.6292 271.0614 348.6909 C.3            1 RES1               0.0000
      2 C2         101.6713 270.0198 349.1469 C.ar           1 RES1               0.0000
      3 C3         100.6964 271.0960 347.1669 C.2            1 RES1               0.0000
      4 C4          99.2878 270.5931 349.2441 C.2            1 RES1               0.0000
      5 C5         100.8954 272.4875 349.2268 C.3            1 RES1               0.0000
      6 C6         102.0172 268.9549 348.3204 C.ar           1 RES1               0.0000
      7 C7         102.2960 270.1119 350.3878 C.ar           1 RES1               0.0000
      8 N8          99.6746 270.5141 346.4761 N.am           1 RES1               0.0000
      9 O9         101.6508 271.5913 346.5805 O.2            1 RES1               0.0000
     10 N10         98.3227 270.2104 348.3496 N.am           1 RES1               0.0000
     11 O11         99.0635 270.5363 350.4469 O.2            1 RES1               0.0000
     12 C12        100.0558 273.5619 348.5539 C.3            1 RES1               0.0000
     13 C13        102.9559 268.0176 348.7187 C.ar           1 RES1               0.0000
     14 C14        103.2343 269.1733 350.7842 C.ar           1 RES1               0.0000
     15 C15         98.4659 270.1205 346.9918 C.2            1 RES1               0.0000
     16 C16        103.5654 268.1263 349.9505 C.ar           1 RES1               0.0000
     17 O17         97.5690 269.7153 346.2580 O.2            1 RES1               0.0000
     18 H18        100.6915 272.5034 350.3046 H              1 RES1               0.0000
     19 H19        101.9562 272.7266 349.0826 H              1 RES1               0.0000
     20 H20        101.5464 268.8516 347.3485 H              1 RES1               0.0000
     21 H21        102.0505 270.9265 351.0606 H              1 RES1               0.0000
     22 H22         99.8228 270.3570 345.4843 H              1 RES1               0.0000
     23 H23         97.4133 269.9704 348.7314 H              1 RES1               0.0000
     24 H24        100.2817 274.5428 348.9668 H              1 RES1               0.0000
     25 H25        100.2519 273.5912 347.4841 H              1 RES1               0.0000
     26 H26         98.9947 273.3694 348.6988 H              1 RES1               0.0000
     27 H27        103.2119 267.1948 348.0594 H              1 RES1               0.0000
     28 H28        103.7110 269.2624 351.7548 H              1 RES1               0.0000
     29 H29        104.3009 267.3922 350.2621 H              1 RES1               0.0000
@<TRIPOS>BOND
    1    1    2 1     
    2    1    3 1     
    3    1    4 1     
    4    1    5 1     
    5    2    6 ar    
    6    2    7 ar    
    7    3    8 1     
    8    3    9 2     
    9    4   10 1     
   10    4   11 2     
   11    5   12 1     
   12    5   18 1     
   13    5   19 1     
   14    6   13 ar    
   15    6   20 1     
   16    7   14 ar    
   17    7   21 1     
   18    8   15 1     
   19    8   22 1     
   20   10   15 1     
   21   10   23 1     
   22   12   24 1     
   23   12   25 1     
   24   12   26 1     
   25   13   16 ar    
   26   13   27 1     
   27   14   16 ar    
   28   14   28 1     
   29   15   17 2     
   30   16   29 1     
@<TRIPOS>SUBSTRUCTURE
      1 RES1           1
@<TRIPOS>SET
DONOR_HYDROGENS      STATIC     ATOMS    <user>   **** ""
2 22 23
ATOM$RED        STATIC     ATOMS    COLORGROUP SYSTEM
2 22 23
@<TRIPOS>COMMENT
> <Gold.Version>
2022.3.0

> <Gold.Id.Protein>
unknown|5uo4_clean|pdb

> <Gold.Protein.RotatedTorsions>
[   11    1    2    3 ] final   -8.63 input   60.01 | X-H torsion

> <Gold.Protein.ActiveResidues>
 CYS302  PRO303  ARG304  PHE305  LEU306  HIS322  LEU323 

> <Gold.Protein.RotatedAtoms>
  101.2494  271.2272  343.1269 H   0  0  0  0  0  0  0  0  0  0  0  0  # atno 11   bound_to 1   
  102.4504  271.2693  344.2685 H   0  0  0  0  0  0  0  0  0  0  0  0  # atno 12   bound_to 1   
  102.8286  271.2402  342.6670 LP  0  0  0  0  0  0  0  0  0  0  0  0  # atno 13528 bound_to 1   

> <Gold.Score>
     Fitness  S(hb_ext) S(vdw_ext)  S(hb_int)    S(int)      intcor
     23.76       1.26      16.89       0.00      -0.73      -0.76

> <Gold.Goldscore.Fitness>
23.7555

> <Gold.Goldscore.Internal.Vdw>
-0.8877

> <Gold.Goldscore.Internal.Torsion>
-0.6034

> <Gold.Goldscore.External.Vdw>
16.8905

> <Gold.Goldscore.Internal.HBond>
0.0000

> <Gold.Goldscore.External.HBond>
1.2637

> <Gold.Goldscore.Internal.Correction>
-0.7585

> <Gold.Goldscore.Hbonds>
donor molecule, donor type, donor heavy atom, donor atom, acceptor molecule, acceptor atom, score
      P1  H     1    12       L1     9  0.32
      L1  H     8    22       P1     4  0.31

> <Gold.Goldscore.Internal.Vdw.Weighted>
-0.8877

> <Gold.Goldscore.Internal.Torsion.Weighted>
-0.6034

> <Gold.Goldscore.External.Vdw.Weighted>
23.2245

> <Gold.Goldscore.Internal.HBond.Weighted>
0.0000

> <Gold.Goldscore.External.HBond.Weighted>
1.2637

> <Gold.Goldscore.Internal.Correction.Weighted>
-0.7585

> <Gold.Rescore>
     Score     S(PLP)   S(hbond)     S(cho)   S(metal)  DE(clash)   DE(tors)     intcor
     30.68     -26.80       2.00       0.00       0.00       0.00       1.06       ----

> <Gold.PLP.Fitness>
30.6804

> <Gold.PLP.PLP>
-26.8033

> <Gold.PLP.part.hbond>
-2.0000

> <Gold.PLP.part.metal>
0.0000

> <Gold.PLP.part.buried>
-3.1706

> <Gold.PLP.part.nonpolar>
-21.8869

> <Gold.PLP.part.repulsive>
0.1974

> <Gold.PLP.ligand.clash>
0.0000

> <Gold.PLP.ligand.torsion>
1.0615

> <Gold.PLP.Chemscore.Hbond>
2.0000

> <Gold.PLP.Chemscore.CHOScore>
0.0000

> <Gold.PLP.Chemscore.Metal>
0.0000

> <Gold.Chemscore.Hbonds>
donor molecule, donor type, donor heavy atom, donor atom, acceptor molecule, acceptor atom, score
      L1  H     8    22       P1     4  1.00
      P1  H     1    12       L1     9  0.07

> <Gold.PLP.Chemscore.Internal.Correction>
   9.000000E+99

