#       Name:                CT1002167954
#       Creating user name   hitesit
#       Creation time:       Sun Apr 16 02:22:38 2023


#       File generated by GOLD software.
#

@<TRIPOS>MOLECULE
CT1002167954|ligand_prepared|mol2|1|dock2
    29    30     1
SMALL
NO_CHARGES


@<TRIPOS>ATOM
      1 C1          98.3651 271.5050 346.5167 C.3            1 RES1               0.0000
      2 C2          98.6939 271.9372 345.0731 C.ar           1 RES1               0.0000
      3 C3          97.1037 272.2656 346.9149 C.2            1 RES1               0.0000
      4 C4          98.1929 269.9905 346.4799 C.2            1 RES1               0.0000
      5 C5          99.4799 271.8344 347.5367 C.3            1 RES1               0.0000
      6 C6          98.0235 271.3698 343.9936 C.ar           1 RES1               0.0000
      7 C7          99.6613 272.9021 344.8058 C.ar           1 RES1               0.0000
      8 N8          95.9356 271.5643 346.9750 N.am           1 RES1               0.0000
      9 O9          97.1264 273.4704 347.1343 O.2            1 RES1               0.0000
     10 N10         96.9500 269.4790 346.7467 N.am           1 RES1               0.0000
     11 O11         99.1184 269.2365 346.2060 O.2            1 RES1               0.0000
     12 C12         99.2660 271.2037 348.9037 C.3            1 RES1               0.0000
     13 C13         98.3078 271.7552 342.6940 C.ar           1 RES1               0.0000
     14 C14         99.9443 273.2859 343.5054 C.ar           1 RES1               0.0000
     15 C15         95.8064 270.1987 346.9624 C.2            1 RES1               0.0000
     16 C16         99.2679 272.7137 342.4490 C.ar           1 RES1               0.0000
     17 O17         94.7146 269.6669 347.1414 O.2            1 RES1               0.0000
     18 H18        100.4400 271.4885 347.1345 H              1 RES1               0.0000
     19 H19         99.5390 272.9234 347.6557 H              1 RES1               0.0000
     20 H20         97.2664 270.6122 344.1667 H              1 RES1               0.0000
     21 H21        100.2068 273.3650 345.6211 H              1 RES1               0.0000
     22 H22         95.0788 272.1053 347.0347 H              1 RES1               0.0000
     23 H23         96.8698 268.4680 346.7886 H              1 RES1               0.0000
     24 H24        100.0762 271.4665 349.5807 H              1 RES1               0.0000
     25 H25         98.3318 271.5455 349.3444 H              1 RES1               0.0000
     26 H26         99.2274 270.1191 348.8262 H              1 RES1               0.0000
     27 H27         97.7736 271.3009 341.8660 H              1 RES1               0.0000
     28 H28        100.7012 274.0402 343.3172 H              1 RES1               0.0000
     29 H29         99.4902 273.0158 341.4309 H              1 RES1               0.0000
@<TRIPOS>BOND
    1    1    2 1     
    2    1    3 1     
    3    1    4 1     
    4    1    5 1     
    5    2    6 ar    
    6    2    7 ar    
    7    3    8 1     
    8    3    9 2     
    9    4   10 1     
   10    4   11 2     
   11    5   12 1     
   12    5   18 1     
   13    5   19 1     
   14    6   13 ar    
   15    6   20 1     
   16    7   14 ar    
   17    7   21 1     
   18    8   15 1     
   19    8   22 1     
   20   10   15 1     
   21   10   23 1     
   22   12   24 1     
   23   12   25 1     
   24   12   26 1     
   25   13   16 ar    
   26   13   27 1     
   27   14   16 ar    
   28   14   28 1     
   29   15   17 2     
   30   16   29 1     
@<TRIPOS>SUBSTRUCTURE
      1 RES1           1
@<TRIPOS>SET
DONOR_HYDROGENS      STATIC     ATOMS    <user>   **** ""
2 22 23
ATOM$RED        STATIC     ATOMS    COLORGROUP SYSTEM
2 22 23
@<TRIPOS>COMMENT
> <Gold.Version>
2022.3.0

> <Gold.Id.Protein>
unknown|5uo4_clean|pdb

> <Gold.Protein.RotatedTorsions>
[   11    1    2    3 ] final  -47.44 input   60.01 | X-H torsion

> <Gold.Protein.ActiveResidues>
 CYS302  PRO303  ARG304  PHE305  LEU306  HIS322  LEU323 

> <Gold.Protein.RotatedAtoms>
  101.5951  271.2228  342.5935 H   0  0  0  0  0  0  0  0  0  0  0  0  # atno 11   bound_to 1   
  101.8151  271.2579  344.2359 H   0  0  0  0  0  0  0  0  0  0  0  0  # atno 12   bound_to 1   
  103.1136  271.2558  343.2248 LP  0  0  0  0  0  0  0  0  0  0  0  0  # atno 13528 bound_to 1   

> <Gold.Score>
     Fitness  S(hb_ext) S(vdw_ext)  S(hb_int)    S(int)      intcor
     22.16       6.00      11.83       0.00      -0.11      -0.76

> <Gold.Goldscore.Fitness>
22.1574

> <Gold.Goldscore.Internal.Vdw>
-0.3561

> <Gold.Goldscore.Internal.Torsion>
-0.5178

> <Gold.Goldscore.External.Vdw>
11.8335

> <Gold.Goldscore.Internal.HBond>
0.0000

> <Gold.Goldscore.External.HBond>
6.0000

> <Gold.Goldscore.Internal.Correction>
-0.7603

> <Gold.Goldscore.Hbonds>
donor molecule, donor type, donor heavy atom, donor atom, acceptor molecule, acceptor atom, score
      P1  H    34    59       L1    17  1.00

> <Gold.Goldscore.Internal.Vdw.Weighted>
-0.3561

> <Gold.Goldscore.Internal.Torsion.Weighted>
-0.5178

> <Gold.Goldscore.External.Vdw.Weighted>
16.2711

> <Gold.Goldscore.Internal.HBond.Weighted>
0.0000

> <Gold.Goldscore.External.HBond.Weighted>
6.0000

> <Gold.Goldscore.Internal.Correction.Weighted>
-0.7603

> <Gold.Rescore>
     Score     S(PLP)   S(hbond)     S(cho)   S(metal)  DE(clash)   DE(tors)     intcor
      8.39      -7.87       0.96       0.00       0.00       0.00       1.18       ----

> <Gold.PLP.Fitness>
8.3944

> <Gold.PLP.PLP>
-7.8696

> <Gold.PLP.part.hbond>
-1.0000

> <Gold.PLP.part.metal>
0.0000

> <Gold.PLP.part.buried>
-2.5149

> <Gold.PLP.part.nonpolar>
-4.7192

> <Gold.PLP.part.repulsive>
0.1212

> <Gold.PLP.ligand.clash>
0.0000

> <Gold.PLP.ligand.torsion>
1.1776

> <Gold.PLP.Chemscore.Hbond>
0.9600

> <Gold.PLP.Chemscore.CHOScore>
0.0000

> <Gold.PLP.Chemscore.Metal>
0.0000

> <Gold.Chemscore.Hbonds>
donor molecule, donor type, donor heavy atom, donor atom, acceptor molecule, acceptor atom, score
      P1  H    34    59       L1    17  1.00

> <Gold.PLP.Chemscore.Internal.Correction>
   9.000000E+99

