#       Name:                CT1002167954
#       Creating user name   hitesit
#       Creation time:       Sun Apr 16 02:22:38 2023


#       File generated by GOLD software.
#

@<TRIPOS>MOLECULE
CT1002167954|ligand_prepared|mol2|1|dock1
    29    30     1
SMALL
NO_CHARGES


@<TRIPOS>ATOM
      1 C1          98.4968 271.0332 346.9878 C.3            1 RES1               0.0000
      2 C2          99.5408 270.6720 348.0641 C.ar           1 RES1               0.0000
      3 C3          97.8655 269.7167 346.5444 C.2            1 RES1               0.0000
      4 C4          97.5202 272.0001 347.6482 C.2            1 RES1               0.0000
      5 C5          99.0961 271.7334 345.7460 C.3            1 RES1               0.0000
      6 C6          99.1396 270.2986 349.3433 C.ar           1 RES1               0.0000
      7 C7         100.9059 270.7050 347.7925 C.ar           1 RES1               0.0000
      8 N8          96.5965 269.4505 346.9671 N.am           1 RES1               0.0000
      9 O9          98.4861 268.9067 345.8670 O.2            1 RES1               0.0000
     10 N10         96.2255 271.5861 347.8223 N.am           1 RES1               0.0000
     11 O11         97.8642 273.1104 348.0345 O.2            1 RES1               0.0000
     12 C12         98.0536 272.1990 344.7418 C.3            1 RES1               0.0000
     13 C13        100.0694 269.9672 350.3150 C.ar           1 RES1               0.0000
     14 C14        101.8341 270.3735 348.7657 C.ar           1 RES1               0.0000
     15 C15         95.7269 270.3437 347.5395 C.2            1 RES1               0.0000
     16 C16        101.4171 270.0040 350.0267 C.ar           1 RES1               0.0000
     17 O17         94.5638 270.0290 347.7749 O.2            1 RES1               0.0000
     18 H18         99.6797 272.6012 346.0773 H              1 RES1               0.0000
     19 H19         99.7825 271.0389 345.2460 H              1 RES1               0.0000
     20 H20         98.0835 270.2662 349.5893 H              1 RES1               0.0000
     21 H21        101.2571 270.9938 346.8076 H              1 RES1               0.0000
     22 H22         96.2633 268.4993 346.8466 H              1 RES1               0.0000
     23 H23         95.5731 272.2673 348.1972 H              1 RES1               0.0000
     24 H24         98.5273 272.6832 343.8904 H              1 RES1               0.0000
     25 H25         97.4711 271.3576 344.3723 H              1 RES1               0.0000
     26 H26         97.3689 272.9106 345.1986 H              1 RES1               0.0000
     27 H27         99.7361 269.6784 351.3063 H              1 RES1               0.0000
     28 H28        102.8937 270.4044 348.5346 H              1 RES1               0.0000
     29 H29        102.1452 269.7440 350.7879 H              1 RES1               0.0000
@<TRIPOS>BOND
    1    1    2 1     
    2    1    3 1     
    3    1    4 1     
    4    1    5 1     
    5    2    6 ar    
    6    2    7 ar    
    7    3    8 1     
    8    3    9 2     
    9    4   10 1     
   10    4   11 2     
   11    5   12 1     
   12    5   18 1     
   13    5   19 1     
   14    6   13 ar    
   15    6   20 1     
   16    7   14 ar    
   17    7   21 1     
   18    8   15 1     
   19    8   22 1     
   20   10   15 1     
   21   10   23 1     
   22   12   24 1     
   23   12   25 1     
   24   12   26 1     
   25   13   16 ar    
   26   13   27 1     
   27   14   16 ar    
   28   14   28 1     
   29   15   17 2     
   30   16   29 1     
@<TRIPOS>SUBSTRUCTURE
      1 RES1           1
@<TRIPOS>SET
DONOR_HYDROGENS      STATIC     ATOMS    <user>   **** ""
2 22 23
ATOM$RED        STATIC     ATOMS    COLORGROUP SYSTEM
2 22 23
@<TRIPOS>COMMENT
> <Gold.Version>
2022.3.0

> <Gold.Id.Protein>
unknown|5uo4_clean|pdb

> <Gold.Protein.RotatedTorsions>
[   11    1    2    3 ] final  -35.19 input   60.01 | X-H torsion

> <Gold.Protein.ActiveResidues>
 CYS302  PRO303  ARG304  PHE305  LEU306  HIS322  LEU323 

> <Gold.Protein.RotatedAtoms>
  101.4478  271.2230  342.7346 H   0  0  0  0  0  0  0  0  0  0  0  0  # atno 11   bound_to 1   
  102.0112  271.2623  344.2930 H   0  0  0  0  0  0  0  0  0  0  0  0  # atno 12   bound_to 1   
  103.0657  271.2512  343.0295 LP  0  0  0  0  0  0  0  0  0  0  0  0  # atno 13528 bound_to 1   

> <Gold.Score>
     Fitness  S(hb_ext) S(vdw_ext)  S(hb_int)    S(int)      intcor
     25.90       6.00      14.56       0.00      -0.13      -0.76

> <Gold.Goldscore.Fitness>
25.8958

> <Gold.Goldscore.Internal.Vdw>
-0.4780

> <Gold.Goldscore.Internal.Torsion>
-0.4078

> <Gold.Goldscore.External.Vdw>
14.5609

> <Gold.Goldscore.Internal.HBond>
0.0000

> <Gold.Goldscore.External.HBond>
6.0000

> <Gold.Goldscore.Internal.Correction>
-0.7603

> <Gold.Goldscore.Hbonds>
donor molecule, donor type, donor heavy atom, donor atom, acceptor molecule, acceptor atom, score
      P1  H    34    59       L1    17  1.00

> <Gold.Goldscore.Internal.Vdw.Weighted>
-0.4780

> <Gold.Goldscore.Internal.Torsion.Weighted>
-0.4078

> <Gold.Goldscore.External.Vdw.Weighted>
20.0212

> <Gold.Goldscore.Internal.HBond.Weighted>
0.0000

> <Gold.Goldscore.External.HBond.Weighted>
6.0000

> <Gold.Goldscore.Internal.Correction.Weighted>
-0.7603

> <Gold.Rescore>
     Score     S(PLP)   S(hbond)     S(cho)   S(metal)  DE(clash)   DE(tors)     intcor
     15.86     -16.60       0.00       0.00       0.00       0.00       0.37       ----

> <Gold.PLP.Fitness>
15.8555

> <Gold.PLP.PLP>
-16.5966

> <Gold.PLP.part.hbond>
-1.0000

> <Gold.PLP.part.metal>
0.0000

> <Gold.PLP.part.buried>
-3.1127

> <Gold.PLP.part.nonpolar>
-12.8546

> <Gold.PLP.part.repulsive>
0.2340

> <Gold.PLP.ligand.clash>
0.0000

> <Gold.PLP.ligand.torsion>
0.3706

> <Gold.PLP.Chemscore.Hbond>
0.0000

> <Gold.PLP.Chemscore.CHOScore>
0.0000

> <Gold.PLP.Chemscore.Metal>
0.0000

> <Gold.Chemscore.Hbonds>
donor molecule, donor type, donor heavy atom, donor atom, acceptor molecule, acceptor atom, score
      P1  H    34    59       L1    17  1.00

> <Gold.PLP.Chemscore.Internal.Correction>
   9.000000E+99

