#       Name:                CT1002167954
#       Creating user name   hitesit
#       Creation time:       Sun Apr 16 02:22:41 2023


#       File generated by GOLD software.
#

@<TRIPOS>MOLECULE
CT1002167954|ligand_prepared|mol2|1|dock9
    29    30     1
SMALL
NO_CHARGES


@<TRIPOS>ATOM
      1 C1          95.7448 271.5238 346.0751 C.3            1 RES1               0.0000
      2 C2          94.8113 271.4784 344.8482 C.ar           1 RES1               0.0000
      3 C3          95.7861 270.1048 346.6347 C.2            1 RES1               0.0000
      4 C4          97.0901 272.0324 345.5691 C.2            1 RES1               0.0000
      5 C5          95.2626 272.4784 347.1921 C.3            1 RES1               0.0000
      6 C6          94.2288 272.6432 344.3576 C.ar           1 RES1               0.0000
      7 C7          94.5259 270.2819 344.1960 C.ar           1 RES1               0.0000
      8 N8          96.9211 269.3772 346.4288 N.am           1 RES1               0.0000
      9 O9          94.8227 269.6179 347.2135 O.2            1 RES1               0.0000
     10 N10         98.1588 271.1759 345.6148 N.am           1 RES1               0.0000
     11 O11         97.2306 273.1615 345.1157 O.2            1 RES1               0.0000
     12 C12         96.0488 272.3530 348.4876 C.3            1 RES1               0.0000
     13 C13         93.3936 272.6134 343.2531 C.ar           1 RES1               0.0000
     14 C14         93.6901 270.2542 343.0918 C.ar           1 RES1               0.0000
     15 C15         98.1284 269.8613 345.9932 C.2            1 RES1               0.0000
     16 C16         93.1241 271.4191 342.6193 C.ar           1 RES1               0.0000
     17 O17         99.1207 269.1394 345.9554 O.2            1 RES1               0.0000
     18 H18         95.3394 273.5115 346.8312 H              1 RES1               0.0000
     19 H19         94.2051 272.2735 347.3997 H              1 RES1               0.0000
     20 H20         94.4274 273.5920 344.8448 H              1 RES1               0.0000
     21 H21         94.9592 269.3529 344.5508 H              1 RES1               0.0000
     22 H22         96.8671 268.3810 346.6159 H              1 RES1               0.0000
     23 H23         99.0606 271.5533 345.3415 H              1 RES1               0.0000
     24 H24         95.6699 273.0444 349.2373 H              1 RES1               0.0000
     25 H25         95.9737 271.3442 348.8883 H              1 RES1               0.0000
     26 H26         97.1012 272.5749 348.3231 H              1 RES1               0.0000
     27 H27         92.9495 273.5327 342.8860 H              1 RES1               0.0000
     28 H28         93.4803 269.3120 342.5965 H              1 RES1               0.0000
     29 H29         92.4700 271.3961 341.7539 H              1 RES1               0.0000
@<TRIPOS>BOND
    1    1    2 1     
    2    1    3 1     
    3    1    4 1     
    4    1    5 1     
    5    2    6 ar    
    6    2    7 ar    
    7    3    8 1     
    8    3    9 2     
    9    4   10 1     
   10    4   11 2     
   11    5   12 1     
   12    5   18 1     
   13    5   19 1     
   14    6   13 ar    
   15    6   20 1     
   16    7   14 ar    
   17    7   21 1     
   18    8   15 1     
   19    8   22 1     
   20   10   15 1     
   21   10   23 1     
   22   12   24 1     
   23   12   25 1     
   24   12   26 1     
   25   13   16 ar    
   26   13   27 1     
   27   14   16 ar    
   28   14   28 1     
   29   15   17 2     
   30   16   29 1     
@<TRIPOS>SUBSTRUCTURE
      1 RES1           1
@<TRIPOS>SET
DONOR_HYDROGENS      STATIC     ATOMS    <user>   **** ""
2 22 23
ATOM$RED        STATIC     ATOMS    COLORGROUP SYSTEM
2 22 23
@<TRIPOS>COMMENT
> <Gold.Version>
2022.3.0

> <Gold.Id.Protein>
unknown|5uo4_clean|pdb

> <Gold.Protein.RotatedTorsions>
[   11    1    2    3 ] final   62.73 input   60.01 | X-H torsion

> <Gold.Protein.ActiveResidues>
 CYS302  PRO303  ARG304  PHE305  LEU306  HIS322  LEU323 

> <Gold.Protein.RotatedAtoms>
  101.6698  271.2541  344.1601 H   0  0  0  0  0  0  0  0  0  0  0  0  # atno 11   bound_to 1   
  103.1358  271.2642  343.3867 H   0  0  0  0  0  0  0  0  0  0  0  0  # atno 12   bound_to 1   
  101.7393  271.2187  342.5171 LP  0  0  0  0  0  0  0  0  0  0  0  0  # atno 13528 bound_to 1   

> <Gold.Score>
     Fitness  S(hb_ext) S(vdw_ext)  S(hb_int)    S(int)      intcor
     16.97       6.00       8.74       0.00      -1.05      -0.76

> <Gold.Goldscore.Fitness>
16.9659

> <Gold.Goldscore.Internal.Vdw>
-1.2858

> <Gold.Goldscore.Internal.Torsion>
-0.5184

> <Gold.Goldscore.External.Vdw>
8.7358

> <Gold.Goldscore.Internal.HBond>
0.0000

> <Gold.Goldscore.External.HBond>
5.9998

> <Gold.Goldscore.Internal.Correction>
-0.7585

> <Gold.Goldscore.Hbonds>
donor molecule, donor type, donor heavy atom, donor atom, acceptor molecule, acceptor atom, score
      P1  H    34    59       L1     9  1.00

> <Gold.Goldscore.Internal.Vdw.Weighted>
-1.2858

> <Gold.Goldscore.Internal.Torsion.Weighted>
-0.5184

> <Gold.Goldscore.External.Vdw.Weighted>
12.0118

> <Gold.Goldscore.Internal.HBond.Weighted>
0.0000

> <Gold.Goldscore.External.HBond.Weighted>
5.9998

> <Gold.Goldscore.Internal.Correction.Weighted>
-0.7585

> <Gold.Rescore>
     Score     S(PLP)   S(hbond)     S(cho)   S(metal)  DE(clash)   DE(tors)     intcor
     19.24     -18.17       1.00       0.00       0.00       0.00       0.96       ----

> <Gold.PLP.Fitness>
19.2439

> <Gold.PLP.PLP>
-18.1734

> <Gold.PLP.part.hbond>
-1.0000

> <Gold.PLP.part.metal>
0.0000

> <Gold.PLP.part.buried>
-1.8952

> <Gold.PLP.part.nonpolar>
-15.2569

> <Gold.PLP.part.repulsive>
0.2158

> <Gold.PLP.ligand.clash>
0.0000

> <Gold.PLP.ligand.torsion>
0.9647

> <Gold.PLP.Chemscore.Hbond>
1.0000

> <Gold.PLP.Chemscore.CHOScore>
0.0000

> <Gold.PLP.Chemscore.Metal>
0.0000

> <Gold.Chemscore.Hbonds>
donor molecule, donor type, donor heavy atom, donor atom, acceptor molecule, acceptor atom, score
      P1  H    34    59       L1     9  1.00

> <Gold.PLP.Chemscore.Internal.Correction>
   9.000000E+99

