#       Name:                CT1002167954
#       Creating user name   hitesit
#       Creation time:       Sun Apr 16 02:22:40 2023


#       File generated by GOLD software.
#

@<TRIPOS>MOLECULE
CT1002167954|ligand_prepared|mol2|1|dock7
    29    30     1
SMALL
NO_CHARGES


@<TRIPOS>ATOM
      1 C1          95.7978 271.5167 346.3245 C.3            1 RES1               0.0000
      2 C2          95.6253 272.3929 347.5819 C.ar           1 RES1               0.0000
      3 C3          97.1024 271.9600 345.6690 C.2            1 RES1               0.0000
      4 C4          95.8052 270.0712 346.8096 C.2            1 RES1               0.0000
      5 C5          94.6541 271.6693 345.2948 C.3            1 RES1               0.0000
      6 C6          94.9308 273.5972 347.5166 C.ar           1 RES1               0.0000
      7 C7          96.1517 272.0098 348.8127 C.ar           1 RES1               0.0000
      8 N8          98.1791 271.1302 345.7797 N.am           1 RES1               0.0000
      9 O9          97.1959 273.0395 345.0977 O.2            1 RES1               0.0000
     10 N10         96.9616 269.3507 346.6633 N.am           1 RES1               0.0000
     11 O11         94.8251 269.5548 347.3323 O.2            1 RES1               0.0000
     12 C12         94.6735 270.6178 344.1966 C.3            1 RES1               0.0000
     13 C13         94.7659 274.3883 348.6414 C.ar           1 RES1               0.0000
     14 C14         95.9858 272.8025 349.9363 C.ar           1 RES1               0.0000
     15 C15         98.1582 269.8241 346.1984 C.2            1 RES1               0.0000
     16 C16         95.2928 273.9914 349.8520 C.ar           1 RES1               0.0000
     17 O17         99.1691 269.1294 346.1475 O.2            1 RES1               0.0000
     18 H18         93.6941 271.6113 345.8223 H              1 RES1               0.0000
     19 H19         94.7241 272.6623 344.8340 H              1 RES1               0.0000
     20 H20         94.5112 273.9271 346.5721 H              1 RES1               0.0000
     21 H21         96.7015 271.0790 348.9024 H              1 RES1               0.0000
     22 H22         99.0833 271.5166 345.5279 H              1 RES1               0.0000
     23 H23         96.9271 268.3706 346.9251 H              1 RES1               0.0000
     24 H24         93.8506 270.7707 343.5016 H              1 RES1               0.0000
     25 H25         95.6043 270.6636 343.6351 H              1 RES1               0.0000
     26 H26         94.5804 269.6187 344.6175 H              1 RES1               0.0000
     27 H27         94.2209 275.3237 348.5695 H              1 RES1               0.0000
     28 H28         96.4028 272.4866 350.8868 H              1 RES1               0.0000
     29 H29         95.1632 274.6111 350.7331 H              1 RES1               0.0000
@<TRIPOS>BOND
    1    1    2 1     
    2    1    3 1     
    3    1    4 1     
    4    1    5 1     
    5    2    6 ar    
    6    2    7 ar    
    7    3    8 1     
    8    3    9 2     
    9    4   10 1     
   10    4   11 2     
   11    5   12 1     
   12    5   18 1     
   13    5   19 1     
   14    6   13 ar    
   15    6   20 1     
   16    7   14 ar    
   17    7   21 1     
   18    8   15 1     
   19    8   22 1     
   20   10   15 1     
   21   10   23 1     
   22   12   24 1     
   23   12   25 1     
   24   12   26 1     
   25   13   16 ar    
   26   13   27 1     
   27   14   16 ar    
   28   14   28 1     
   29   15   17 2     
   30   16   29 1     
@<TRIPOS>SUBSTRUCTURE
      1 RES1           1
@<TRIPOS>SET
DONOR_HYDROGENS      STATIC     ATOMS    <user>   **** ""
2 22 23
ATOM$RED        STATIC     ATOMS    COLORGROUP SYSTEM
2 22 23
@<TRIPOS>COMMENT
> <Gold.Version>
2022.3.0

> <Gold.Id.Protein>
unknown|5uo4_clean|pdb

> <Gold.Protein.RotatedTorsions>
[   11    1    2    3 ] final  -27.47 input   60.01 | X-H torsion

> <Gold.Protein.ActiveResidues>
 CYS302  PRO303  ARG304  PHE305  LEU306  HIS322  LEU323 

> <Gold.Protein.RotatedAtoms>
  101.3716  271.2237  342.8385 H   0  0  0  0  0  0  0  0  0  0  0  0  # atno 11   bound_to 1   
  102.1393  271.2648  344.3070 H   0  0  0  0  0  0  0  0  0  0  0  0  # atno 12   bound_to 1   
  103.0145  271.2481  342.9133 LP  0  0  0  0  0  0  0  0  0  0  0  0  # atno 13528 bound_to 1   

> <Gold.Score>
     Fitness  S(hb_ext) S(vdw_ext)  S(hb_int)    S(int)      intcor
     17.20       6.00       8.59       0.00      -0.61      -0.76

> <Gold.Goldscore.Fitness>
17.2043

> <Gold.Goldscore.Internal.Vdw>
-0.8019

> <Gold.Goldscore.Internal.Torsion>
-0.5691

> <Gold.Goldscore.External.Vdw>
8.5941

> <Gold.Goldscore.Internal.HBond>
0.0000

> <Gold.Goldscore.External.HBond>
6.0000

> <Gold.Goldscore.Internal.Correction>
-0.7585

> <Gold.Goldscore.Hbonds>
donor molecule, donor type, donor heavy atom, donor atom, acceptor molecule, acceptor atom, score
      P1  H    34    59       L1    11  1.00

> <Gold.Goldscore.Internal.Vdw.Weighted>
-0.8019

> <Gold.Goldscore.Internal.Torsion.Weighted>
-0.5691

> <Gold.Goldscore.External.Vdw.Weighted>
11.8169

> <Gold.Goldscore.Internal.HBond.Weighted>
0.0000

> <Gold.Goldscore.External.HBond.Weighted>
6.0000

> <Gold.Goldscore.Internal.Correction.Weighted>
-0.7585

> <Gold.Rescore>
     Score     S(PLP)   S(hbond)     S(cho)   S(metal)  DE(clash)   DE(tors)     intcor
     16.18     -14.88       1.00       0.00       0.00       0.23       0.74       ----

> <Gold.PLP.Fitness>
16.1830

> <Gold.PLP.PLP>
-14.8847

> <Gold.PLP.part.hbond>
-2.4180

> <Gold.PLP.part.metal>
0.0000

> <Gold.PLP.part.buried>
-2.6169

> <Gold.PLP.part.nonpolar>
-9.6863

> <Gold.PLP.part.repulsive>
0.2432

> <Gold.PLP.ligand.clash>
0.2301

> <Gold.PLP.ligand.torsion>
0.7358

> <Gold.PLP.Chemscore.Hbond>
1.0000

> <Gold.PLP.Chemscore.CHOScore>
0.0000

> <Gold.PLP.Chemscore.Metal>
0.0000

> <Gold.Chemscore.Hbonds>
donor molecule, donor type, donor heavy atom, donor atom, acceptor molecule, acceptor atom, score
      P1  H    34    59       L1    11  0.86

> <Gold.PLP.Chemscore.Internal.Correction>
   9.000000E+99

