#       Name:                CT1002167954
#       Creating user name   hitesit
#       Creation time:       Sun Apr 16 20:15:56 2023


#       File generated by GOLD software.
#

@<TRIPOS>MOLECULE
CT1002167954|ligand_prepared|mol2|1|dock1
    29    30     1
SMALL
NO_CHARGES


@<TRIPOS>ATOM
      1 C1          26.6034   9.6313  -2.7515 C.3            1 RES1               0.0000
      2 C2          28.0974   9.9246  -2.9978 C.ar           1 RES1               0.0000
      3 C3          26.4773   9.2586  -1.2773 C.2            1 RES1               0.0000
      4 C4          25.8502  10.8989  -3.1394 C.2            1 RES1               0.0000
      5 C5          26.0469   8.4658  -3.6021 C.3            1 RES1               0.0000
      6 C6          28.5651  10.1905  -4.2813 C.ar           1 RES1               0.0000
      7 C7          29.0178   9.9353  -1.9532 C.ar           1 RES1               0.0000
      8 N8          25.9172  10.1771  -0.4390 N.am           1 RES1               0.0000
      9 O9          26.8988   8.1910  -0.8497 O.2            1 RES1               0.0000
     10 N10         25.1990  11.5873  -2.1495 N.am           1 RES1               0.0000
     11 O11         25.8286  11.3170  -4.2905 O.2            1 RES1               0.0000
     12 C12         24.6254   8.0661  -3.2392 C.3            1 RES1               0.0000
     13 C13         29.9039  10.4603  -4.5117 C.ar           1 RES1               0.0000
     14 C14         30.3563  10.2051  -2.1858 C.ar           1 RES1               0.0000
     15 C15         25.2240  11.3006  -0.8118 C.2            1 RES1               0.0000
     16 C16         30.8002  10.4683  -3.4643 C.ar           1 RES1               0.0000
     17 O17         24.6578  11.9986   0.0245 O.2            1 RES1               0.0000
     18 H18         26.0729   8.7566  -4.6596 H              1 RES1               0.0000
     19 H19         26.7013   7.5942  -3.4779 H              1 RES1               0.0000
     20 H20         27.8750  10.1862  -5.1184 H              1 RES1               0.0000
     21 H21         28.6913   9.7300  -0.9393 H              1 RES1               0.0000
     22 H22         26.0238  10.0136   0.5571 H              1 RES1               0.0000
     23 H23         24.6442  12.3874  -2.4364 H              1 RES1               0.0000
     24 H24         24.2839   7.2447  -3.8656 H              1 RES1               0.0000
     25 H25         24.5677   7.7469  -2.2006 H              1 RES1               0.0000
     26 H26         23.9429   8.9025  -3.3752 H              1 RES1               0.0000
     27 H27         30.2485  10.6654  -5.5199 H              1 RES1               0.0000
     28 H28         31.0583  10.2097  -1.3585 H              1 RES1               0.0000
     29 H29         31.8489  10.6801  -3.6450 H              1 RES1               0.0000
@<TRIPOS>BOND
    1    1    2 1     
    2    1    3 1     
    3    1    4 1     
    4    1    5 1     
    5    2    6 ar    
    6    2    7 ar    
    7    3    8 1     
    8    3    9 2     
    9    4   10 1     
   10    4   11 2     
   11    5   12 1     
   12    5   18 1     
   13    5   19 1     
   14    6   13 ar    
   15    6   20 1     
   16    7   14 ar    
   17    7   21 1     
   18    8   15 1     
   19    8   22 1     
   20   10   15 1     
   21   10   23 1     
   22   12   24 1     
   23   12   25 1     
   24   12   26 1     
   25   13   16 ar    
   26   13   27 1     
   27   14   16 ar    
   28   14   28 1     
   29   15   17 2     
   30   16   29 1     
@<TRIPOS>SUBSTRUCTURE
      1 RES1           1
@<TRIPOS>SET
DONOR_HYDROGENS      STATIC     ATOMS    <user>   **** ""
2 22 23
ATOM$RED        STATIC     ATOMS    COLORGROUP SYSTEM
2 22 23
@<TRIPOS>COMMENT
> <Gold.Version>
2022.3.0

> <Gold.Id.Protein>
unknown|3nx8_clean|pdb

> <Gold.Protein.RotatedTorsions>
[  550  544  542  539 ] final   93.68 input   60.01 | X-H torsion
[ 2770 2763 2761 2758 ] final  114.04 input   60.01 | X-H torsion
[ 5056 5047 5046 5044 ] final   14.40 input   59.99 | X-H torsion
[ 1860 1855 1854 1851 ] final  149.09 input   60.02 | X-H torsion
[  567  564  563  560 ] final -130.53 input   60.03 | X-H torsion
[ 2460 2451 2450 2448 ] final -102.47 input   59.99 | X-H torsion
[ 2535 2524 2523 2522 ] final  109.80 input   60.02 | X-H torsion

> <Gold.Protein.ActiveResidues>
 THR48   LEU49   GLY50   THR51   GLY52   SER53   PHE54   GLY55   ARG56   VAL57  
 MET58   ALA70   LYS72   GLU91   VAL104  MET120  TYR122  VAL123  GLY126  GLU127 
 MET128  PHE129  SER130  TYR164  ASP166  LYS168  PRO169  GLU170  ASN171  LEU172 
 LEU173  GLN181  VAL182  THR183  ASP184  PHE185  GLY186  ASN326  PHE327  ASP328 
 TYR330 

> <Gold.Protein.RotatedAtoms>
   19.6406   11.0942   -4.7292 H   0  0  0  0  0  0  0  0  0  0  0  0  # atno 550  bound_to 544 
   22.3555    8.5849    3.7637 H   0  0  0  0  0  0  0  0  0  0  0  0  # atno 567  bound_to 564 
   26.9200    5.1018  -12.0740 H   0  0  0  0  0  0  0  0  0  0  0  0  # atno 1860 bound_to 1855
   25.4614    3.0585    2.7252 H   0  0  0  0  0  0  0  0  0  0  0  0  # atno 2460 bound_to 2451
   19.2095    4.3734   -0.1733 H   0  0  0  0  0  0  0  0  0  0  0  0  # atno 2535 bound_to 2524
   19.1291    4.7471   -1.7862 H   0  0  0  0  0  0  0  0  0  0  0  0  # atno 2536 bound_to 2524
   18.5468    3.2934   -1.2418 H   0  0  0  0  0  0  0  0  0  0  0  0  # atno 2537 bound_to 2524
   30.5160    8.6077    0.3316 H   0  0  0  0  0  0  0  0  0  0  0  0  # atno 2770 bound_to 2763
   23.8045    9.9963   -9.5550 H   0  0  0  0  0  0  0  0  0  0  0  0  # atno 5056 bound_to 5047
   20.8674   11.1077   -5.7984 LP  0  0  0  0  0  0  0  0  0  0  0  0  # atno 5356 bound_to 544 
   19.6181   12.1450   -5.9717 LP  0  0  0  0  0  0  0  0  0  0  0  0  # atno 5357 bound_to 544 
   29.4348    8.0996    1.4371 LP  0  0  0  0  0  0  0  0  0  0  0  0  # atno 5378 bound_to 2763
   28.9308    8.5877   -0.0375 LP  0  0  0  0  0  0  0  0  0  0  0  0  # atno 5379 bound_to 2763
   22.2905    9.7680  -10.1060 LP  0  0  0  0  0  0  0  0  0  0  0  0  # atno 5382 bound_to 5047
   22.5475   10.0895   -8.5258 LP  0  0  0  0  0  0  0  0  0  0  0  0  # atno 5383 bound_to 5047
   25.7437    4.2135  -11.3843 LP  0  0  0  0  0  0  0  0  0  0  0  0  # atno 5388 bound_to 1855
   25.4295    5.0877  -12.7273 LP  0  0  0  0  0  0  0  0  0  0  0  0  # atno 5389 bound_to 1855
   21.7064   10.0142    4.1935 LP  0  0  0  0  0  0  0  0  0  0  0  0  # atno 5398 bound_to 564 
   22.1311    9.7413    2.6405 LP  0  0  0  0  0  0  0  0  0  0  0  0  # atno 5399 bound_to 564 
   26.6633    2.1434    2.1194 LP  0  0  0  0  0  0  0  0  0  0  0  0  # atno 5400 bound_to 2451
   27.0097    3.4364    3.0547 LP  0  0  0  0  0  0  0  0  0  0  0  0  # atno 5401 bound_to 2451

> <Gold.Score>
     Fitness  S(hb_ext) S(vdw_ext)  S(hb_int)    S(int)      intcor
     42.67       0.00      32.54       0.00      -2.07      -0.86

> <Gold.Goldscore.Fitness>
42.6725

> <Gold.Goldscore.Internal.Vdw>
-2.4829

> <Gold.Goldscore.Internal.Torsion>
-0.4500

> <Gold.Goldscore.External.Vdw>
32.5390

> <Gold.Goldscore.Internal.HBond>
0.0000

> <Gold.Goldscore.External.HBond>
0.0000

> <Gold.Goldscore.Internal.Correction>
-0.8644

> <Gold.Goldscore.Internal.Vdw.Weighted>
-2.4829

> <Gold.Goldscore.Internal.Torsion.Weighted>
-0.4500

> <Gold.Goldscore.External.Vdw.Weighted>
44.7411

> <Gold.Goldscore.Internal.HBond.Weighted>
0.0000

> <Gold.Goldscore.External.HBond.Weighted>
0.0000

> <Gold.Goldscore.Internal.Correction.Weighted>
-0.8644

> <Gold.Rescore>
     Score     S(PLP)   S(hbond)     S(cho)   S(metal)  DE(clash)   DE(tors)     intcor
     23.75     -24.35       0.30       0.00       0.00       1.36       0.08       ----

> <Gold.PLP.Fitness>
23.7484

> <Gold.PLP.PLP>
-24.3549

> <Gold.PLP.part.hbond>
-2.6303

> <Gold.PLP.part.metal>
0.0000

> <Gold.PLP.part.buried>
9.3299

> <Gold.PLP.part.nonpolar>
-34.8300

> <Gold.PLP.part.repulsive>
2.7191

> <Gold.PLP.ligand.clash>
1.3550

> <Gold.PLP.ligand.torsion>
0.0827

> <Gold.PLP.Chemscore.Hbond>
0.3047

> <Gold.PLP.Chemscore.CHOScore>
0.0000

> <Gold.PLP.Chemscore.Metal>
0.0000

> <Gold.PLP.Chemscore.Internal.Correction>
   9.000000E+99

