#       Name:                CT1002167954
#       Creating user name   hitesit
#       Creation time:       Sun Apr 16 20:16:03 2023


#       File generated by GOLD software.
#

@<TRIPOS>MOLECULE
CT1002167954|ligand_prepared|mol2|1|dock6
    29    30     1
SMALL
NO_CHARGES


@<TRIPOS>ATOM
      1 C1          26.8743   9.3861  -3.4923 C.3            1 RES1               0.0000
      2 C2          27.0101   9.6150  -1.9732 C.ar           1 RES1               0.0000
      3 C3          26.9193   7.8756  -3.7037 C.2            1 RES1               0.0000
      4 C4          25.5568  10.0331  -3.9051 C.2            1 RES1               0.0000
      5 C5          28.0056  10.0326  -4.3253 C.3            1 RES1               0.0000
      6 C6          28.2584   9.8352  -1.3986 C.ar           1 RES1               0.0000
      7 C7          25.8981   9.6116  -1.1353 C.ar           1 RES1               0.0000
      8 N8          25.7499   7.2459  -4.0136 N.am           1 RES1               0.0000
      9 O9          27.9573   7.2412  -3.5618 O.2            1 RES1               0.0000
     10 N10         24.5552   9.2162  -4.3604 N.am           1 RES1               0.0000
     11 O11         25.3712  11.2411  -3.8245 O.2            1 RES1               0.0000
     12 C12         27.7331  10.0488  -5.8211 C.3            1 RES1               0.0000
     13 C13         28.3899  10.0471  -0.0362 C.ar           1 RES1               0.0000
     14 C14         26.0319   9.8235   0.2269 C.ar           1 RES1               0.0000
     15 C15         24.5814   7.8489  -4.4044 C.2            1 RES1               0.0000
     16 C16         27.2769  10.0419   0.7773 C.ar           1 RES1               0.0000
     17 O17         23.6206   7.1809  -4.7755 O.2            1 RES1               0.0000
     18 H18         28.1517  11.0641  -3.9818 H              1 RES1               0.0000
     19 H19         28.9372   9.4830  -4.1421 H              1 RES1               0.0000
     20 H20         29.1459   9.8404  -2.0226 H              1 RES1               0.0000
     21 H21         24.9088   9.4408  -1.5462 H              1 RES1               0.0000
     22 H22         25.7437   6.2329  -3.9486 H              1 RES1               0.0000
     23 H23         23.7120   9.6694  -4.6980 H              1 RES1               0.0000
     24 H24         28.5576  10.5128  -6.3584 H              1 RES1               0.0000
     25 H25         27.6076   9.0371  -6.2014 H              1 RES1               0.0000
     26 H26         26.8268  10.6088  -6.0420 H              1 RES1               0.0000
     27 H27         29.3721  10.2172   0.3923 H              1 RES1               0.0000
     28 H28         25.1533   9.8180   0.8635 H              1 RES1               0.0000
     29 H29         27.3802  10.2084   1.8445 H              1 RES1               0.0000
@<TRIPOS>BOND
    1    1    2 1     
    2    1    3 1     
    3    1    4 1     
    4    1    5 1     
    5    2    6 ar    
    6    2    7 ar    
    7    3    8 1     
    8    3    9 2     
    9    4   10 1     
   10    4   11 2     
   11    5   12 1     
   12    5   18 1     
   13    5   19 1     
   14    6   13 ar    
   15    6   20 1     
   16    7   14 ar    
   17    7   21 1     
   18    8   15 1     
   19    8   22 1     
   20   10   15 1     
   21   10   23 1     
   22   12   24 1     
   23   12   25 1     
   24   12   26 1     
   25   13   16 ar    
   26   13   27 1     
   27   14   16 ar    
   28   14   28 1     
   29   15   17 2     
   30   16   29 1     
@<TRIPOS>SUBSTRUCTURE
      1 RES1           1
@<TRIPOS>SET
DONOR_HYDROGENS      STATIC     ATOMS    <user>   **** ""
2 22 23
ATOM$RED        STATIC     ATOMS    COLORGROUP SYSTEM
2 22 23
@<TRIPOS>COMMENT
> <Gold.Version>
2022.3.0

> <Gold.Id.Protein>
unknown|3nx8_clean|pdb

> <Gold.Protein.RotatedTorsions>
[  550  544  542  539 ] final   88.66 input   60.01 | X-H torsion
[ 2770 2763 2761 2758 ] final   66.68 input   60.01 | X-H torsion
[ 5056 5047 5046 5044 ] final -112.62 input   59.99 | X-H torsion
[ 1860 1855 1854 1851 ] final   67.12 input   60.02 | X-H torsion
[  567  564  563  560 ] final   -2.72 input   60.03 | X-H torsion
[ 2460 2451 2450 2448 ] final   95.24 input   59.99 | X-H torsion
[ 2535 2524 2523 2522 ] final   -5.01 input   60.02 | X-H torsion

> <Gold.Protein.ActiveResidues>
 THR48   LEU49   GLY50   THR51   GLY52   SER53   PHE54   GLY55   ARG56   VAL57  
 MET58   ALA70   LYS72   GLU91   VAL104  MET120  TYR122  VAL123  GLY126  GLU127 
 MET128  PHE129  SER130  TYR164  ASP166  LYS168  PRO169  GLU170  ASN171  LEU172 
 LEU173  GLN181  VAL182  THR183  ASP184  PHE185  GLY186  ASN326  PHE327  ASP328 
 TYR330 

> <Gold.Protein.RotatedAtoms>
   19.7048   11.0435   -4.7235 H   0  0  0  0  0  0  0  0  0  0  0  0  # atno 550  bound_to 544 
   22.0771    9.8476    2.6875 H   0  0  0  0  0  0  0  0  0  0  0  0  # atno 567  bound_to 564 
   26.3357    4.3461  -11.3018 H   0  0  0  0  0  0  0  0  0  0  0  0  # atno 1860 bound_to 1855
   27.1868    2.4822    2.3853 H   0  0  0  0  0  0  0  0  0  0  0  0  # atno 2460 bound_to 2451
   18.5523    3.2771   -1.1571 H   0  0  0  0  0  0  0  0  0  0  0  0  # atno 2535 bound_to 2524
   19.2389    4.4475   -0.2053 H   0  0  0  0  0  0  0  0  0  0  0  0  # atno 2536 bound_to 2524
   19.0932    4.6875   -1.8393 H   0  0  0  0  0  0  0  0  0  0  0  0  # atno 2537 bound_to 2524
   30.4426    8.3446    1.0326 H   0  0  0  0  0  0  0  0  0  0  0  0  # atno 2770 bound_to 2763
   22.2102    9.7800  -10.0242 H   0  0  0  0  0  0  0  0  0  0  0  0  # atno 5056 bound_to 5047
   20.8632   11.1623   -5.8603 LP  0  0  0  0  0  0  0  0  0  0  0  0  # atno 5356 bound_to 544 
   19.5575   12.1414   -5.9156 LP  0  0  0  0  0  0  0  0  0  0  0  0  # atno 5357 bound_to 544 
   28.8219    8.1971    1.0031 LP  0  0  0  0  0  0  0  0  0  0  0  0  # atno 5378 bound_to 2763
   29.6176    8.7550   -0.3092 LP  0  0  0  0  0  0  0  0  0  0  0  0  # atno 5379 bound_to 2763
   22.6572   10.1044   -8.4935 LP  0  0  0  0  0  0  0  0  0  0  0  0  # atno 5382 bound_to 5047
   23.7860    9.9709   -9.6659 LP  0  0  0  0  0  0  0  0  0  0  0  0  # atno 5383 bound_to 5047
   25.1373    4.7097  -12.3411 LP  0  0  0  0  0  0  0  0  0  0  0  0  # atno 5388 bound_to 1855
   26.6242    5.3523  -12.5479 LP  0  0  0  0  0  0  0  0  0  0  0  0  # atno 5389 bound_to 1855
   22.3901    8.5666    3.6416 LP  0  0  0  0  0  0  0  0  0  0  0  0  # atno 5398 bound_to 564 
   21.7276    9.9178    4.2756 LP  0  0  0  0  0  0  0  0  0  0  0  0  # atno 5399 bound_to 564 
   26.3756    3.6482    3.1796 LP  0  0  0  0  0  0  0  0  0  0  0  0  # atno 5400 bound_to 2451
   25.5604    2.5118    2.3367 LP  0  0  0  0  0  0  0  0  0  0  0  0  # atno 5401 bound_to 2451

> <Gold.Score>
     Fitness  S(hb_ext) S(vdw_ext)  S(hb_int)    S(int)      intcor
     41.46       1.24      29.66       0.00      -0.56      -0.77

> <Gold.Goldscore.Fitness>
41.4589

> <Gold.Goldscore.Internal.Vdw>
-0.7614

> <Gold.Goldscore.Internal.Torsion>
-0.5686

> <Gold.Goldscore.External.Vdw>
29.6634

> <Gold.Goldscore.Internal.HBond>
0.0000

> <Gold.Goldscore.External.HBond>
1.2366

> <Gold.Goldscore.Internal.Correction>
-0.7653

> <Gold.Goldscore.Hbonds>
donor molecule, donor type, donor heavy atom, donor atom, acceptor molecule, acceptor atom, score
      L1  H     8    22       P1  2555  0.61
      L1  H    10    23       P1   541  0.01

> <Gold.Goldscore.Internal.Vdw.Weighted>
-0.7614

> <Gold.Goldscore.Internal.Torsion.Weighted>
-0.5686

> <Gold.Goldscore.External.Vdw.Weighted>
40.7871

> <Gold.Goldscore.Internal.HBond.Weighted>
0.0000

> <Gold.Goldscore.External.HBond.Weighted>
1.2366

> <Gold.Goldscore.Internal.Correction.Weighted>
-0.7653

> <Gold.Rescore>
     Score     S(PLP)   S(hbond)     S(cho)   S(metal)  DE(clash)   DE(tors)     intcor
     24.15     -22.63       1.05       0.00       0.00       0.00       0.82       ----

> <Gold.PLP.Fitness>
24.1496

> <Gold.PLP.PLP>
-22.6336

> <Gold.PLP.part.hbond>
-3.0000

> <Gold.PLP.part.metal>
0.0000

> <Gold.PLP.part.buried>
13.5077

> <Gold.PLP.part.nonpolar>
-37.3901

> <Gold.PLP.part.repulsive>
3.0643

> <Gold.PLP.ligand.clash>
0.0000

> <Gold.PLP.ligand.torsion>
0.8164

> <Gold.PLP.Chemscore.Hbond>
1.0496

> <Gold.PLP.Chemscore.CHOScore>
0.0000

> <Gold.PLP.Chemscore.Metal>
0.0000

> <Gold.Chemscore.Hbonds>
donor molecule, donor type, donor heavy atom, donor atom, acceptor molecule, acceptor atom, score
      L1  H     8    22       P1  2555  1.00
      L1  H    10    23       P1   541  0.45

> <Gold.PLP.Chemscore.Internal.Correction>
   9.000000E+99

