#       Name:                CT1002167954
#       Creating user name   hitesit
#       Creation time:       Sun Apr 16 20:16:08 2023


#       File generated by GOLD software.
#

@<TRIPOS>MOLECULE
CT1002167954|ligand_prepared|mol2|1|dock10
    29    30     1
SMALL
NO_CHARGES


@<TRIPOS>ATOM
      1 C1          26.7259   9.1117  -3.1624 C.3            1 RES1               0.0000
      2 C2          28.0328   9.5506  -3.8539 C.ar           1 RES1               0.0000
      3 C3          25.6127   9.9571  -3.7740 C.2            1 RES1               0.0000
      4 C4          26.5864   7.6161  -3.4238 C.2            1 RES1               0.0000
      5 C5          26.7248   9.3312  -1.6316 C.3            1 RES1               0.0000
      6 C6          29.2357   9.5613  -3.1542 C.ar           1 RES1               0.0000
      7 C7          28.0517   9.9442  -5.1893 C.ar           1 RES1               0.0000
      8 N8          24.7631   9.3461  -4.6485 N.am           1 RES1               0.0000
      9 O9          25.5060  11.1513  -3.5233 O.2            1 RES1               0.0000
     10 N10         25.5397   7.1951  -4.2017 N.am           1 RES1               0.0000
     11 O11         27.3830   6.7999  -2.9771 O.2            1 RES1               0.0000
     12 C12         25.3530   9.1847  -0.9921 C.3            1 RES1               0.0000
     13 C13         30.4154   9.9486  -3.7679 C.ar           1 RES1               0.0000
     14 C14         29.2325  10.3314  -5.8011 C.ar           1 RES1               0.0000
     15 C15         24.6395   7.9951  -4.8512 C.2            1 RES1               0.0000
     16 C16         30.4147  10.3335  -5.0917 C.ar           1 RES1               0.0000
     17 O17         23.7583   7.5443  -5.5774 O.2            1 RES1               0.0000
     18 H18         27.4084   8.6076  -1.1706 H              1 RES1               0.0000
     19 H19         27.1079  10.3369  -1.4188 H              1 RES1               0.0000
     20 H20         29.2554   9.2640  -2.1110 H              1 RES1               0.0000
     21 H21         27.1334   9.9515  -5.7666 H              1 RES1               0.0000
     22 H22         24.1644   9.9496  -5.2032 H              1 RES1               0.0000
     23 H23         25.4205   6.1925  -4.3060 H              1 RES1               0.0000
     24 H24         25.4086   9.3485   0.0820 H              1 RES1               0.0000
     25 H25         24.6539   9.9065  -1.4093 H              1 RES1               0.0000
     26 H26         24.9526   8.1874  -1.1626 H              1 RES1               0.0000
     27 H27         31.3429   9.9498  -3.2049 H              1 RES1               0.0000
     28 H28         29.2272  10.6342  -6.8430 H              1 RES1               0.0000
     29 H29         31.3390  10.6365  -5.5724 H              1 RES1               0.0000
@<TRIPOS>BOND
    1    1    2 1     
    2    1    3 1     
    3    1    4 1     
    4    1    5 1     
    5    2    6 ar    
    6    2    7 ar    
    7    3    8 1     
    8    3    9 2     
    9    4   10 1     
   10    4   11 2     
   11    5   12 1     
   12    5   18 1     
   13    5   19 1     
   14    6   13 ar    
   15    6   20 1     
   16    7   14 ar    
   17    7   21 1     
   18    8   15 1     
   19    8   22 1     
   20   10   15 1     
   21   10   23 1     
   22   12   24 1     
   23   12   25 1     
   24   12   26 1     
   25   13   16 ar    
   26   13   27 1     
   27   14   16 ar    
   28   14   28 1     
   29   15   17 2     
   30   16   29 1     
@<TRIPOS>SUBSTRUCTURE
      1 RES1           1
@<TRIPOS>SET
DONOR_HYDROGENS      STATIC     ATOMS    <user>   **** ""
2 22 23
ATOM$RED        STATIC     ATOMS    COLORGROUP SYSTEM
2 22 23
@<TRIPOS>COMMENT
> <Gold.Version>
2022.3.0

> <Gold.Id.Protein>
unknown|3nx8_clean|pdb

> <Gold.Protein.RotatedTorsions>
[  550  544  542  539 ] final  -52.53 input   60.01 | X-H torsion
[ 2770 2763 2761 2758 ] final    0.49 input   60.01 | X-H torsion
[ 5056 5047 5046 5044 ] final  119.03 input   59.99 | X-H torsion
[ 1860 1855 1854 1851 ] final -129.67 input   60.02 | X-H torsion
[  567  564  563  560 ] final  -33.57 input   60.03 | X-H torsion
[ 2460 2451 2450 2448 ] final -145.19 input   59.99 | X-H torsion
[ 2535 2524 2523 2522 ] final   91.14 input   60.02 | X-H torsion

> <Gold.Protein.ActiveResidues>
 THR48   LEU49   GLY50   THR51   GLY52   SER53   PHE54   GLY55   ARG56   VAL57  
 MET58   ALA70   LYS72   GLU91   VAL104  MET120  TYR122  VAL123  GLY126  GLU127 
 MET128  PHE129  SER130  TYR164  ASP166  LYS168  PRO169  GLU170  ASN171  LEU172 
 LEU173  GLN181  VAL182  THR183  ASP184  PHE185  GLY186  ASN326  PHE327  ASP328 
 TYR330 

> <Gold.Protein.RotatedAtoms>
   20.7733   11.4130   -6.0803 H   0  0  0  0  0  0  0  0  0  0  0  0  # atno 550  bound_to 544 
   22.2701    9.3931    2.6206 H   0  0  0  0  0  0  0  0  0  0  0  0  # atno 567  bound_to 564 
   25.9905    5.3417  -12.8257 H   0  0  0  0  0  0  0  0  0  0  0  0  # atno 1860 bound_to 1855
   25.5693    2.5078    2.3373 H   0  0  0  0  0  0  0  0  0  0  0  0  # atno 2460 bound_to 2451
   19.0889    4.0925   -0.1197 H   0  0  0  0  0  0  0  0  0  0  0  0  # atno 2535 bound_to 2524
   19.2427    4.9144   -1.5508 H   0  0  0  0  0  0  0  0  0  0  0  0  # atno 2536 bound_to 2524
   18.5536    3.4066   -1.5306 H   0  0  0  0  0  0  0  0  0  0  0  0  # atno 2537 bound_to 2524
   29.5399    8.1031    1.4490 H   0  0  0  0  0  0  0  0  0  0  0  0  # atno 2770 bound_to 2763
   22.7925   10.1206   -8.4795 H   0  0  0  0  0  0  0  0  0  0  0  0  # atno 5056 bound_to 5047
   19.3477   12.0689   -5.6492 LP  0  0  0  0  0  0  0  0  0  0  0  0  # atno 5356 bound_to 544 
   19.9969   10.8628   -4.7601 LP  0  0  0  0  0  0  0  0  0  0  0  0  # atno 5357 bound_to 544 
   28.8648    8.5536    0.0381 LP  0  0  0  0  0  0  0  0  0  0  0  0  # atno 5378 bound_to 2763
   30.4832    8.6417    0.2368 LP  0  0  0  0  0  0  0  0  0  0  0  0  # atno 5379 bound_to 2763
   23.7386    9.9432   -9.7916 LP  0  0  0  0  0  0  0  0  0  0  0  0  # atno 5382 bound_to 5047
   22.1182    9.7892   -9.9230 LP  0  0  0  0  0  0  0  0  0  0  0  0  # atno 5383 bound_to 5047
   26.8424    4.7230  -11.5847 LP  0  0  0  0  0  0  0  0  0  0  0  0  # atno 5388 bound_to 1855
   25.2666    4.3366  -11.7701 LP  0  0  0  0  0  0  0  0  0  0  0  0  # atno 5389 bound_to 1855
   22.2401    8.7107    4.0980 LP  0  0  0  0  0  0  0  0  0  0  0  0  # atno 5398 bound_to 564 
   21.6834   10.2313    3.8865 LP  0  0  0  0  0  0  0  0  0  0  0  0  # atno 5399 bound_to 564 
   27.1959    2.4859    2.3852 LP  0  0  0  0  0  0  0  0  0  0  0  0  # atno 5400 bound_to 2451
   26.3685    3.6483    3.1794 LP  0  0  0  0  0  0  0  0  0  0  0  0  # atno 5401 bound_to 2451

> <Gold.Score>
     Fitness  S(hb_ext) S(vdw_ext)  S(hb_int)    S(int)      intcor
     35.38       1.73      24.95       0.00      -0.67      -0.76

> <Gold.Goldscore.Fitness>
35.3759

> <Gold.Goldscore.Internal.Vdw>
-0.8193

> <Gold.Goldscore.Internal.Torsion>
-0.6142

> <Gold.Goldscore.External.Vdw>
24.9541

> <Gold.Goldscore.Internal.HBond>
0.0000

> <Gold.Goldscore.External.HBond>
1.7326

> <Gold.Goldscore.Internal.Correction>
-0.7650

> <Gold.Goldscore.Hbonds>
donor molecule, donor type, donor heavy atom, donor atom, acceptor molecule, acceptor atom, score
      L1  H    10    23       P1  2555  0.87

> <Gold.Goldscore.Internal.Vdw.Weighted>
-0.8193

> <Gold.Goldscore.Internal.Torsion.Weighted>
-0.6142

> <Gold.Goldscore.External.Vdw.Weighted>
34.3119

> <Gold.Goldscore.Internal.HBond.Weighted>
0.0000

> <Gold.Goldscore.External.HBond.Weighted>
1.7326

> <Gold.Goldscore.Internal.Correction.Weighted>
-0.7650

> <Gold.Rescore>
     Score     S(PLP)   S(hbond)     S(cho)   S(metal)  DE(clash)   DE(tors)     intcor
     28.97     -28.09       1.22       0.00       0.00       0.00       1.39       ----

> <Gold.PLP.Fitness>
28.9653

> <Gold.PLP.PLP>
-28.0868

> <Gold.PLP.part.hbond>
-2.9495

> <Gold.PLP.part.metal>
0.0000

> <Gold.PLP.part.buried>
8.5988

> <Gold.PLP.part.nonpolar>
-37.3045

> <Gold.PLP.part.repulsive>
2.3160

> <Gold.PLP.ligand.clash>
0.0000

> <Gold.PLP.ligand.torsion>
1.3908

> <Gold.PLP.Chemscore.Hbond>
1.2200

> <Gold.PLP.Chemscore.CHOScore>
0.0000

> <Gold.PLP.Chemscore.Metal>
0.0000

> <Gold.Chemscore.Hbonds>
donor molecule, donor type, donor heavy atom, donor atom, acceptor molecule, acceptor atom, score
      L1  H    10    23       P1  2555  1.00

> <Gold.PLP.Chemscore.Internal.Correction>
   9.000000E+99

