#       Name:                CT1002167954
#       Creating user name   hitesit
#       Creation time:       Sun Apr 16 20:15:58 2023


#       File generated by GOLD software.
#

@<TRIPOS>MOLECULE
CT1002167954|ligand_prepared|mol2|1|dock3
    29    30     1
SMALL
NO_CHARGES


@<TRIPOS>ATOM
      1 C1          25.6517   8.4098  -3.8819 C.3            1 RES1               0.0000
      2 C2          24.4356   8.1080  -4.7812 C.ar           1 RES1               0.0000
      3 C3          25.0890   8.8255  -2.5258 C.2            1 RES1               0.0000
      4 C4          26.4829   7.1322  -3.8455 C.2            1 RES1               0.0000
      5 C5          26.5520   9.5506  -4.4107 C.3            1 RES1               0.0000
      6 C6          23.4627   7.1992  -4.3759 C.ar           1 RES1               0.0000
      7 C7          24.2718   8.7314  -6.0154 C.ar           1 RES1               0.0000
      8 N8          25.1883   7.9323  -1.4999 N.am           1 RES1               0.0000
      9 O9          24.5314   9.9047  -2.3689 O.2            1 RES1               0.0000
     10 N10         26.5960   6.4737  -2.6491 N.am           1 RES1               0.0000
     11 O11         27.0271   6.6807  -4.8456 O.2            1 RES1               0.0000
     12 C12         27.7119   9.8935  -3.4891 C.3            1 RES1               0.0000
     13 C13         22.3643   6.9256  -5.1740 C.ar           1 RES1               0.0000
     14 C14         23.1727   8.4562  -6.8121 C.ar           1 RES1               0.0000
     15 C15         25.9612   6.7992  -1.4815 C.2            1 RES1               0.0000
     16 C16         22.2183   7.5541  -6.3923 C.ar           1 RES1               0.0000
     17 O17         26.0696   6.1264  -0.4603 O.2            1 RES1               0.0000
     18 H18         26.9528   9.2593  -5.3894 H              1 RES1               0.0000
     19 H19         25.9375  10.4480  -4.5537 H              1 RES1               0.0000
     20 H20         23.5618   6.6930  -3.4214 H              1 RES1               0.0000
     21 H21         25.0106   9.4437  -6.3665 H              1 RES1               0.0000
     22 H22         24.6369   8.1247  -0.6698 H              1 RES1               0.0000
     23 H23         27.2106   5.6661  -2.6267 H              1 RES1               0.0000
     24 H24         28.3114  10.6995  -3.9072 H              1 RES1               0.0000
     25 H25         27.3488  10.2118  -2.5141 H              1 RES1               0.0000
     26 H26         28.3581   9.0301  -3.3449 H              1 RES1               0.0000
     27 H27         21.6167   6.2139  -4.8397 H              1 RES1               0.0000
     28 H28         23.0622   8.9527  -7.7705 H              1 RES1               0.0000
     29 H29         21.3576   7.3400  -7.0172 H              1 RES1               0.0000
@<TRIPOS>BOND
    1    1    2 1     
    2    1    3 1     
    3    1    4 1     
    4    1    5 1     
    5    2    6 ar    
    6    2    7 ar    
    7    3    8 1     
    8    3    9 2     
    9    4   10 1     
   10    4   11 2     
   11    5   12 1     
   12    5   18 1     
   13    5   19 1     
   14    6   13 ar    
   15    6   20 1     
   16    7   14 ar    
   17    7   21 1     
   18    8   15 1     
   19    8   22 1     
   20   10   15 1     
   21   10   23 1     
   22   12   24 1     
   23   12   25 1     
   24   12   26 1     
   25   13   16 ar    
   26   13   27 1     
   27   14   16 ar    
   28   14   28 1     
   29   15   17 2     
   30   16   29 1     
@<TRIPOS>SUBSTRUCTURE
      1 RES1           1
@<TRIPOS>SET
DONOR_HYDROGENS      STATIC     ATOMS    <user>   **** ""
2 22 23
ATOM$RED        STATIC     ATOMS    COLORGROUP SYSTEM
2 22 23
@<TRIPOS>COMMENT
> <Gold.Version>
2022.3.0

> <Gold.Id.Protein>
unknown|3nx8_clean|pdb

> <Gold.Protein.RotatedTorsions>
[  550  544  542  539 ] final    0.02 input   60.01 | X-H torsion
[ 2770 2763 2761 2758 ] final  110.84 input   60.01 | X-H torsion
[ 5056 5047 5046 5044 ] final  -28.54 input   59.99 | X-H torsion
[ 1860 1855 1854 1851 ] final  114.78 input   60.02 | X-H torsion
[  567  564  563  560 ] final  104.55 input   60.03 | X-H torsion
[ 2460 2451 2450 2448 ] final -103.56 input   59.99 | X-H torsion
[ 2535 2524 2523 2522 ] final -135.89 input   60.02 | X-H torsion

> <Gold.Protein.ActiveResidues>
 THR48   LEU49   GLY50   THR51   GLY52   SER53   PHE54   GLY55   ARG56   VAL57  
 MET58   ALA70   LYS72   GLU91   VAL104  MET120  TYR122  VAL123  GLY126  GLU127 
 MET128  PHE129  SER130  TYR164  ASP166  LYS168  PRO169  GLU170  ASN171  LEU172 
 LEU173  GLN181  VAL182  THR183  ASP184  PHE185  GLY186  ASN326  PHE327  ASP328 
 TYR330 

> <Gold.Protein.RotatedAtoms>
   20.7820   10.8781   -5.4471 H   0  0  0  0  0  0  0  0  0  0  0  0  # atno 550  bound_to 544 
   21.6968   10.0647    4.1310 H   0  0  0  0  0  0  0  0  0  0  0  0  # atno 567  bound_to 564 
   26.8673    4.7667  -11.6379 H   0  0  0  0  0  0  0  0  0  0  0  0  # atno 1860 bound_to 1855
   25.4578    3.0444    2.7150 H   0  0  0  0  0  0  0  0  0  0  0  0  # atno 2460 bound_to 2451
   19.1656    4.8057   -1.7219 H   0  0  0  0  0  0  0  0  0  0  0  0  # atno 2535 bound_to 2524
   18.5442    3.3189   -1.3343 H   0  0  0  0  0  0  0  0  0  0  0  0  # atno 2536 bound_to 2524
   19.1751    4.2889   -0.1470 H   0  0  0  0  0  0  0  0  0  0  0  0  # atno 2537 bound_to 2524
   30.5307    8.5918    0.3792 H   0  0  0  0  0  0  0  0  0  0  0  0  # atno 2770 bound_to 2763
   23.4572    9.8592  -10.1297 H   0  0  0  0  0  0  0  0  0  0  0  0  # atno 5056 bound_to 5047
   19.9771   12.0770   -6.1975 LP  0  0  0  0  0  0  0  0  0  0  0  0  # atno 5356 bound_to 544 
   19.3587   11.3934   -4.8496 LP  0  0  0  0  0  0  0  0  0  0  0  0  # atno 5357 bound_to 544 
   29.3838    8.0994    1.4239 LP  0  0  0  0  0  0  0  0  0  0  0  0  # atno 5378 bound_to 2763
   28.9670    8.6040   -0.0722 LP  0  0  0  0  0  0  0  0  0  0  0  0  # atno 5379 bound_to 2763
   21.9522    9.8545   -9.5108 LP  0  0  0  0  0  0  0  0  0  0  0  0  # atno 5382 bound_to 5047
   23.2354   10.1411   -8.5424 LP  0  0  0  0  0  0  0  0  0  0  0  0  # atno 5383 bound_to 5047
   25.3072    4.3100  -11.7152 LP  0  0  0  0  0  0  0  0  0  0  0  0  # atno 5388 bound_to 1855
   25.9191    5.3285  -12.8354 LP  0  0  0  0  0  0  0  0  0  0  0  0  # atno 5389 bound_to 1855
   22.1632    9.6692    2.6226 LP  0  0  0  0  0  0  0  0  0  0  0  0  # atno 5398 bound_to 564 
   22.3374    8.5967    3.8416 LP  0  0  0  0  0  0  0  0  0  0  0  0  # atno 5399 bound_to 564 
   26.6802    2.1477    2.1231 LP  0  0  0  0  0  0  0  0  0  0  0  0  # atno 5400 bound_to 2451
   26.9964    3.4464    3.0613 LP  0  0  0  0  0  0  0  0  0  0  0  0  # atno 5401 bound_to 2451

> <Gold.Score>
     Fitness  S(hb_ext) S(vdw_ext)  S(hb_int)    S(int)      intcor
     29.59       5.37      17.66       0.00      -0.06      -0.77

> <Gold.Goldscore.Fitness>
29.5911

> <Gold.Goldscore.Internal.Vdw>
-0.4510

> <Gold.Goldscore.Internal.Torsion>
-0.3811

> <Gold.Goldscore.External.Vdw>
17.6606

> <Gold.Goldscore.Internal.HBond>
0.0000

> <Gold.Goldscore.External.HBond>
5.3716

> <Gold.Goldscore.Internal.Correction>
-0.7683

> <Gold.Goldscore.Hbonds>
donor molecule, donor type, donor heavy atom, donor atom, acceptor molecule, acceptor atom, score
      L1  H     8    22       P1  2777  0.89
      L1  H    10    23       P1  2570  0.01

> <Gold.Goldscore.Internal.Vdw.Weighted>
-0.4510

> <Gold.Goldscore.Internal.Torsion.Weighted>
-0.3811

> <Gold.Goldscore.External.Vdw.Weighted>
24.2833

> <Gold.Goldscore.Internal.HBond.Weighted>
0.0000

> <Gold.Goldscore.External.HBond.Weighted>
5.3716

> <Gold.Goldscore.Internal.Correction.Weighted>
-0.7683

> <Gold.Rescore>
     Score     S(PLP)   S(hbond)     S(cho)   S(metal)  DE(clash)   DE(tors)     intcor
     12.20     -12.72       0.00       0.00       0.00       0.00       0.26       ----

> <Gold.PLP.Fitness>
12.2043

> <Gold.PLP.PLP>
-12.7226

> <Gold.PLP.part.hbond>
-3.6853

> <Gold.PLP.part.metal>
0.0000

> <Gold.PLP.part.buried>
24.5960

> <Gold.PLP.part.nonpolar>
-35.2053

> <Gold.PLP.part.repulsive>
0.5225

> <Gold.PLP.ligand.clash>
0.0000

> <Gold.PLP.ligand.torsion>
0.2591

> <Gold.PLP.Chemscore.Hbond>
0.0000

> <Gold.PLP.Chemscore.CHOScore>
0.0000

> <Gold.PLP.Chemscore.Metal>
0.0000

> <Gold.Chemscore.Hbonds>
donor molecule, donor type, donor heavy atom, donor atom, acceptor molecule, acceptor atom, score
      L1  H     8    22       P1  2777  0.19

> <Gold.PLP.Chemscore.Internal.Correction>
   9.000000E+99

