#       Name:                CT1002167954
#       Creating user name   hitesit
#       Creation time:       Sun Apr 16 02:22:04 2023


#       File generated by GOLD software.
#

@<TRIPOS>MOLECULE
CT1002167954|ligand_prepared|mol2|1|dock6
    29    30     1
SMALL
NO_CHARGES


@<TRIPOS>ATOM
      1 C1          48.2771  19.9572   9.4558 C.3            1 RES1               0.0000
      2 C2          48.5185  19.8751   7.9347 C.ar           1 RES1               0.0000
      3 C3          47.9560  18.5382   9.9158 C.2            1 RES1               0.0000
      4 C4          49.5530  20.5332  10.0598 C.2            1 RES1               0.0000
      5 C5          47.1015  20.8801   9.8530 C.3            1 RES1               0.0000
      6 C6          48.7115  21.0313   7.1845 C.ar           1 RES1               0.0000
      7 C7          48.5535  18.6526   7.2693 C.ar           1 RES1               0.0000
      8 N8          48.9170  17.8674  10.6132 N.am           1 RES1               0.0000
      9 O9          46.8909  18.0016   9.6367 O.2            1 RES1               0.0000
     10 N10         50.2916  19.7288  10.8876 N.am           1 RES1               0.0000
     11 O11         49.9342  21.6708   9.8132 O.2            1 RES1               0.0000
     12 C12         45.9078  20.7905   8.9152 C.3            1 RES1               0.0000
     13 C13         48.9344  20.9675   5.8190 C.ar           1 RES1               0.0000
     14 C14         48.7764  18.5911   5.9036 C.ar           1 RES1               0.0000
     15 C15         50.0476  18.4118  11.1672 C.2            1 RES1               0.0000
     16 C16         48.9675  19.7476   5.1778 C.ar           1 RES1               0.0000
     17 O17         50.7885  17.7388  11.8781 O.2            1 RES1               0.0000
     18 H18         46.7743  20.6187  10.8669 H              1 RES1               0.0000
     19 H19         47.4579  21.9174   9.8726 H              1 RES1               0.0000
     20 H20         48.6865  22.0005   7.6714 H              1 RES1               0.0000
     21 H21         48.4047  17.7299   7.8198 H              1 RES1               0.0000
     22 H22         48.7827  16.8685  10.7338 H              1 RES1               0.0000
     23 H23         51.0978  20.1510  11.3371 H              1 RES1               0.0000
     24 H24         45.1118  21.4577   9.2393 H              1 RES1               0.0000
     25 H25         46.1914  21.0683   7.9022 H              1 RES1               0.0000
     26 H26         45.5118  19.7774   8.8906 H              1 RES1               0.0000
     27 H27         49.0829  21.8806   5.2521 H              1 RES1               0.0000
     28 H28         48.8009  17.6288   5.4030 H              1 RES1               0.0000
     29 H29         49.1425  19.6978   4.1081 H              1 RES1               0.0000
@<TRIPOS>BOND
    1    1    2 1     
    2    1    3 1     
    3    1    4 1     
    4    1    5 1     
    5    2    6 ar    
    6    2    7 ar    
    7    3    8 1     
    8    3    9 2     
    9    4   10 1     
   10    4   11 2     
   11    5   12 1     
   12    5   18 1     
   13    5   19 1     
   14    6   13 ar    
   15    6   20 1     
   16    7   14 ar    
   17    7   21 1     
   18    8   15 1     
   19    8   22 1     
   20   10   15 1     
   21   10   23 1     
   22   12   24 1     
   23   12   25 1     
   24   12   26 1     
   25   13   16 ar    
   26   13   27 1     
   27   14   16 ar    
   28   14   28 1     
   29   15   17 2     
   30   16   29 1     
@<TRIPOS>SUBSTRUCTURE
      1 RES1           1
@<TRIPOS>SET
DONOR_HYDROGENS      STATIC     ATOMS    <user>   **** ""
2 22 23
ATOM$RED        STATIC     ATOMS    COLORGROUP SYSTEM
2 22 23
@<TRIPOS>COMMENT
> <Gold.Version>
2022.3.0

> <Gold.Id.Protein>
unknown|7chy_cavity_clean|pdb

> <Gold.Protein.RotatedTorsions>
[ 1696 1688 1689 1690 ] final -176.26 input  114.12 | X-H torsion
[ 5510 5505 5504 5501 ] final -170.08 input   60.02 | X-H torsion
[ 6840 6832 6833 6834 ] final  -67.25 input   71.87 | X-H torsion
[ 1597 1590 1591 1592 ] final  126.12 input  -92.84 | X-H torsion
[ 1613 1611 1610 1608 ] final   70.36 input   60.03 | X-H torsion
[ 8773 1691 1690 1689 ] final  127.68 input   -0.00 | X-H torsion
[ 8800 1593 1592 1591 ] final  -65.49 input    0.00 | X-H torsion

> <Gold.Protein.ActiveResidues>
 GLY101  TYR102  ASN104  ILE106  SER241  GLN242  ALA243  MET246  PRO247  PHE249 
 GLN257  ASP258  ALA52   ASP70   PHE71   ARG108 

> <Gold.Protein.RotatedAtoms>
   49.1687   -5.7089    8.7224 H   0  0  0  0  0  0  0  0  0  0  0  0  # atno 1597 bound_to 1590
   55.5296   26.8720    6.8223 H   0  0  0  0  0  0  0  0  0  0  0  0  # atno 1613 bound_to 1611
   42.2429   -8.7779   -5.7508 H   0  0  0  0  0  0  0  0  0  0  0  0  # atno 1696 bound_to 1688
   53.6056   21.1570   11.8920 H   0  0  0  0  0  0  0  0  0  0  0  0  # atno 5510 bound_to 5505
   40.5592    5.7523   15.8451 H   0  0  0  0  0  0  0  0  0  0  0  0  # atno 6840 bound_to 6832
   41.8172  -10.4812   -5.7885 LP  0  0  0  0  0  0  0  0  0  0  0  0  # atno 8772 bound_to 1688
   40.3247  -12.3845   -7.3742 LP  0  0  0  0  0  0  0  0  0  0  0  0  # atno 8773 bound_to 1691
   41.1424  -11.4524   -8.5837 LP  0  0  0  0  0  0  0  0  0  0  0  0  # atno 8774 bound_to 1691
   53.6510   21.6041   13.4560 LP  0  0  0  0  0  0  0  0  0  0  0  0  # atno 8781 bound_to 5505
   52.2163   21.4100   12.7005 LP  0  0  0  0  0  0  0  0  0  0  0  0  # atno 8782 bound_to 5505
   47.5729   -5.1077    9.1352 LP  0  0  0  0  0  0  0  0  0  0  0  0  # atno 8799 bound_to 1590
   46.7516   -7.6339    7.5906 LP  0  0  0  0  0  0  0  0  0  0  0  0  # atno 8800 bound_to 1593
   45.3545   -6.6431    7.8484 LP  0  0  0  0  0  0  0  0  0  0  0  0  # atno 8801 bound_to 1593
   57.0816   27.3603    6.7932 LP  0  0  0  0  0  0  0  0  0  0  0  0  # atno 8808 bound_to 1611
   56.3357   27.0854    8.2196 LP  0  0  0  0  0  0  0  0  0  0  0  0  # atno 8809 bound_to 1611

> <Gold.Score>
     Fitness  S(hb_ext) S(vdw_ext)  S(hb_int)    S(int)      intcor
     20.21       4.73      13.96       0.00      -3.70      -0.76

> <Gold.Goldscore.Fitness>
20.2142

> <Gold.Goldscore.Internal.Vdw>
-3.4386

> <Gold.Goldscore.Internal.Torsion>
-1.0235

> <Gold.Goldscore.External.Vdw>
13.9571

> <Gold.Goldscore.Internal.HBond>
0.0000

> <Gold.Goldscore.External.HBond>
4.7267

> <Gold.Goldscore.Internal.Correction>
-0.7585

> <Gold.Goldscore.Hbonds>
donor molecule, donor type, donor heavy atom, donor atom, acceptor molecule, acceptor atom, score
      P1  H  5528  5533       L1    17  0.15
      P1  H  5724  5733       L1     9  0.97
      P1  H  5511  5520       L1    17  0.64
      L1  H    10    23       P1  5505  0.61

> <Gold.Goldscore.Internal.Vdw.Weighted>
-3.4386

> <Gold.Goldscore.Internal.Torsion.Weighted>
-1.0235

> <Gold.Goldscore.External.Vdw.Weighted>
19.1910

> <Gold.Goldscore.Internal.HBond.Weighted>
0.0000

> <Gold.Goldscore.External.HBond.Weighted>
4.7267

> <Gold.Goldscore.Internal.Correction.Weighted>
-0.7585

> <Gold.Rescore>
     Score     S(PLP)   S(hbond)     S(cho)   S(metal)  DE(clash)   DE(tors)     intcor
     23.60     -20.60       1.82       0.00       0.00       1.37       0.54       ----

> <Gold.PLP.Fitness>
23.6042

> <Gold.PLP.PLP>
-20.6010

> <Gold.PLP.part.hbond>
-3.3423

> <Gold.PLP.part.metal>
0.0000

> <Gold.PLP.part.buried>
-4.0348

> <Gold.PLP.part.nonpolar>
-14.3710

> <Gold.PLP.part.repulsive>
0.2265

> <Gold.PLP.ligand.clash>
1.3725

> <Gold.PLP.ligand.torsion>
0.5414

> <Gold.PLP.Chemscore.Hbond>
1.8195

> <Gold.PLP.Chemscore.CHOScore>
0.0000

> <Gold.PLP.Chemscore.Metal>
0.0000

> <Gold.Chemscore.Hbonds>
donor molecule, donor type, donor heavy atom, donor atom, acceptor molecule, acceptor atom, score
      P1  H  5724  5733       L1     9  0.62
      P1  H  5511  5520       L1    17  0.55

> <Gold.PLP.Chemscore.Internal.Correction>
   9.000000E+99

