#       Name:                CT1002167954
#       Creating user name   hitesit
#       Creation time:       Sun Apr 16 02:22:05 2023


#       File generated by GOLD software.
#

@<TRIPOS>MOLECULE
CT1002167954|ligand_prepared|mol2|1|dock7
    29    30     1
SMALL
NO_CHARGES


@<TRIPOS>ATOM
      1 C1          50.4779  18.4194   9.6100 C.3            1 RES1               0.0000
      2 C2          50.8365  19.9170   9.6958 C.ar           1 RES1               0.0000
      3 C3          49.6726  18.0990  10.8659 C.2            1 RES1               0.0000
      4 C4          49.7012  18.2404   8.3103 C.2            1 RES1               0.0000
      5 C5          51.7086  17.4840   9.5638 C.3            1 RES1               0.0000
      6 C6          51.6894  20.4961   8.7610 C.ar           1 RES1               0.0000
      7 C7          50.3209  20.7314  10.7005 C.ar           1 RES1               0.0000
      8 N8          48.3291  17.9121  10.7243 N.am           1 RES1               0.0000
      9 O9          50.2020  18.0503  11.9693 O.2            1 RES1               0.0000
     10 N10         48.3836  17.8733   8.3951 N.am           1 RES1               0.0000
     11 O11         50.2136  18.4301   7.2141 O.2            1 RES1               0.0000
     12 C12         51.3548  16.0120   9.4211 C.3            1 RES1               0.0000
     13 C13         52.0129  21.8412   8.8264 C.ar           1 RES1               0.0000
     14 C14         50.6459  22.0763  10.7643 C.ar           1 RES1               0.0000
     15 C15         47.6542  17.7310   9.5439 C.2            1 RES1               0.0000
     16 C16         51.4911  22.6322   9.8277 C.ar           1 RES1               0.0000
     17 O17         46.4587  17.4518   9.5375 O.2            1 RES1               0.0000
     18 H18         52.3440  17.7779   8.7193 H              1 RES1               0.0000
     19 H19         52.2900  17.6197  10.4841 H              1 RES1               0.0000
     20 H20         52.1117  19.8888   7.9673 H              1 RES1               0.0000
     21 H21         49.6548  20.3154  11.4488 H              1 RES1               0.0000
     22 H22         47.7750  17.9066  11.5748 H              1 RES1               0.0000
     23 H23         47.9021  17.6890   7.5207 H              1 RES1               0.0000
     24 H24         52.2540  15.4001   9.3938 H              1 RES1               0.0000
     25 H25         50.7438  15.6792  10.2576 H              1 RES1               0.0000
     26 H26         50.7975  15.8365   8.5033 H              1 RES1               0.0000
     27 H27         52.6797  22.2736   8.0877 H              1 RES1               0.0000
     28 H28         50.2334  22.6950  11.5544 H              1 RES1               0.0000
     29 H29         51.7444  23.6860   9.8785 H              1 RES1               0.0000
@<TRIPOS>BOND
    1    1    2 1     
    2    1    3 1     
    3    1    4 1     
    4    1    5 1     
    5    2    6 ar    
    6    2    7 ar    
    7    3    8 1     
    8    3    9 2     
    9    4   10 1     
   10    4   11 2     
   11    5   12 1     
   12    5   18 1     
   13    5   19 1     
   14    6   13 ar    
   15    6   20 1     
   16    7   14 ar    
   17    7   21 1     
   18    8   15 1     
   19    8   22 1     
   20   10   15 1     
   21   10   23 1     
   22   12   24 1     
   23   12   25 1     
   24   12   26 1     
   25   13   16 ar    
   26   13   27 1     
   27   14   16 ar    
   28   14   28 1     
   29   15   17 2     
   30   16   29 1     
@<TRIPOS>SUBSTRUCTURE
      1 RES1           1
@<TRIPOS>SET
DONOR_HYDROGENS      STATIC     ATOMS    <user>   **** ""
2 22 23
ATOM$RED        STATIC     ATOMS    COLORGROUP SYSTEM
2 22 23
@<TRIPOS>COMMENT
> <Gold.Version>
2022.3.0

> <Gold.Id.Protein>
unknown|7chy_cavity_clean|pdb

> <Gold.Protein.RotatedTorsions>
[ 1696 1688 1689 1690 ] final  -30.10 input  114.12 | X-H torsion
[ 5510 5505 5504 5501 ] final  -70.24 input   60.02 | X-H torsion
[ 6840 6832 6833 6834 ] final -121.57 input   71.87 | X-H torsion
[ 1597 1590 1591 1592 ] final   41.74 input  -92.84 | X-H torsion
[ 1613 1611 1610 1608 ] final   14.76 input   60.03 | X-H torsion
[ 8773 1691 1690 1689 ] final -156.83 input   -0.00 | X-H torsion
[ 8800 1593 1592 1591 ] final  170.73 input    0.00 | X-H torsion

> <Gold.Protein.ActiveResidues>
 GLY101  TYR102  ASN104  ILE106  SER241  GLN242  ALA243  MET246  PRO247  PHE249 
 GLN257  ASP258  ALA52   ASP70   PHE71   ARG108 

> <Gold.Protein.RotatedAtoms>
   48.1103   -6.2637    8.8778 H   0  0  0  0  0  0  0  0  0  0  0  0  # atno 1597 bound_to 1590
   56.2237   27.1030    6.3455 H   0  0  0  0  0  0  0  0  0  0  0  0  # atno 1613 bound_to 1611
   41.4736  -10.2910   -5.4549 H   0  0  0  0  0  0  0  0  0  0  0  0  # atno 1696 bound_to 1688
   52.2719   21.3182   12.3896 H   0  0  0  0  0  0  0  0  0  0  0  0  # atno 5510 bound_to 5505
   40.2521    5.2065   16.3690 H   0  0  0  0  0  0  0  0  0  0  0  0  # atno 6840 bound_to 6832
   42.5475   -9.0448   -6.0694 LP  0  0  0  0  0  0  0  0  0  0  0  0  # atno 8772 bound_to 1688
   40.0241  -12.2158   -8.3769 LP  0  0  0  0  0  0  0  0  0  0  0  0  # atno 8773 bound_to 1691
   41.4429  -11.6211   -7.5810 LP  0  0  0  0  0  0  0  0  0  0  0  0  # atno 8774 bound_to 1691
   53.8667   21.2106   12.0847 LP  0  0  0  0  0  0  0  0  0  0  0  0  # atno 8781 bound_to 5505
   53.3437   21.6412   13.5706 LP  0  0  0  0  0  0  0  0  0  0  0  0  # atno 8782 bound_to 5505
   48.5837   -4.5778    8.9868 LP  0  0  0  0  0  0  0  0  0  0  0  0  # atno 8799 bound_to 1590
   45.3317   -7.1900    7.2431 LP  0  0  0  0  0  0  0  0  0  0  0  0  # atno 8800 bound_to 1593
   46.7745   -7.0870    8.1959 LP  0  0  0  0  0  0  0  0  0  0  0  0  # atno 8801 bound_to 1593
   57.1343   27.3512    7.6711 LP  0  0  0  0  0  0  0  0  0  0  0  0  # atno 8808 bound_to 1611
   55.5838   26.8617    7.8220 LP  0  0  0  0  0  0  0  0  0  0  0  0  # atno 8809 bound_to 1611

> <Gold.Score>
     Fitness  S(hb_ext) S(vdw_ext)  S(hb_int)    S(int)      intcor
     31.73       4.69      21.23       0.00      -2.15      -0.76

> <Gold.Goldscore.Fitness>
31.7293

> <Gold.Goldscore.Internal.Vdw>
-2.5313

> <Gold.Goldscore.Internal.Torsion>
-0.3758

> <Gold.Goldscore.External.Vdw>
21.2301

> <Gold.Goldscore.Internal.HBond>
0.0000

> <Gold.Goldscore.External.HBond>
4.6865

> <Gold.Goldscore.Internal.Correction>
-0.7585

> <Gold.Goldscore.Hbonds>
donor molecule, donor type, donor heavy atom, donor atom, acceptor molecule, acceptor atom, score
      P1  H  5724  5733       L1    17  0.91
      P1  H  5511  5520       L1     9  1.00
      L1  H     8    22       P1  5720  0.43

> <Gold.Goldscore.Internal.Vdw.Weighted>
-2.5313

> <Gold.Goldscore.Internal.Torsion.Weighted>
-0.3758

> <Gold.Goldscore.External.Vdw.Weighted>
29.1914

> <Gold.Goldscore.Internal.HBond.Weighted>
0.0000

> <Gold.Goldscore.External.HBond.Weighted>
4.6865

> <Gold.Goldscore.Internal.Correction.Weighted>
-0.7585

> <Gold.Rescore>
     Score     S(PLP)   S(hbond)     S(cho)   S(metal)  DE(clash)   DE(tors)     intcor
     34.92     -27.36       3.00       0.00       0.00       1.37       0.04       ----

> <Gold.PLP.Fitness>
34.9230

> <Gold.PLP.PLP>
-27.3619

> <Gold.PLP.part.hbond>
-5.0000

> <Gold.PLP.part.metal>
0.0000

> <Gold.PLP.part.buried>
-0.8158

> <Gold.PLP.part.nonpolar>
-22.7863

> <Gold.PLP.part.repulsive>
0.4095

> <Gold.PLP.ligand.clash>
1.3671

> <Gold.PLP.ligand.torsion>
0.0359

> <Gold.PLP.Chemscore.Hbond>
3.0000

> <Gold.PLP.Chemscore.CHOScore>
0.0000

> <Gold.PLP.Chemscore.Metal>
0.0000

> <Gold.Chemscore.Hbonds>
donor molecule, donor type, donor heavy atom, donor atom, acceptor molecule, acceptor atom, score
      L1  H     8    22       P1  5720  1.00
      P1  H  5724  5733       L1    17  1.00
      P1  H  5511  5520       L1     9  1.00

> <Gold.PLP.Chemscore.Internal.Correction>
   9.000000E+99

