#       Name:                CT1002167954
#       Creating user name   hitesit
#       Creation time:       Sun Apr 16 02:22:01 2023


#       File generated by GOLD software.
#

@<TRIPOS>MOLECULE
CT1002167954|ligand_prepared|mol2|1|dock2
    29    30     1
SMALL
NO_CHARGES


@<TRIPOS>ATOM
      1 C1          49.9625  21.6023   8.2443 C.3            1 RES1               0.0000
      2 C2          50.6902  20.3415   7.7348 C.ar           1 RES1               0.0000
      3 C3          48.5694  21.5736   7.6225 C.2            1 RES1               0.0000
      4 C4          49.9664  21.5113   9.7663 C.2            1 RES1               0.0000
      5 C5          50.6523  22.9270   7.8432 C.3            1 RES1               0.0000
      6 C6          50.0817  19.0923   7.8116 C.ar           1 RES1               0.0000
      7 C7          51.9670  20.4121   7.1840 C.ar           1 RES1               0.0000
      8 N8          47.5214  21.2541   8.4346 N.am           1 RES1               0.0000
      9 O9          48.3978  21.7892   6.4290 O.2            1 RES1               0.0000
     10 N10         48.7624  21.3636  10.4038 N.am           1 RES1               0.0000
     11 O11         51.0026  21.5495  10.4182 O.2            1 RES1               0.0000
     12 C12         49.8722  24.1697   8.2420 C.3            1 RES1               0.0000
     13 C13         50.7249  17.9552   7.3517 C.ar           1 RES1               0.0000
     14 C14         52.6086  19.2736   6.7249 C.ar           1 RES1               0.0000
     15 C15         47.5429  21.2000   9.8051 C.2            1 RES1               0.0000
     16 C16         51.9885  18.0451   6.8077 C.ar           1 RES1               0.0000
     17 O17         46.5114  21.0178  10.4454 O.2            1 RES1               0.0000
     18 H18         51.6427  22.9658   8.3132 H              1 RES1               0.0000
     19 H19         50.7967  22.9346   6.7557 H              1 RES1               0.0000
     20 H20         49.0885  19.0017   8.2388 H              1 RES1               0.0000
     21 H21         52.4746  21.3678   7.1097 H              1 RES1               0.0000
     22 H22         46.6401  21.0351   7.9810 H              1 RES1               0.0000
     23 H23         48.7765  21.3769  11.4187 H              1 RES1               0.0000
     24 H24         50.4001  25.0709   7.9372 H              1 RES1               0.0000
     25 H25         48.8909  24.1766   7.7721 H              1 RES1               0.0000
     26 H26         49.7319  24.2075   9.3203 H              1 RES1               0.0000
     27 H27         50.2331  16.9905   7.4204 H              1 RES1               0.0000
     28 H28         53.6033  19.3489   6.2980 H              1 RES1               0.0000
     29 H29         52.4920  17.1542   6.4471 H              1 RES1               0.0000
@<TRIPOS>BOND
    1    1    2 1     
    2    1    3 1     
    3    1    4 1     
    4    1    5 1     
    5    2    6 ar    
    6    2    7 ar    
    7    3    8 1     
    8    3    9 2     
    9    4   10 1     
   10    4   11 2     
   11    5   12 1     
   12    5   18 1     
   13    5   19 1     
   14    6   13 ar    
   15    6   20 1     
   16    7   14 ar    
   17    7   21 1     
   18    8   15 1     
   19    8   22 1     
   20   10   15 1     
   21   10   23 1     
   22   12   24 1     
   23   12   25 1     
   24   12   26 1     
   25   13   16 ar    
   26   13   27 1     
   27   14   16 ar    
   28   14   28 1     
   29   15   17 2     
   30   16   29 1     
@<TRIPOS>SUBSTRUCTURE
      1 RES1           1
@<TRIPOS>SET
DONOR_HYDROGENS      STATIC     ATOMS    <user>   **** ""
2 22 23
ATOM$RED        STATIC     ATOMS    COLORGROUP SYSTEM
2 22 23
@<TRIPOS>COMMENT
> <Gold.Version>
2022.3.0

> <Gold.Id.Protein>
unknown|7chy_cavity_clean|pdb

> <Gold.Protein.RotatedTorsions>
[ 1696 1688 1689 1690 ] final  -82.10 input  114.12 | X-H torsion
[ 5510 5505 5504 5501 ] final  -94.51 input   60.02 | X-H torsion
[ 6840 6832 6833 6834 ] final  134.83 input   71.87 | X-H torsion
[ 1597 1590 1591 1592 ] final  -63.96 input  -92.84 | X-H torsion
[ 1613 1611 1610 1608 ] final   29.87 input   60.03 | X-H torsion
[ 8773 1691 1690 1689 ] final  -97.70 input   -0.00 | X-H torsion
[ 8800 1593 1592 1591 ] final  -75.02 input    0.00 | X-H torsion

> <Gold.Protein.ActiveResidues>
 GLY101  TYR102  ASN104  ILE106  SER241  GLN242  ALA243  MET246  PRO247  PHE249 
 GLN257  ASP258  ALA52   ASP70   PHE71   ARG108 

> <Gold.Protein.RotatedAtoms>
   47.5970   -4.9482    9.1048 H   0  0  0  0  0  0  0  0  0  0  0  0  # atno 1597 bound_to 1590
   55.9951   27.0299    6.4003 H   0  0  0  0  0  0  0  0  0  0  0  0  # atno 1613 bound_to 1611
   41.3863   -9.5726   -5.1393 H   0  0  0  0  0  0  0  0  0  0  0  0  # atno 1696 bound_to 1688
   52.4734   21.2229   12.0653 H   0  0  0  0  0  0  0  0  0  0  0  0  # atno 5510 bound_to 5505
   38.9454    5.6977   16.5344 H   0  0  0  0  0  0  0  0  0  0  0  0  # atno 6840 bound_to 6832
   42.6304   -9.7268   -6.3690 LP  0  0  0  0  0  0  0  0  0  0  0  0  # atno 8772 bound_to 1688
   40.5744  -11.7239   -8.8077 LP  0  0  0  0  0  0  0  0  0  0  0  0  # atno 8773 bound_to 1691
   40.8926  -12.1130   -7.1502 LP  0  0  0  0  0  0  0  0  0  0  0  0  # atno 8774 bound_to 1691
   54.0599   21.3027   12.4182 LP  0  0  0  0  0  0  0  0  0  0  0  0  # atno 8781 bound_to 5505
   52.9476   21.6450   13.5637 LP  0  0  0  0  0  0  0  0  0  0  0  0  # atno 8782 bound_to 5505
   49.0739   -5.8342    8.7701 LP  0  0  0  0  0  0  0  0  0  0  0  0  # atno 8799 bound_to 1590
   46.6757   -7.6922    7.4832 LP  0  0  0  0  0  0  0  0  0  0  0  0  # atno 8800 bound_to 1593
   45.4305   -6.5848    7.9558 LP  0  0  0  0  0  0  0  0  0  0  0  0  # atno 8801 bound_to 1593
   57.2021   27.3794    7.4341 LP  0  0  0  0  0  0  0  0  0  0  0  0  # atno 8808 bound_to 1611
   55.7463   26.9073    8.0037 LP  0  0  0  0  0  0  0  0  0  0  0  0  # atno 8809 bound_to 1611

> <Gold.Score>
     Fitness  S(hb_ext) S(vdw_ext)  S(hb_int)    S(int)      intcor
     21.59       8.00       9.93       0.00      -0.07      -0.79

> <Gold.Goldscore.Fitness>
21.5884

> <Gold.Goldscore.Internal.Vdw>
-0.4530

> <Gold.Goldscore.Internal.Torsion>
-0.4086

> <Gold.Goldscore.External.Vdw>
9.9337

> <Gold.Goldscore.Internal.HBond>
0.0000

> <Gold.Goldscore.External.HBond>
8.0000

> <Gold.Goldscore.Internal.Correction>
-0.7912

> <Gold.Goldscore.Hbonds>
donor molecule, donor type, donor heavy atom, donor atom, acceptor molecule, acceptor atom, score
      P1  H  5505  5510       L1    11  1.00
      L1  H    10    23       P1  5740  1.00

> <Gold.Goldscore.Internal.Vdw.Weighted>
-0.4530

> <Gold.Goldscore.Internal.Torsion.Weighted>
-0.4086

> <Gold.Goldscore.External.Vdw.Weighted>
13.6588

> <Gold.Goldscore.Internal.HBond.Weighted>
0.0000

> <Gold.Goldscore.External.HBond.Weighted>
8.0000

> <Gold.Goldscore.Internal.Correction.Weighted>
-0.7912

> <Gold.Rescore>
     Score     S(PLP)   S(hbond)     S(cho)   S(metal)  DE(clash)   DE(tors)     intcor
     19.22     -14.51       2.00       0.00       0.00       0.00       0.64       ----

> <Gold.PLP.Fitness>
19.2189

> <Gold.PLP.PLP>
-14.5056

> <Gold.PLP.part.hbond>
-2.0000

> <Gold.PLP.part.metal>
0.0000

> <Gold.PLP.part.buried>
0.4743

> <Gold.PLP.part.nonpolar>
-13.6234

> <Gold.PLP.part.repulsive>
0.2576

> <Gold.PLP.ligand.clash>
0.0000

> <Gold.PLP.ligand.torsion>
0.6434

> <Gold.PLP.Chemscore.Hbond>
2.0000

> <Gold.PLP.Chemscore.CHOScore>
0.0000

> <Gold.PLP.Chemscore.Metal>
0.0000

> <Gold.Chemscore.Hbonds>
donor molecule, donor type, donor heavy atom, donor atom, acceptor molecule, acceptor atom, score
      L1  H    10    23       P1  5740  1.00
      P1  H  5505  5510       L1    11  0.67

> <Gold.PLP.Chemscore.Internal.Correction>
   9.000000E+99

