#       Name:                CT1002167954
#       Creating user name   hitesit
#       Creation time:       Sun Apr 16 02:22:06 2023


#       File generated by GOLD software.
#

@<TRIPOS>MOLECULE
CT1002167954|ligand_prepared|mol2|1|dock8
    29    30     1
SMALL
NO_CHARGES


@<TRIPOS>ATOM
      1 C1          52.6153  26.1123   9.7654 C.3            1 RES1               0.0000
      2 C2          51.7295  27.1314   9.0201 C.ar           1 RES1               0.0000
      3 C3          51.6730  25.2695  10.6198 C.2            1 RES1               0.0000
      4 C4          53.3542  25.3229   8.6905 C.2            1 RES1               0.0000
      5 C5          53.6702  26.7611  10.6917 C.3            1 RES1               0.0000
      6 C6          50.4728  26.7656   8.5472 C.ar           1 RES1               0.0000
      7 C7          52.1534  28.4394   8.8007 C.ar           1 RES1               0.0000
      8 N8          51.4214  23.9929  10.2113 N.am           1 RES1               0.0000
      9 O9          51.1278  25.7308  11.6149 O.2            1 RES1               0.0000
     10 N10         53.0702  23.9882   8.5648 N.am           1 RES1               0.0000
     11 O11         54.1676  25.8481   7.9403 O.2            1 RES1               0.0000
     12 C12         54.3526  25.7762  11.6280 C.3            1 RES1               0.0000
     13 C13         49.6678  27.6751   7.8816 C.ar           1 RES1               0.0000
     14 C14         51.3469  29.3473   8.1346 C.ar           1 RES1               0.0000
     15 C15         52.1149  23.2942   9.2560 C.2            1 RES1               0.0000
     16 C16         50.1040  28.9665   7.6753 C.ar           1 RES1               0.0000
     17 O17         51.8804  22.1071   9.0484 O.2            1 RES1               0.0000
     18 H18         54.4341  27.2461  10.0716 H              1 RES1               0.0000
     19 H19         53.1823  27.5389  11.2921 H              1 RES1               0.0000
     20 H20         50.1136  25.7530   8.6981 H              1 RES1               0.0000
     21 H21         53.1279  28.7608   9.1523 H              1 RES1               0.0000
     22 H22         50.6459  23.5134  10.6573 H              1 RES1               0.0000
     23 H23         53.6222  23.4635   7.8937 H              1 RES1               0.0000
     24 H24         55.0828  26.2831  12.2554 H              1 RES1               0.0000
     25 H25         53.6249  25.2936  12.2772 H              1 RES1               0.0000
     26 H26         54.8693  25.0025  11.0639 H              1 RES1               0.0000
     27 H27         48.6910  27.3701   7.5209 H              1 RES1               0.0000
     28 H28         51.6945  30.3624   7.9739 H              1 RES1               0.0000
     29 H29         49.4730  29.6789   7.1541 H              1 RES1               0.0000
@<TRIPOS>BOND
    1    1    2 1     
    2    1    3 1     
    3    1    4 1     
    4    1    5 1     
    5    2    6 ar    
    6    2    7 ar    
    7    3    8 1     
    8    3    9 2     
    9    4   10 1     
   10    4   11 2     
   11    5   12 1     
   12    5   18 1     
   13    5   19 1     
   14    6   13 ar    
   15    6   20 1     
   16    7   14 ar    
   17    7   21 1     
   18    8   15 1     
   19    8   22 1     
   20   10   15 1     
   21   10   23 1     
   22   12   24 1     
   23   12   25 1     
   24   12   26 1     
   25   13   16 ar    
   26   13   27 1     
   27   14   16 ar    
   28   14   28 1     
   29   15   17 2     
   30   16   29 1     
@<TRIPOS>SUBSTRUCTURE
      1 RES1           1
@<TRIPOS>SET
DONOR_HYDROGENS      STATIC     ATOMS    <user>   **** ""
2 22 23
ATOM$RED        STATIC     ATOMS    COLORGROUP SYSTEM
2 22 23
@<TRIPOS>COMMENT
> <Gold.Version>
2022.3.0

> <Gold.Id.Protein>
unknown|7chy_cavity_clean|pdb

> <Gold.Protein.RotatedTorsions>
[ 1696 1688 1689 1690 ] final  116.53 input  114.12 | X-H torsion
[ 5510 5505 5504 5501 ] final  -11.11 input   60.02 | X-H torsion
[ 6840 6832 6833 6834 ] final -157.22 input   71.87 | X-H torsion
[ 1597 1590 1591 1592 ] final  152.33 input  -92.84 | X-H torsion
[ 1613 1611 1610 1608 ] final   91.64 input   60.03 | X-H torsion
[ 8773 1691 1690 1689 ] final   -3.92 input   -0.00 | X-H torsion
[ 8800 1593 1592 1591 ] final  136.16 input    0.00 | X-H torsion

> <Gold.Protein.ActiveResidues>
 GLY101  TYR102  ASN104  ILE106  SER241  GLN242  ALA243  MET246  PRO247  PHE249 
 GLN257  ASP258  ALA52   ASP70   PHE71   ARG108 

> <Gold.Protein.RotatedAtoms>
   49.2257   -5.3070    8.7497 H   0  0  0  0  0  0  0  0  0  0  0  0  # atno 1597 bound_to 1590
   55.4279   26.8306    7.1501 H   0  0  0  0  0  0  0  0  0  0  0  0  # atno 1613 bound_to 1611
   42.6559   -9.4360   -6.3755 H   0  0  0  0  0  0  0  0  0  0  0  0  # atno 1696 bound_to 1688
   52.4464   21.5642   13.2629 H   0  0  0  0  0  0  0  0  0  0  0  0  # atno 5510 bound_to 5505
   39.7683    5.1359   16.6154 H   0  0  0  0  0  0  0  0  0  0  0  0  # atno 6840 bound_to 6832
   41.4251   -9.8565   -5.1955 LP  0  0  0  0  0  0  0  0  0  0  0  0  # atno 8772 bound_to 1688
   41.4738  -11.4696   -7.9560 LP  0  0  0  0  0  0  0  0  0  0  0  0  # atno 8773 bound_to 1691
   39.9932  -12.3673   -8.0019 LP  0  0  0  0  0  0  0  0  0  0  0  0  # atno 8774 bound_to 1691
   52.9876   21.1390   11.7884 LP  0  0  0  0  0  0  0  0  0  0  0  0  # atno 8781 bound_to 5505
   54.0471   21.4649   12.9875 LP  0  0  0  0  0  0  0  0  0  0  0  0  # atno 8782 bound_to 5505
   47.5184   -5.4915    9.1092 LP  0  0  0  0  0  0  0  0  0  0  0  0  # atno 8799 bound_to 1590
   45.2560   -6.8231    7.5961 LP  0  0  0  0  0  0  0  0  0  0  0  0  # atno 8800 bound_to 1593
   46.8501   -7.4539    7.8429 LP  0  0  0  0  0  0  0  0  0  0  0  0  # atno 8801 bound_to 1593
   56.8590   27.2983    6.5327 LP  0  0  0  0  0  0  0  0  0  0  0  0  # atno 8808 bound_to 1611
   56.6607   27.1891    8.1499 LP  0  0  0  0  0  0  0  0  0  0  0  0  # atno 8809 bound_to 1611

> <Gold.Score>
     Fitness  S(hb_ext) S(vdw_ext)  S(hb_int)    S(int)      intcor
     20.35       0.02      14.99       0.00      -0.28      -0.76

> <Gold.Goldscore.Fitness>
20.3514

> <Gold.Goldscore.Internal.Vdw>
-0.4632

> <Gold.Goldscore.Internal.Torsion>
-0.5774

> <Gold.Goldscore.External.Vdw>
14.9893

> <Gold.Goldscore.Internal.HBond>
0.0000

> <Gold.Goldscore.External.HBond>
0.0233

> <Gold.Goldscore.Internal.Correction>
-0.7585

> <Gold.Goldscore.Hbonds>
donor molecule, donor type, donor heavy atom, donor atom, acceptor molecule, acceptor atom, score
      P1  H  1611  1613       L1    11  0.01

> <Gold.Goldscore.Internal.Vdw.Weighted>
-0.4632

> <Gold.Goldscore.Internal.Torsion.Weighted>
-0.5774

> <Gold.Goldscore.External.Vdw.Weighted>
20.6103

> <Gold.Goldscore.Internal.HBond.Weighted>
0.0000

> <Gold.Goldscore.External.HBond.Weighted>
0.0233

> <Gold.Goldscore.Internal.Correction.Weighted>
-0.7585

> <Gold.Rescore>
     Score     S(PLP)   S(hbond)     S(cho)   S(metal)  DE(clash)   DE(tors)     intcor
     37.43     -38.27       0.62       0.00       0.00       1.93       0.38       ----

> <Gold.PLP.Fitness>
37.4314

> <Gold.PLP.PLP>
-38.2668

> <Gold.PLP.part.hbond>
-2.0000

> <Gold.PLP.part.metal>
0.0000

> <Gold.PLP.part.buried>
-3.9801

> <Gold.PLP.part.nonpolar>
-33.4633

> <Gold.PLP.part.repulsive>
0.0862

> <Gold.PLP.ligand.clash>
1.9346

> <Gold.PLP.ligand.torsion>
0.3782

> <Gold.PLP.Chemscore.Hbond>
0.6185

> <Gold.PLP.Chemscore.CHOScore>
0.0000

> <Gold.PLP.Chemscore.Metal>
0.0000

> <Gold.Chemscore.Hbonds>
donor molecule, donor type, donor heavy atom, donor atom, acceptor molecule, acceptor atom, score
      P1  H  1611  1613       L1    11  0.58

> <Gold.PLP.Chemscore.Internal.Correction>
   9.000000E+99

